@<TRIPOS>MOLECULE
tmp/6aujB00.pdb
 106 105 0 0 0
SMALL
GASTEIGER

@<TRIPOS>ATOM
      1  N         11.2350  -82.3990    5.7690 N.3    59  GLU59      -0.1245
      2  CA        11.0450  -81.7610    7.0690 C.3    59  GLU59       0.1567
      3  C         11.4310  -80.2900    7.0150 C.2    59  GLU59       0.2260
      4  O         10.7450  -79.4300    7.5870 O.2    59  GLU59      -0.2867
      5  CB        11.8580  -82.4800    8.1520 C.3    59  GLU59       0.0388
      6  CG        11.4850  -81.9670    9.5530 C.3    59  GLU59       0.1160
      7  CD        12.4550  -82.3810   10.6360 C.2    59  GLU59       0.3649
      8  OE1       13.6780  -82.3030   10.3940 O.co2  59  GLU59      -0.2457
      9  OE2       11.9870  -82.7650   11.7370 O.co2  59  GLU59      -0.2457
     10  N          8.6490  -89.2940   10.4750 N.3    80  ILE80      -0.1231
     11  CA         9.5040  -89.0680   11.6330 C.3    80  ILE80       0.1692
     12  C          8.7820  -88.3610   12.7760 C.2    80  ILE80       0.2592
     13  O          9.2480  -88.4280   13.9180 O.2    80  ILE80      -0.2718
     14  CB        10.7720  -88.3010   11.2120 C.3    80  ILE80       0.0266
     15  CG1       10.4190  -86.9690   10.5590 C.3    80  ILE80       0.0019
     16  CG2       11.6180  -89.1620   10.2740 C.3    80  ILE80       0.0020
     17  CD1       11.6320  -86.1640   10.1510 C.3    80  ILE80       0.0001
     18  N          7.6530  -87.6970   12.5180 N.am   81  TRP81      -0.1976
     19  CA         6.9200  -87.0070   13.5760 C.3    81  TRP81       0.1640
     20  C          5.6550  -87.7410   14.0120 C.2    81  TRP81       0.2290
     21  O          4.9160  -87.2210   14.8570 O.2    81  TRP81      -0.2864
     22  CB         6.5610  -85.5790   13.1300 C.3    81  TRP81       0.0576
     23  CG         7.6990  -84.5900   13.2020 C.ar   81  TRP81       0.0006
     24  CD1        8.5760  -84.2690   12.2020 C.ar   81  TRP81       0.0946
     25  CD2        8.0760  -83.7840   14.3360 C.ar   81  TRP81       0.0152
     26  NE1        9.4830  -83.3300   12.6490 N.ar   81  TRP81      -0.2442
     27  CE2        9.1880  -83.0070   13.9470 C.ar   81  TRP81       0.0810
     28  CE3        7.5770  -83.6450   15.6350 C.ar   81  TRP81       0.0012
     29  CZ2        9.8130  -82.1040   14.8150 C.ar   81  TRP81       0.0191
     30  CZ3        8.2000  -82.7500   16.4950 C.ar   81  TRP81       0.0001
     31  CH2        9.3020  -81.9890   16.0790 C.ar   81  TRP81       0.0015
     32  N          4.3900  -88.2430   17.7950 N.3    84  TRP84      -0.1241
     33  CA         4.1050  -87.0900   18.6400 C.3    84  TRP84       0.1605
     34  C          2.8240  -86.3480   18.2780 C.2    84  TRP84       0.2264
     35  O          2.3460  -85.5470   19.0880 O.2    84  TRP84      -0.2867
     36  CB         5.2790  -86.1040   18.5900 C.3    84  TRP84       0.0550
     37  CG         6.5980  -86.7350   18.9210 C.ar   84  TRP84       0.0003
     38  CD1        7.4860  -87.2900   18.0440 C.ar   84  TRP84       0.0946
     39  CD2        7.1770  -86.8770   20.2220 C.ar   84  TRP84       0.0152
     40  NE1        8.5830  -87.7650   18.7200 N.ar   84  TRP84      -0.2442
     41  CE2        8.4180  -87.5240   20.0580 C.ar   84  TRP84       0.0810
     42  CE3        6.7670  -86.5170   21.5090 C.ar   84  TRP84       0.0012
     43  CZ2        9.2530  -87.8200   21.1330 C.ar   84  TRP84       0.0191
     44  CZ3        7.5980  -86.8120   22.5780 C.ar   84  TRP84       0.0001
     45  CH2        8.8260  -87.4580   22.3830 C.ar   84  TRP84       0.0015
     46  N          8.5700  -76.1290   15.5910 N.3    95  TYR95      -0.1241
     47  CA         9.5040  -75.4060   14.7280 C.3    95  TYR95       0.1605
     48  C          8.8680  -74.4850   13.6970 C.2    95  TYR95       0.2264
     49  O          9.1370  -73.2780   13.6820 O.2    95  TYR95      -0.2867
     50  CB        10.4100  -76.4010   14.0030 C.3    95  TYR95       0.0534
     51  CG        11.3240  -77.1540   14.9300 C.ar   95  TYR95      -0.0201
     52  CD1       12.3770  -76.5090   15.5660 C.ar   95  TYR95      -0.0009
     53  CD2       11.1400  -78.5080   15.1760 C.ar   95  TYR95      -0.0009
     54  CE1       13.2130  -77.1930   16.4050 C.ar   95  TYR95       0.0417
     55  CE2       11.9770  -79.2100   16.0160 C.ar   95  TYR95       0.0417
     56  CZ        13.0120  -78.5420   16.6430 C.ar   95  TYR95       0.1957
     57  OH        13.8330  -79.2620   17.4660 O.3    95  TYR95      -0.2866
     58  N          6.4210  -81.5510   22.1400 N.3   144  LEU144     -0.1245
     59  CA         7.6440  -81.7130   22.9160 C.3   144  LEU144      0.1561
     60  C          8.5010  -80.4680   22.7520 C.2   144  LEU144      0.2260
     61  O          8.3730  -79.7240   21.7720 O.2   144  LEU144     -0.2867
     62  CB         8.4300  -82.9610   22.5010 C.3   144  LEU144      0.0270
     63  CG         9.2660  -82.8280   21.2320 C.3   144  LEU144      0.0019
     64  CD1       10.3810  -83.8580   21.2400 C.3   144  LEU144      0.0001
     65  CD2        8.3860  -83.0070   20.0170 C.3   144  LEU144      0.0001
     66  N         16.2380  -78.4100   18.7620 N.3   147  HIS147     -0.1241
     67  CA        17.1130  -77.4470   18.1170 C.3   147  HIS147      0.1621
     68  C         16.6930  -76.0520   18.5130 C.2   147  HIS147      0.2264
     69  O         15.8050  -75.4420   17.8990 O.2   147  HIS147     -0.2867
     70  CB        17.0650  -77.6780   16.6050 C.3   147  HIS147      0.0745
     71  CG        17.4320  -79.0810   16.2340 C.ar  147  HIS147      0.0817
     72  ND1       16.6040  -79.9050   15.5010 N.ar  147  HIS147     -0.2268
     73  CD2       18.5200  -79.8270   16.5500 C.ar  147  HIS147      0.1154
     74  CE1       17.1760  -81.0890   15.3610 C.ar  147  HIS147      0.1986
     75  NE2       18.3400  -81.0680   15.9860 N.ar  147  HIS147     -0.2212
     76  N         21.8580  -92.1640   16.3110 N.3   172  LEU172     -0.1231
     77  CA        20.6730  -92.1860   15.4580 C.3   172  LEU172      0.1693
     78  C         20.2590  -90.8140   14.9550 C.2   172  LEU172      0.2592
     79  O         19.7400  -90.7050   13.8380 O.2   172  LEU172     -0.2718
     80  CB        19.4900  -92.8010   16.2030 C.3   172  LEU172      0.0284
     81  CG        19.5120  -94.3200   16.3400 C.3   172  LEU172      0.0019
     82  CD1       18.2690  -94.7820   17.0730 C.3   172  LEU172      0.0001
     83  CD2       19.6010  -94.9520   14.9610 C.3   172  LEU172      0.0001
     84  N         20.4550  -89.7670   15.7520 N.am  173  GLY173     -0.1957
     85  CA        19.8970  -88.4760   15.4060 C.3   173  GLY173      0.1869
     86  C         20.8570  -87.5020   14.7570 C.2   173  GLY173      0.2309
     87  O         20.4970  -86.8340   13.7870 O.2   173  GLY173     -0.2863
     88  N         21.2890  -86.9960   10.9260 N.3   176  PHE176     -0.1227
     89  CA        20.1760  -86.2460   10.3430 C.3   176  PHE176      0.1736
     90  C         20.2240  -84.7770   10.7450 C.2   176  PHE176      0.2595
     91  O         19.9950  -83.8920    9.9060 O.2   176  PHE176     -0.2718
     92  CB        18.8330  -86.8530   10.7630 C.3   176  PHE176      0.0547
     93  CG        18.5660  -88.2230   10.2050 C.ar  176  PHE176     -0.0202
     94  CD1       18.1040  -88.3800    8.9090 C.ar  176  PHE176     -0.0042
     95  CD2       18.7440  -89.3540   10.9880 C.ar  176  PHE176     -0.0042
     96  CE1       17.8440  -89.6420    8.3960 C.ar  176  PHE176     -0.0003
     97  CE2       18.4870  -90.6170   10.4770 C.ar  176  PHE176     -0.0003
     98  CZ        18.0400  -90.7610    9.1820 C.ar  176  PHE176     -0.0000
     99  N         20.5400  -84.4880   12.0120 N.am  177  ASN177     -0.1974
    100  CA        20.5220  -83.1150   12.5020 C.3   177  ASN177      0.1688
    101  C         21.5600  -82.2550   11.7950 C.2   177  ASN177      0.2292
    102  O         21.2810  -81.1060   11.4240 O.2   177  ASN177     -0.2864
    103  CB        20.7840  -83.0910   14.0110 C.3   177  ASN177      0.1181
    104  CG        19.8100  -83.9460   14.8110 C.2   177  ASN177      0.2629
    105  OD1       20.1870  -84.5090   15.8480 O.2   177  ASN177     -0.2716
    106  ND2       18.5640  -84.0440   14.3480 N.am  177  ASN177     -0.0877
@<TRIPOS>BOND
     1     1     2    1
     2     3     2    1
     3     3     4    2
     4     2     5    1
     5     5     6    1
     6    96    94   ar
     7    96    98   ar
     8    94    93   ar
     9    98    97   ar
    10     6     7    1
    11    91    90    2
    12    17    15    1
    13    93    92    1
    14    93    95   ar
    15    16    14    1
    16    89    90    1
    17    89    92    1
    18    89    88    1
    19     8     7   ar
    20    10    11    1
    21    97    95   ar
    22    15    14    1
    23     7     9   ar
    24    90    99   am
    25    14    11    1
    26   102   101    2
    27    11    12    1
    28   101   100    1
    29    99   100    1
    30    24    26   ar
    31    24    23   ar
    32   100   103    1
    33    18    12   am
    34    18    19    1
    35    26    27   ar
    36    12    13    2
    37    22    23    1
    38    22    19    1
    39    23    25   ar
    40    19    20    1
    41    49    48    2
    42    48    47    1
    43    87    86    2
    44    79    78    2
    45    27    25   ar
    46    27    29   ar
    47    50    47    1
    48    50    51    1
    49   103   104    1
    50    20    21    2
    51    25    28   ar
    52   106   104   am
    53    47    46    1
    54    86    85    1
    55   104   105    2
    56    29    31   ar
    57    51    53   ar
    58    51    52   ar
    59    78    77    1
    60    78    84   am
    61    83    81    1
    62    53    55   ar
    63    74    72   ar
    64    74    75   ar
    65    85    84    1
    66    77    80    1
    67    77    76    1
    68    72    71   ar
    69    52    54   ar
    70    28    30   ar
    71    75    73   ar
    72    55    56   ar
    73    31    30   ar
    74    80    81    1
    75    71    73   ar
    76    71    70    1
    77    81    82    1
    78    54    56   ar
    79    70    67    1
    80    56    57    1
    81    32    33    1
    82    69    68    2
    83    38    40   ar
    84    38    37   ar
    85    67    68    1
    86    67    66    1
    87    34    33    1
    88    34    35    2
    89    36    33    1
    90    36    37    1
    91    40    41   ar
    92    37    39   ar
    93    65    63    1
    94    41    39   ar
    95    41    43   ar
    96    39    42   ar
    97    43    45   ar
    98    63    64    1
    99    63    62    1
   100    42    44   ar
   101    61    60    2
   102    58    59    1
   103    45    44   ar
   104    62    59    1
   105    60    59    1
