@<TRIPOS>MOLECULE
tmp/6aumA00.pdb
 241 234 0 0 0
SMALL
GASTEIGER

@<TRIPOS>ATOM
      1  N        -20.4540  -15.7140   15.9360 N.3   266  PHE266     -0.1228
      2  CA       -21.4980  -14.7160   15.8430 C.3   266  PHE266      0.1721
      3  C        -21.6120  -14.2540   14.4060 C.2   266  PHE266      0.2437
      4  O        -20.5760  -14.0740   13.7560 O.2   266  PHE266     -0.2733
      5  CB       -21.1320  -13.5220   16.6880 C.3   266  PHE266      0.0547
      6  CG       -22.1170  -12.3950   16.6040 C.ar  266  PHE266     -0.0202
      7  CD1      -21.9980  -11.4200   15.6240 C.ar  266  PHE266     -0.0042
      8  CD2      -23.1440  -12.2870   17.5310 C.ar  266  PHE266     -0.0042
      9  CE1      -22.8900  -10.3710   15.5560 C.ar  266  PHE266     -0.0003
     10  CE2      -24.0370  -11.2400   17.4770 C.ar  266  PHE266     -0.0003
     11  CZ       -23.9140  -10.2840   16.4850 C.ar  266  PHE266     -0.0000
     12  N        -22.8240  -14.0850   13.8750 N.am  267  PRO267     -0.2729
     13  CA       -24.0880  -14.6060   14.3960 C.3   267  PRO267      0.1401
     14  C        -24.5490  -15.7930   13.5510 C.2   267  PRO267      0.2269
     15  O        -25.1250  -15.6070   12.4900 O.2   267  PRO267     -0.2865
     16  CB       -25.0290  -13.4320   14.2160 C.3   267  PRO267      0.0296
     17  CG       -24.4840  -12.6850   13.0400 C.3   267  PRO267      0.0237
     18  CD       -23.0480  -13.0690   12.8400 C.3   267  PRO267      0.0939
     19  N        -14.6240  -17.8710   15.5800 N.3   334  ASP334     -0.1225
     20  CA       -15.1250  -16.5610   16.0090 C.3   334  ASP334      0.1805
     21  C        -15.3270  -16.5280   17.5400 C.2   334  ASP334      0.2597
     22  O        -14.3420  -16.6860   18.2550 O.2   334  ASP334     -0.2718
     23  CB       -16.3560  -16.1690   15.1820 C.3   334  ASP334      0.1424
     24  CG       -16.8360  -14.7810   15.4850 C.2   334  ASP334      0.3668
     25  OD1      -17.8490  -14.6650   16.2240 O.co2 334  ASP334     -0.2456
     26  OD2      -16.1870  -13.8130   15.0270 O.co2 334  ASP334     -0.2456
     27  N        -16.5490  -16.3720   18.0580 N.am  335  TRP335     -0.1976
     28  CA       -16.7320  -16.3330   19.5210 C.3   335  TRP335      0.1640
     29  C        -16.5100  -17.7070   20.1230 C.2   335  TRP335      0.2290
     30  O        -15.9060  -17.8250   21.1810 O.2   335  TRP335     -0.2864
     31  CB       -18.0990  -15.7760   19.9380 C.3   335  TRP335      0.0576
     32  CG       -18.0570  -14.3210   20.2710 C.ar  335  TRP335      0.0006
     33  CD1      -18.5420  -13.3070   19.5190 C.ar  335  TRP335      0.0946
     34  CD2      -17.4880  -13.7160   21.4420 C.ar  335  TRP335      0.0152
     35  NE1      -18.3200  -12.1030   20.1430 N.ar  335  TRP335     -0.2442
     36  CE2      -17.6760  -12.3270   21.3270 C.ar  335  TRP335      0.0810
     37  CE3      -16.8450  -14.2110   22.5770 C.ar  335  TRP335      0.0012
     38  CZ2      -17.2380  -11.4230   22.3030 C.ar  335  TRP335      0.0191
     39  CZ3      -16.4180  -13.3130   23.5440 C.ar  335  TRP335      0.0001
     40  CH2      -16.6120  -11.9360   23.3980 C.ar  335  TRP335      0.0015
     41  N        -12.8540  -18.2210   20.9250 N.3   338  MET338     -0.1245
     42  CA       -12.4680  -17.6720   22.2240 C.3   338  MET338      0.1570
     43  C        -12.9170  -18.5500   23.3650 C.2   338  MET338      0.2261
     44  O        -12.1520  -18.8090   24.2780 O.2   338  MET338     -0.2867
     45  CB       -13.0850  -16.2890   22.4380 C.3   338  MET338      0.0387
     46  CG       -12.4570  -15.4730   23.5620 C.3   338  MET338      0.0595
     47  SD       -10.7680  -15.0240   23.0950 S.3   338  MET338     -0.1393
     48  CE       -10.6860  -13.3680   23.7710 C.3   338  MET338      0.0692
     49  N         -9.9630  -16.7980   15.5800 N.3   359  THR359     -0.1204
     50  CA        -9.8400  -16.2680   16.9450 C.3   359  THR359      0.1979
     51  C         -8.5600  -16.7110   17.6730 C.2   359  THR359      0.2459
     52  O         -8.3960  -17.9110   17.9430 O.2   359  THR359     -0.2732
     53  CB       -11.0330  -16.7210   17.8000 C.3   359  THR359      0.1783
     54  OG1      -12.2330  -16.5700   17.0470 O.3   359  THR359     -0.2211
     55  CG2      -11.1310  -15.9000   19.0730 C.3   359  THR359      0.0376
     56  N         -7.6600  -15.7470   18.0030 N.am  360  PRO360     -0.2728
     57  CA        -6.4570  -16.0710   18.7580 C.3   360  PRO360      0.1401
     58  C         -6.7270  -16.0900   20.2560 C.2   360  PRO360      0.2269
     59  O         -7.6660  -15.4230   20.7240 O.2   360  PRO360     -0.2865
     60  CB        -5.5130  -14.9200   18.4060 C.3   360  PRO360      0.0296
     61  CG        -6.4130  -13.7600   18.2210 C.3   360  PRO360      0.0237
     62  CD        -7.7310  -14.2980   17.7320 C.3   360  PRO360      0.0939
     63  N         -6.1830  -14.6150   23.4420 N.3   362  ILE362     -0.1245
     64  CA        -5.7170  -13.3430   23.9490 C.3   362  ILE362      0.1561
     65  C         -5.9150  -13.3290   25.4650 C.2   362  ILE362      0.2260
     66  O         -7.0500  -13.4750   25.9490 O.2   362  ILE362     -0.2867
     67  CB        -6.3930  -12.1660   23.2050 C.3   362  ILE362      0.0252
     68  CG1       -5.5390  -11.8300   21.9640 C.3   362  ILE362      0.0019
     69  CG2       -6.5700  -10.9380   24.1100 C.3   362  ILE362      0.0019
     70  CD1       -6.1570  -10.8560   20.9820 C.3   362  ILE362      0.0001
     71  N        -10.7730   -3.6600   29.5690 N.3   370  PRO370     -0.2116
     72  CA       -11.0610   -4.1600   28.2180 C.3   370  PRO370      0.1372
     73  C        -11.7170   -3.1080   27.3440 C.2   370  PRO370      0.2244
     74  O        -11.3240   -2.9460   26.1970 O.2   370  PRO370     -0.2868
     75  CB       -12.0230   -5.3280   28.4610 C.3   370  PRO370      0.0268
     76  CG       -11.9380   -5.5940   29.9150 C.3   370  PRO370      0.0207
     77  CD       -11.6590   -4.2810   30.5570 C.3   370  PRO370      0.0892
     78  N         -9.0000   -1.4050   25.8170 N.3   373  SER373     -0.1202
     79  CA        -8.3200   -2.3260   24.8840 C.3   373  SER373      0.2020
     80  C         -9.0790   -2.4930   23.5690 C.2   373  SER373      0.2618
     81  O         -8.4690   -2.5240   22.5040 O.2   373  SER373     -0.2717
     82  CB        -8.1150   -3.7010   25.5280 C.3   373  SER373      0.2103
     83  OG        -7.3240   -3.5900   26.6950 O.3   373  SER373     -0.2182
     84  N        -10.4040   -2.6000   23.6610 N.am  374  ILE374     -0.1979
     85  CA       -11.2890   -2.6560   22.4900 C.3   374  ILE374      0.1595
     86  C        -11.3070   -1.3140   21.7650 C.2   374  ILE374      0.2287
     87  O        -11.1870   -1.2720   20.5390 O.2   374  ILE374     -0.2864
     88  CB       -12.7360   -3.0330   22.8980 C.3   374  ILE374      0.0276
     89  CG1      -12.8080   -4.4890   23.4100 C.3   374  ILE374      0.0022
     90  CG2      -13.7230   -2.7780   21.7570 C.3   374  ILE374      0.0022
     91  CD1      -12.4660   -5.5560   22.3910 C.3   374  ILE374      0.0001
     92  N        -12.4550   -2.6150   15.7430 N.3   380  PHE380     -0.1241
     93  CA       -13.3950   -3.1090   16.7660 C.3   380  PHE380      0.1605
     94  C        -14.5080   -2.1080   17.1290 C.2   380  PHE380      0.2264
     95  O        -15.3560   -2.4320   17.9660 O.2   380  PHE380     -0.2867
     96  CB       -12.6670   -3.5290   18.0630 C.3   380  PHE380      0.0534
     97  CG       -11.8710   -4.8310   17.9840 C.ar  380  PHE380     -0.0203
     98  CD1      -12.0740   -5.7960   16.9880 C.ar  380  PHE380     -0.0042
     99  CD2      -10.9310   -5.1100   18.9810 C.ar  380  PHE380     -0.0042
    100  CE1      -11.3290   -6.9700   16.9760 C.ar  380  PHE380     -0.0003
    101  CE2      -10.1940   -6.2820   18.9680 C.ar  380  PHE380     -0.0003
    102  CZ       -10.3930   -7.2120   17.9650 C.ar  380  PHE380     -0.0000
    103  N        -17.2740   -1.4040   15.8150 N.3   382  TYR382     -0.1227
    104  CA       -18.5740   -2.0800   15.7320 C.3   382  TYR382      0.1736
    105  C        -19.0070   -2.7540   17.0560 C.2   382  TYR382      0.2595
    106  O        -20.2080   -2.9210   17.2820 O.2   382  TYR382     -0.2718
    107  CB       -18.5880   -3.1220   14.5920 C.3   382  TYR382      0.0548
    108  CG       -17.8720   -4.3800   14.9730 C.ar  382  TYR382     -0.0200
    109  CD1      -18.5480   -5.4080   15.6360 C.ar  382  TYR382     -0.0009
    110  CD2      -16.5110   -4.5220   14.7470 C.ar  382  TYR382     -0.0009
    111  CE1      -17.8880   -6.5540   16.0440 C.ar  382  TYR382      0.0417
    112  CE2      -15.8400   -5.6690   15.1410 C.ar  382  TYR382      0.0417
    113  CZ       -16.5360   -6.6820   15.7870 C.ar  382  TYR382      0.1957
    114  OH       -15.9000   -7.8160   16.1990 O.3   382  TYR382     -0.2866
    115  N        -18.0440   -3.1730   17.8910 N.am  383  GLN383     -0.1979
    116  CA       -18.3420   -3.8110   19.1800 C.3   383  GLN383      0.1601
    117  C        -18.9390   -2.8340   20.1780 C.2   383  GLN383      0.2287
    118  O        -19.7350   -3.2360   21.0170 O.2   383  GLN383     -0.2864
    119  CB       -17.1030   -4.4580   19.7950 C.3   383  GLN383      0.0394
    120  CG       -16.5160   -5.5960   18.9750 C.3   383  GLN383      0.0908
    121  CD       -15.2920   -6.2410   19.6070 C.2   383  GLN383      0.2608
    122  OE1      -14.3780   -6.6790   18.9040 O.2   383  GLN383     -0.2717
    123  NE2      -15.2590   -6.2960   20.9310 N.am  383  GLN383     -0.0878
    124  N        -22.5300   -2.3520   19.5110 N.3   386  PHE386     -0.1241
    125  CA       -23.2550   -3.4750   20.1270 C.3   386  PHE386      0.1605
    126  C        -23.5330   -3.3740   21.6380 C.2   386  PHE386      0.2264
    127  O        -24.3650   -4.1180   22.1440 O.2   386  PHE386     -0.2867
    128  CB       -22.5220   -4.8170   19.8850 C.3   386  PHE386      0.0534
    129  CG       -22.4900   -5.2870   18.4490 C.ar  386  PHE386     -0.0203
    130  CD1      -23.3470   -4.7900   17.4680 C.ar  386  PHE386     -0.0042
    131  CD2      -21.6030   -6.2950   18.0890 C.ar  386  PHE386     -0.0042
    132  CE1      -23.2850   -5.2660   16.1590 C.ar  386  PHE386     -0.0003
    133  CE2      -21.5490   -6.7830   16.7850 C.ar  386  PHE386     -0.0003
    134  CZ       -22.3880   -6.2680   15.8180 C.ar  386  PHE386     -0.0000
    135  N        -30.3870   -5.3920   13.1160 N.3   396  LEU396     -0.1245
    136  CA       -30.1610   -6.7650   12.6670 C.3   396  LEU396      0.1561
    137  C        -31.4740   -7.5400   12.4430 C.2   396  LEU396      0.2260
    138  O        -31.5850   -8.3130   11.4870 O.2   396  LEU396     -0.2867
    139  CB       -29.2510   -7.5010   13.6520 C.3   396  LEU396      0.0270
    140  CG       -27.8230   -6.9340   13.7540 C.3   396  LEU396      0.0019
    141  CD1      -27.1440   -7.2610   15.0790 C.3   396  LEU396      0.0001
    142  CD2      -26.9570   -7.4280   12.6070 C.3   396  LEU396      0.0001
    143  N        -23.7540   -9.9040    5.6480 N.3   407  LEU407     -0.1245
    144  CA       -22.6880  -10.4050    6.5280 C.3   407  LEU407      0.1561
    145  C        -21.8490  -11.4790    5.8440 C.2   407  LEU407      0.2260
    146  O        -20.6120  -11.3910    5.8110 O.2   407  LEU407     -0.2867
    147  CB       -23.2690  -11.0030    7.8080 C.3   407  LEU407      0.0270
    148  CG       -23.8110  -10.0530    8.8790 C.3   407  LEU407      0.0019
    149  CD1      -24.5210  -10.8510    9.9620 C.3   407  LEU407      0.0001
    150  CD2      -22.7160   -9.1860    9.4730 C.3   407  LEU407      0.0001
    151  N        -19.4030   -4.1440    3.8310 N.3   416  LEU416     -0.1245
    152  CA       -19.4910   -3.6780    5.2460 C.3   416  LEU416      0.1561
    153  C        -18.1950   -3.1650    5.8880 C.2   416  LEU416      0.2260
    154  O        -17.2760   -3.9450    6.1300 O.2   416  LEU416     -0.2867
    155  CB       -20.0120   -4.8110    6.1450 C.3   416  LEU416      0.0270
    156  CG       -21.5050   -5.1150    6.1400 C.3   416  LEU416      0.0019
    157  CD1      -21.8120   -6.1700    7.1920 C.3   416  LEU416      0.0001
    158  CD2      -22.3230   -3.8600    6.3930 C.3   416  LEU416      0.0001
    159  N        -16.3100   -1.7730    9.3160 N.3   418  MET418     -0.1245
    160  CA       -16.3490   -2.0230   10.7660 C.3   418  MET418      0.1570
    161  C        -15.8680   -0.8220   11.5850 C.2   418  MET418      0.2261
    162  O        -16.3000   -0.6320   12.7220 O.2   418  MET418     -0.2867
    163  CB       -15.4870   -3.2430   11.1040 C.3   418  MET418      0.0387
    164  CG       -15.9490   -4.5360   10.4620 C.3   418  MET418      0.0595
    165  SD       -17.6560   -4.9410   10.8840 S.3   418  MET418     -0.1393
    166  CE       -17.8670   -6.4170    9.8890 C.3   418  MET418      0.0692
    167  N        -24.7010   -0.6320   11.3420 N.3   427  LEU427     -0.1245
    168  CA       -23.9710   -1.5560   10.4680 C.3   427  LEU427      0.1561
    169  C        -24.2250   -1.3860    8.9770 C.2   427  LEU427      0.2260
    170  O        -23.2730   -1.3570    8.1970 O.2   427  LEU427     -0.2867
    171  CB       -24.2920   -3.0060   10.8320 C.3   427  LEU427      0.0270
    172  CG       -23.4240   -3.6220   11.9260 C.3   427  LEU427      0.0019
    173  CD1      -24.0540   -4.9300   12.3860 C.3   427  LEU427      0.0001
    174  CD2      -21.9910   -3.8390   11.4430 C.3   427  LEU427      0.0001
    175  N        -21.0680  -10.1740   23.4050 N.3   465  TYR465     -0.1241
    176  CA       -20.2060   -8.9800   23.3880 C.3   465  TYR465      0.1605
    177  C        -20.3540   -8.0670   24.6180 C.2   465  TYR465      0.2264
    178  O        -19.6400   -7.0620   24.7220 O.2   465  TYR465     -0.2867
    179  CB       -20.5190   -8.1130   22.1600 C.3   465  TYR465      0.0534
    180  CG       -20.1350   -8.6500   20.7950 C.ar  465  TYR465     -0.0201
    181  CD1      -18.8900   -8.3610   20.2390 C.ar  465  TYR465     -0.0009
    182  CD2      -21.0480   -9.3790   20.0200 C.ar  465  TYR465     -0.0009
    183  CE1      -18.5510   -8.8110   18.9630 C.ar  465  TYR465      0.0417
    184  CE2      -20.7190   -9.8390   18.7460 C.ar  465  TYR465      0.0417
    185  CZ       -19.4730   -9.5520   18.2140 C.ar  465  TYR465      0.1957
    186  OH       -19.1260  -10.0020   16.9600 O.3   465  TYR465     -0.2866
    187  N        -17.6660   -7.7310   28.6980 N.3   468  MET468     -0.1245
    188  CA       -16.2340   -7.5400   28.4320 C.3   468  MET468      0.1570
    189  C        -15.4690   -7.3880   29.7520 C.2   468  MET468      0.2261
    190  O        -14.4370   -8.0420   29.9350 O.2   468  MET468     -0.2867
    191  CB       -15.9680   -6.3910   27.4300 C.3   468  MET468      0.0387
    192  CG       -16.4490   -6.6500   25.9720 C.3   468  MET468      0.0595
    193  SD       -15.9090   -8.1030   24.9500 S.3   468  MET468     -0.1393
    194  CE       -16.6210   -7.6750   23.3710 C.3   468  MET468      0.0692
    195  N        -10.7900   -8.5040   10.5350 N.3   497  VAL497     -0.1231
    196  CA       -11.0820   -8.2200   11.9530 C.3   497  VAL497      0.1692
    197  C        -10.2080   -9.0870   12.8740 C.2   497  VAL497      0.2591
    198  O         -9.4460   -8.5690   13.6830 O.2   497  VAL497     -0.2718
    199  CB       -12.5910   -8.4070   12.2480 C.3   497  VAL497      0.0266
    200  CG1      -12.9010   -8.3160   13.7350 C.3   497  VAL497      0.0020
    201  CG2      -13.3830   -7.3610   11.4890 C.3   497  VAL497      0.0020
    202  N        -10.3480  -10.4010   12.7620 N.am  498  LEU498     -0.1980
    203  CA        -9.4310  -11.3270   13.4020 C.3   498  LEU498      0.1596
    204  C         -8.2620  -11.5730   12.4500 C.2   498  LEU498      0.2287
    205  O         -8.2100  -12.5730   11.7170 O.2   498  LEU498     -0.2864
    206  CB       -10.1400  -12.6180   13.7860 C.3   498  LEU498      0.0297
    207  CG       -11.2650  -12.4280   14.8050 C.3   498  LEU498      0.0022
    208  CD1      -12.1520  -13.6700   14.8830 C.3   498  LEU498      0.0001
    209  CD2      -10.7040  -12.0650   16.1770 C.3   498  LEU498      0.0001
    210  N         -2.7490  -10.7420   15.1540 N.3   502  MET502     -0.1245
    211  CA        -3.2280  -10.9340   16.5420 C.3   502  MET502      0.1570
    212  C         -2.7760  -12.2550   17.1960 C.2   502  MET502      0.2261
    213  O         -2.6980  -12.3260   18.4230 O.2   502  MET502     -0.2867
    214  CB        -4.7590  -10.8950   16.6260 C.3   502  MET502      0.0387
    215  CG        -5.4370   -9.5680   16.3270 C.3   502  MET502      0.0595
    216  SD        -7.2480   -9.6800   16.4570 S.3   502  MET502     -0.1393
    217  CE        -7.5420   -9.9760   18.1940 C.3   502  MET502      0.0692
    218  N        -13.6640  -13.9820    6.9310 N.3   523  HIS523     -0.1226
    219  CA       -14.0360  -14.3010    8.2970 C.3   523  HIS523      0.1752
    220  C        -14.7840  -15.6250    8.3880 C.2   523  HIS523      0.2596
    221  O        -14.6270  -16.3590    9.3550 O.2   523  HIS523     -0.2718
    222  CB       -14.8750  -13.1710    8.8900 C.3   523  HIS523      0.0759
    223  CG       -15.3930  -13.4620   10.2650 C.ar  523  HIS523      0.0818
    224  ND1      -16.7130  -13.7870   10.5050 N.ar  523  HIS523     -0.2268
    225  CD2      -14.7730  -13.4900   11.4660 C.ar  523  HIS523      0.1154
    226  CE1      -16.8870  -13.9900   11.7970 C.ar  523  HIS523      0.1986
    227  NE2      -15.7260  -13.8090   12.4020 N.ar  523  HIS523     -0.2212
    228  N        -15.5520  -15.9500    7.3590 N.am  524  TRP524     -0.1976
    229  CA       -16.4890  -17.0720    7.4020 C.3   524  TRP524      0.1640
    230  C        -15.7820  -18.2960    6.8470 C.2   524  TRP524      0.2290
    231  O        -16.1700  -18.8540    5.8260 O.2   524  TRP524     -0.2864
    232  CB       -17.7650  -16.7140    6.6210 C.3   524  TRP524      0.0576
    233  CG       -18.2370  -15.3430    6.9710 C.ar  524  TRP524      0.0006
    234  CD1      -18.0100  -14.2090    6.2730 C.ar  524  TRP524      0.0946
    235  CD2      -18.9530  -14.9570    8.1470 C.ar  524  TRP524      0.0152
    236  NE1      -18.5630  -13.1360    6.9160 N.ar  524  TRP524     -0.2442
    237  CE2      -19.1530  -13.5690    8.0710 C.ar  524  TRP524      0.0810
    238  CE3      -19.4750  -15.6570    9.2500 C.ar  524  TRP524      0.0012
    239  CZ2      -19.8440  -12.8560    9.0550 C.ar  524  TRP524      0.0191
    240  CZ3      -20.1640  -14.9420   10.2300 C.ar  524  TRP524      0.0001
    241  CH2      -20.3390  -13.5570   10.1220 C.ar  524  TRP524      0.0015
@<TRIPOS>BOND
     1   151   152    1
     2   152   153    1
     3   152   155    1
     4   143   144    1
     5   146   145    2
     6   231   230    2
     7   145   144    1
     8   153   154    2
     9   156   155    1
    10   156   158    1
    11   156   157    1
    12   234   236   ar
    13   234   233   ar
    14   144   147    1
    15   232   233    1
    16   232   229    1
    17   230   229    1
    18   236   237   ar
    19   218   219    1
    20   233   235   ar
    21   228   229    1
    22   228   220   am
    23   147   148    1
    24   237   235   ar
    25   237   239   ar
    26   235   238   ar
    27   170   169    2
    28   219   220    1
    29   219   222    1
    30   220   221    2
    31   148   150    1
    32   148   149    1
    33   222   223    1
    34   169   168    1
    35   239   241   ar
    36   238   240   ar
    37   159   160    1
    38   166   165    1
    39   241   240   ar
    40   223   224   ar
    41   223   225   ar
    42   164   165    1
    43   164   163    1
    44   168   171    1
    45   168   167    1
    46   224   226   ar
    47   195   196    1
    48   160   163    1
    49   160   161    1
    50   171   172    1
    51   174   172    1
    52   225   227   ar
    53   138   137    2
    54   201   199    1
    55   161   162    2
    56   205   204    2
    57   226   227   ar
    58   172   173    1
    59   196   199    1
    60   196   197    1
    61   199   200    1
    62   137   136    1
    63   204   203    1
    64    15    14    2
    65   142   140    1
    66   136   135    1
    67   136   139    1
    68   202   197   am
    69   202   203    1
    70    18    17    1
    71    18    12    1
    72   197   198    2
    73    17    16    1
    74   203   206    1
    75    14    13    1
    76   139   140    1
    77   140   141    1
    78     4     3    2
    79   206   207    1
    80    12    13    1
    81    12     3   am
    82    16    13    1
    83     3     2    1
    84   107   108    1
    85   107   104    1
    86   110   108   ar
    87   110   112   ar
    88   207   208    1
    89   207   209    1
    90   108   109   ar
    91    26    24   ar
    92   112   113   ar
    93   210   211    1
    94    23    24    1
    95    23    20    1
    96    24    25   ar
    97     9     7   ar
    98     9    11   ar
    99    49    50    1
   100    19    20    1
   101     7     6   ar
   102   109   111   ar
   103   104   103    1
   104   104   105    1
   105    92    93    1
   106   113   111   ar
   107   113   114    1
   108   134   132   ar
   109   134   133   ar
   110     2     1    1
   111     2     5    1
   112    20    21    1
   113   132   130   ar
   114   215   216    1
   115   215   214    1
   116   216   217    1
   117    11    10   ar
   118   211   214    1
   119   211   212    1
   120     6     5    1
   121     6     8   ar
   122    93    94    1
   123    93    96    1
   124   133   131   ar
   125    50    51    1
   126    50    53    1
   127   186   185    1
   128   100    98   ar
   129   100   102   ar
   130    98    97   ar
   131    54    53    1
   132   105   106    2
   133   105   115   am
   134    94    95    2
   135   212   213    2
   136   130   129   ar
   137    10     8   ar
   138    21    27   am
   139    21    22    2
   140    51    52    2
   141    51    56   am
   142    62    56    1
   143    62    61    1
   144    53    55    1
   145   115   116    1
   146   102   101   ar
   147    97    96    1
   148    97    99   ar
   149    56    57    1
   150    27    28    1
   151   131   129   ar
   152   185   184   ar
   153   185   183   ar
   154    61    60    1
   155    60    57    1
   156   129   128    1
   157   184   182   ar
   158    57    58    1
   159   122   121    2
   160   183   181   ar
   161   101    99   ar
   162   120   121    1
   163   120   119    1
   164   116   119    1
   165   116   117    1
   166   124   125    1
   167    33    35   ar
   168    33    32   ar
   169    28    31    1
   170    28    29    1
   171   121   123   am
   172   128   125    1
   173    31    32    1
   174   182   180   ar
   175    29    30    2
   176   125   126    1
   177    35    36   ar
   178   117   118    2
   179   181   180   ar
   180    58    59    2
   181    32    34   ar
   182    87    86    2
   183   180   179    1
   184    41    42    1
   185    70    68    1
   186    36    34   ar
   187    36    38   ar
   188    34    37   ar
   189   126   127    2
   190    90    88    1
   191    86    85    1
   192    68    67    1
   193   179   176    1
   194    42    45    1
   195    42    43    1
   196    38    40   ar
   197    91    89    1
   198    45    46    1
   199    85    88    1
   200    85    84    1
   201    81    80    2
   202    37    39   ar
   203    88    89    1
   204    47    46    1
   205    47    48    1
   206    67    64    1
   207    67    69    1
   208    43    44    2
   209   194   193    1
   210   176   175    1
   211   176   177    1
   212    40    39   ar
   213    63    64    1
   214    80    84   am
   215    80    79    1
   216    64    65    1
   217   177   178    2
   218    79    82    1
   219    79    78    1
   220   193   192    1
   221    65    66    2
   222    82    83    1
   223   192   191    1
   224    74    73    2
   225    73    72    1
   226   191   188    1
   227    72    75    1
   228    72    71    1
   229   188   187    1
   230   188   189    1
   231    75    76    1
   232    71    77    1
   233   189   190    2
   234    76    77    1
