@<TRIPOS>MOLECULE
tmp/6auwB03.pdb
 195 190 0 0 0
SMALL
GASTEIGER

@<TRIPOS>ATOM
      1  N         22.2080    6.0030   64.2230 N.3   170  SER170     -0.1202
      2  CA        21.2300    6.1290   63.1450 C.3   170  SER170      0.2020
      3  C         20.0560    5.1620   63.3580 C.2   170  SER170      0.2618
      4  O         18.9130    5.4830   63.0410 O.2   170  SER170     -0.2717
      5  CB        21.9040    5.8800   61.7860 C.3   170  SER170      0.2103
      6  OG        22.6020    4.6440   61.7850 O.3   170  SER170     -0.2182
      7  N         20.3540    3.9770   63.8920 N.am  171  GLN171     -0.1979
      8  CA        19.3480    2.9980   64.3110 C.3   171  GLN171      0.1601
      9  C         19.7360    2.4550   65.6870 C.2   171  GLN171      0.2287
     10  O         20.9260    2.3510   65.9860 O.2   171  GLN171     -0.2864
     11  CB        19.2320    1.8160   63.3300 C.3   171  GLN171      0.0394
     12  CG        18.8710    2.1130   61.8790 C.3   171  GLN171      0.0908
     13  CD        18.8410    0.8220   61.0360 C.2   171  GLN171      0.2608
     14  OE1       18.6480   -0.2800   61.5710 O.2   171  GLN171     -0.2717
     15  NE2       19.0460    0.9530   59.7290 N.am  171  GLN171     -0.0878
     16  N         22.4590   -1.9140   65.3600 N.3   174  ARG174     -0.1245
     17  CA        23.2630   -1.9120   64.1390 C.3   174  ARG174      0.1563
     18  C         24.6100   -2.5580   64.3960 C.2   174  ARG174      0.2260
     19  O         25.1040   -2.5230   65.5280 O.2   174  ARG174     -0.2867
     20  CB        23.4750   -0.4910   63.6190 C.3   174  ARG174      0.0307
     21  CG        22.3280    0.0270   62.7790 C.3   174  ARG174      0.0489
     22  CD        22.8040    0.9920   61.7410 C.3   174  ARG174      0.2205
     23  NE        22.7250    0.4070   60.4090 N.pl3 174  ARG174     -0.0865
     24  CZ        22.8270    1.1120   59.2920 C.cat 174  ARG174      0.5346
     25  NH1       23.0070    2.4220   59.3560 N.pl3 174  ARG174      0.1354
     26  NH2       22.7430    0.5090   58.1150 N.pl3 174  ARG174      0.1354
     27  N         28.8050    0.4690   56.2660 N.3   190  ALA190     -0.1245
     28  CA        27.9790    1.6560   56.4490 C.3   190  ALA190      0.1562
     29  C         28.2410    2.3540   57.7790 C.2   190  ALA190      0.2260
     30  O         28.0000    3.5510   57.9060 O.2   190  ALA190     -0.2867
     31  CB        26.5040    1.2920   56.3490 C.3   190  ALA190      0.0290
     32  N         14.1100   -3.4080   63.4280 N.3   258  PRO258     -0.2116
     33  CA        14.4900   -2.1870   62.7140 C.3   258  PRO258      0.1372
     34  C         13.9710   -0.9630   63.4550 C.2   258  PRO258      0.2244
     35  O         12.7550   -0.8130   63.6010 O.2   258  PRO258     -0.2868
     36  CB        13.7990   -2.3450   61.3550 C.3   258  PRO258      0.0268
     37  CG        12.5430   -3.1190   61.6840 C.3   258  PRO258      0.0207
     38  CD        12.9170   -4.0450   62.8360 C.3   258  PRO258      0.0892
     39  N         14.5470    3.1470   63.7360 N.3   260  VAL260     -0.1245
     40  CA        15.1890    4.3650   63.2540 C.3   260  VAL260      0.1561
     41  C         15.2970    5.3890   64.3720 C.2   260  VAL260      0.2260
     42  O         14.3040    5.7120   65.0030 O.2   260  VAL260     -0.2867
     43  CB        14.4110    4.9770   62.1000 C.3   260  VAL260      0.0252
     44  CG1       14.9120    6.3940   61.8040 C.3   260  VAL260      0.0019
     45  CG2       14.5230    4.0730   60.8610 C.3   260  VAL260      0.0019
     46  N         17.5060    8.4510   64.1560 N.3   262  ASN262     -0.1225
     47  CA        18.1420    9.7290   63.8440 C.3   262  ASN262      0.1785
     48  C         17.2260   10.7960   63.2390 C.2   262  ASN262      0.2597
     49  O         17.6950   11.8620   62.8540 O.2   262  ASN262     -0.2718
     50  CB        19.3460    9.5130   62.9190 C.3   262  ASN262      0.1169
     51  CG        18.9800    8.8260   61.6240 C.2   262  ASN262      0.2627
     52  OD1       17.8210    8.5110   61.3720 O.2   262  ASN262     -0.2716
     53  ND2       19.9770    8.5940   60.7890 N.am  262  ASN262     -0.0877
     54  N         15.9250   10.5520   63.1950 N.am  263  MET263     -0.1979
     55  CA        15.0440   11.5270   62.5660 C.3   263  MET263      0.1605
     56  C         14.3880   12.4750   63.5530 C.2   263  MET263      0.2287
     57  O         14.4200   12.2380   64.7510 O.2   263  MET263     -0.2864
     58  CB        13.9880   10.8070   61.7330 C.3   263  MET263      0.0413
     59  CG        14.6270   10.0850   60.5480 C.3   263  MET263      0.0598
     60  SD        13.4080    9.4500   59.3940 S.3   263  MET263     -0.1393
     61  CE        12.9640   10.9520   58.5000 C.3   263  MET263      0.0692
     62  N         11.8840    5.0930   66.6390 N.3   277  PHE277     -0.1227
     63  CA        10.6680    4.3660   66.3370 C.3   277  PHE277      0.1736
     64  C         11.0390    3.0530   65.6400 C.2   277  PHE277      0.2596
     65  O         12.1140    2.9320   65.0750 O.2   277  PHE277     -0.2718
     66  CB         9.7030    5.2070   65.4820 C.3   277  PHE277      0.0547
     67  CG        10.3020    5.7430   64.1810 C.ar  277  PHE277     -0.0202
     68  CD1       10.3900    4.9420   63.0460 C.ar  277  PHE277     -0.0042
     69  CD2       10.7290    7.0630   64.0980 C.ar  277  PHE277     -0.0042
     70  CE1       10.9040    5.4520   61.8440 C.ar  277  PHE277     -0.0003
     71  CE2       11.2580    7.5800   62.9040 C.ar  277  PHE277     -0.0003
     72  CZ        11.3450    6.7590   61.7760 C.ar  277  PHE277     -0.0000
     73  N         10.1680    2.0630   65.7260 N.am  278  SER278     -0.1938
     74  CA        10.5160    0.7330   65.2380 C.3   278  SER278      0.2055
     75  C          9.2770    0.0410   64.7160 C.2   278  SER278      0.2644
     76  O          8.1780    0.3250   65.1660 O.2   278  SER278     -0.2714
     77  CB        11.1890   -0.1180   66.3420 C.3   278  SER278      0.2130
     78  OG        10.3490   -0.2770   67.4840 O.3   278  SER278     -0.2179
     79  N          9.4590   -0.8450   63.7390 N.am  279  GLY279     -0.1939
     80  CA         8.3740   -1.6800   63.2590 C.3   279  GLY279      0.2014
     81  C          8.8660   -3.1130   63.1690 C.2   279  GLY279      0.2639
     82  O          9.3790   -3.6760   64.1480 O.2   279  GLY279     -0.2714
     83  N          8.7050   -3.7090   61.9920 N.am  280  TRP280     -0.1959
     84  CA         9.3400   -4.9760   61.6820 C.3   280  TRP280      0.1771
     85  C          9.8920   -4.8880   60.2500 C.2   280  TRP280      0.2620
     86  O          9.4990   -4.0140   59.4800 O.2   280  TRP280     -0.2715
     87  CB         8.3750   -6.1470   61.8080 C.3   280  TRP280      0.0590
     88  CG         7.0500   -5.9710   61.1440 C.ar  280  TRP280      0.0006
     89  CD1        6.7510   -6.1990   59.8230 C.ar  280  TRP280      0.0946
     90  CD2        5.8300   -5.5670   61.7670 C.ar  280  TRP280      0.0152
     91  NE1        5.4180   -5.9410   59.5920 N.ar  280  TRP280     -0.2442
     92  CE2        4.8310   -5.5580   60.7720 C.ar  280  TRP280      0.0810
     93  CE3        5.4800   -5.2110   63.0770 C.ar  280  TRP280      0.0012
     94  CZ2        3.5120   -5.2000   61.0450 C.ar  280  TRP280      0.0191
     95  CZ3        4.1770   -4.8580   63.3430 C.ar  280  TRP280      0.0001
     96  CH2        3.2060   -4.8590   62.3380 C.ar  280  TRP280      0.0015
     97  N         10.7980   -5.7890   59.9100 N.am  281  TYR281     -0.1960
     98  CA        11.4630   -5.7360   58.6050 C.3   281  TYR281      0.1771
     99  C         10.6090   -6.2320   57.4510 C.2   281  TYR281      0.2619
    100  O          9.8220   -7.1650   57.6040 O.2   281  TYR281     -0.2715
    101  CB        12.7320   -6.5680   58.6330 C.3   281  TYR281      0.0574
    102  CG        13.9900   -5.8140   58.9750 C.ar  281  TYR281     -0.0198
    103  CD1       14.6860   -6.0830   60.1550 C.ar  281  TYR281     -0.0009
    104  CD2       14.5030   -4.8560   58.1060 C.ar  281  TYR281     -0.0009
    105  CE1       15.8550   -5.4090   60.4580 C.ar  281  TYR281      0.0417
    106  CE2       15.6650   -4.1800   58.3960 C.ar  281  TYR281      0.0417
    107  CZ        16.3420   -4.4630   59.5760 C.ar  281  TYR281      0.1957
    108  OH        17.5060   -3.7940   59.8600 O.3   281  TYR281     -0.2866
    109  N         10.7740   -5.5890   56.2970 N.am  282  MET282     -0.1977
    110  CA        10.4440   -6.2020   55.0120 C.3   282  MET282      0.1605
    111  C         11.7090   -6.9130   54.5660 C.2   282  MET282      0.2287
    112  O         12.8030   -6.3530   54.6930 O.2   282  MET282     -0.2864
    113  CB         9.9930   -5.1640   53.9740 C.3   282  MET282      0.0413
    114  CG         9.6560   -5.7440   52.5710 C.3   282  MET282      0.0598
    115  SD         8.8280   -4.5000   51.5320 S.3   282  MET282     -0.1393
    116  CE        10.2380   -3.5160   51.0160 C.3   282  MET282      0.0692
    117  N         14.9390   -5.3880   52.8060 N.3   285  GLU285     -0.1245
    118  CA        15.8310   -4.4540   53.4730 C.3   285  GLU285      0.1567
    119  C         17.1280   -5.1680   53.8470 C.2   285  GLU285      0.2260
    120  O         18.2240   -4.6590   53.6030 O.2   285  GLU285     -0.2867
    121  CB        15.1710   -3.8380   54.7100 C.3   285  GLU285      0.0388
    122  CG        13.9000   -3.0790   54.3750 C.3   285  GLU285      0.1160
    123  CD        13.2850   -2.4430   55.6010 C.2   285  GLU285      0.3649
    124  OE1       13.8870   -1.4670   56.0810 O.co2 285  GLU285     -0.2457
    125  OE2       12.2250   -2.9160   56.0780 O.co2 285  GLU285     -0.2457
    126  N         19.3940   -4.9540   50.3100 N.3   289  ARG289     -0.1231
    127  CA        20.2280   -3.7950   50.6340 C.3   289  ARG289      0.1694
    128  C         21.3710   -4.1400   51.6090 C.2   289  ARG289      0.2592
    129  O         22.5450   -3.9760   51.2710 O.2   289  ARG289     -0.2718
    130  CB        19.3590   -2.6590   51.1980 C.3   289  ARG289      0.0321
    131  CG        18.1140   -2.3370   50.3430 C.3   289  ARG289      0.0489
    132  CD        18.4670   -1.9440   48.8800 C.3   289  ARG289      0.2205
    133  NE        19.5400   -0.9540   48.8270 N.pl3 289  ARG289     -0.0865
    134  CZ        19.3970    0.3220   49.1790 C.cat 289  ARG289      0.5346
    135  NH1       18.2160    0.7740   49.5910 N.pl3 289  ARG289      0.1354
    136  NH2       20.4340    1.1460   49.1160 N.pl3 289  ARG289      0.1354
    137  N         21.0350   -4.6270   52.8030 N.am  290  ASP290     -0.1974
    138  CA        22.0510   -4.9050   53.8290 C.3   290  ASP290      0.1709
    139  C         23.1130   -5.9230   53.3900 C.2   290  ASP290      0.2293
    140  O         24.3040   -5.7320   53.6380 O.2   290  ASP290     -0.2864
    141  CB        21.3820   -5.3820   55.1270 C.3   290  ASP290      0.1436
    142  CG        20.5230   -4.3040   55.7610 C.2   290  ASP290      0.3671
    143  OD1       20.8500   -3.1110   55.5840 O.co2 290  ASP290     -0.2456
    144  OD2       19.5150   -4.6400   56.4220 O.co2 290  ASP290     -0.2456
    145  N         24.0580   -4.8060   48.7130 N.3   293  ASP293     -0.1239
    146  CA        24.6480   -3.5410   48.2730 C.3   293  ASP293      0.1674
    147  C         26.1590   -3.7130   48.2170 C.2   293  ASP293      0.2266
    148  O         26.7470   -4.3810   49.0740 O.2   293  ASP293     -0.2867
    149  CB        24.3000   -2.3810   49.2050 C.3   293  ASP293      0.1410
    150  CG        22.9740   -1.7270   48.8790 C.2   293  ASP293      0.3668
    151  OD1       22.6930   -0.6520   49.4580 O.co2 293  ASP293     -0.2456
    152  OD2       22.2130   -2.2710   48.0550 O.co2 293  ASP293     -0.2456
    153  N         28.2030   -1.4590   48.8240 N.3   295  SER295     -0.1202
    154  CA        28.7560   -0.6480   49.9050 C.3   295  SER295      0.2020
    155  C         28.3830   -1.1910   51.2830 C.2   295  SER295      0.2618
    156  O         28.5910   -0.5220   52.3000 O.2   295  SER295     -0.2717
    157  CB        28.2910    0.8040   49.7740 C.3   295  SER295      0.2103
    158  OG        28.7580    1.3790   48.5660 O.3   295  SER295     -0.2182
    159  N         27.8330   -2.4020   51.3160 N.am  296  ARG296     -0.1979
    160  CA        27.4830   -3.0390   52.5940 C.3   296  ARG296      0.1597
    161  C         28.2110   -4.3790   52.7290 C.2   296  ARG296      0.2287
    162  O         29.4000   -4.4640   52.4430 O.2   296  ARG296     -0.2864
    163  CB        25.9710   -3.2320   52.7150 C.3   296  ARG296      0.0334
    164  CG        25.1400   -1.9630   52.5310 C.3   296  ARG296      0.0492
    165  CD        25.3300   -0.9400   53.6410 C.3   296  ARG296      0.2205
    166  NE        24.9900   -1.4670   54.9640 N.pl3 296  ARG296     -0.0865
    167  CZ        23.7500   -1.6230   55.4260 C.cat 296  ARG296      0.5346
    168  NH1       22.7060   -1.3120   54.6670 N.pl3 296  ARG296      0.1354
    169  NH2       23.5520   -2.0950   56.6610 N.pl3 296  ARG296      0.1354
    170  N         10.8960    5.3400   46.6870 N.3   371  TRP371     -0.1241
    171  CA        11.1760    4.5710   47.8930 C.3   371  TRP371      0.1605
    172  C         10.2200    3.3990   48.1150 C.2   371  TRP371      0.2264
    173  O         10.5990    2.3630   48.6880 O.2   371  TRP371     -0.2867
    174  CB        11.1470    5.5110   49.1090 C.3   371  TRP371      0.0550
    175  CG        12.4660    6.2130   49.3540 C.ar  371  TRP371      0.0003
    176  CD1       13.0870    7.1120   48.5320 C.ar  371  TRP371      0.0946
    177  CD2       13.3200    6.0720   50.5080 C.ar  371  TRP371      0.0152
    178  NE1       14.2680    7.5320   49.0950 N.ar  371  TRP371     -0.2442
    179  CE2       14.4340    6.9120   50.3050 C.ar  371  TRP371      0.0810
    180  CE3       13.2440    5.3240   51.6880 C.ar  371  TRP371      0.0012
    181  CZ2       15.4680    7.0210   51.2420 C.ar  371  TRP371      0.0191
    182  CZ3       14.2770    5.4350   52.6200 C.ar  371  TRP371      0.0001
    183  CH2       15.3690    6.2750   52.3890 C.ar  371  TRP371      0.0015
    184  N         14.4750   14.6710   58.2320 N.3   399  TYR399     -0.1241
    185  CA        15.8920   14.4450   58.4430 C.3   399  TYR399      0.1605
    186  C         16.4570   15.5940   59.2410 C.2   399  TYR399      0.2264
    187  O         15.8920   16.6890   59.2590 O.2   399  TYR399     -0.2867
    188  CB        16.6390   14.3090   57.1200 C.3   399  TYR399      0.0534
    189  CG        16.2000   13.1160   56.3210 C.ar  399  TYR399     -0.0201
    190  CD1       15.5850   13.2790   55.0900 C.ar  399  TYR399     -0.0009
    191  CD2       16.3820   11.8220   56.8020 C.ar  399  TYR399     -0.0009
    192  CE1       15.1790   12.1950   54.3500 C.ar  399  TYR399      0.0417
    193  CE2       15.9750   10.7260   56.0680 C.ar  399  TYR399      0.0417
    194  CZ        15.3760   10.9240   54.8390 C.ar  399  TYR399      0.1957
    195  OH        14.9640    9.8560   54.0840 O.3   399  TYR399     -0.2866
@<TRIPOS>BOND
     1   170   171    1
     2   171   172    1
     3   171   174    1
     4   152   150   ar
     5   172   173    2
     6   147   146    1
     7   147   148    2
     8   146   145    1
     9   146   149    1
    10   176   178   ar
    11   176   175   ar
    12   158   157    1
    13   153   154    1
    14   133   132    1
    15   133   134    2
    16   150   149    1
    17   150   151   ar
    18   132   131    1
    19   178   179   ar
    20   174   175    1
    21   136   134    1
    22   134   135    1
    23   175   177   ar
    24   157   154    1
    25   154   155    1
    26   179   177   ar
    27   179   181   ar
    28   126   127    1
    29   131   130    1
    30   177   180   ar
    31   127   130    1
    32   127   128    1
    33   116   115    1
    34   181   183   ar
    35   129   128    2
    36   155   159   am
    37   155   156    2
    38   159   160    1
    39   115   114    1
    40   128   137   am
    41   180   182   ar
    42   183   182   ar
    43   162   161    2
    44   164   163    1
    45   164   165    1
    46   114   113    1
    47   160   163    1
    48   160   161    1
    49   137   138    1
    50   117   118    1
    51   139   140    2
    52   139   138    1
    53   118   119    1
    54   118   121    1
    55   120   119    2
    56   165   166    1
    57   138   141    1
    58   113   110    1
    59   195   194    1
    60   192   194   ar
    61   192   190   ar
    62   122   121    1
    63   122   123    1
    64   111   112    2
    65   111   110    1
    66   168   167    1
    67   194   193   ar
    68   166   167    2
    69   110   109    1
    70   190   189   ar
    71   141   142    1
    72   167   169    1
    73   143   142   ar
    74   123   125   ar
    75   123   124   ar
    76   142   144   ar
    77   193   191   ar
    78    27    28    1
    79   109    99   am
    80   189   191   ar
    81   189   188    1
    82    31    28    1
    83    28    29    1
    84   188   185    1
    85    99   100    2
    86    99    98    1
    87    29    30    2
    88   104   106   ar
    89   104   102   ar
    90    26    24    1
    91   184   185    1
    92   106   107   ar
    93   185   186    1
    94    61    60    1
    95    98   101    1
    96    98    97    1
    97   101   102    1
    98   102   103   ar
    99   186   187    2
   100    24    25    1
   101    24    23    2
   102    60    59    1
   103    86    85    2
   104   107   108    1
   105   107   105   ar
   106    91    89   ar
   107    91    92   ar
   108    15    13   am
   109    89    88   ar
   110    97    85   am
   111   103   105   ar
   112    85    84    1
   113    23    22    1
   114    59    58    1
   115    92    94   ar
   116    92    90   ar
   117    53    51   am
   118    45    43    1
   119    13    14    2
   120    13    12    1
   121    94    96   ar
   122    88    90   ar
   123    88    87    1
   124    36    37    1
   125    36    33    1
   126    52    51    2
   127    51    50    1
   128    84    87    1
   129    84    83    1
   130    37    38    1
   131    58    55    1
   132    22    21    1
   133    90    93   ar
   134    72    70   ar
   135    72    71   ar
   136     6     5    1
   137     5     2    1
   138    44    43    1
   139    70    68   ar
   140    12    11    1
   141    83    81   am
   142    43    40    1
   143    96    95   ar
   144    55    54    1
   145    55    56    1
   146    33    32    1
   147    33    34    1
   148    21    20    1
   149    38    32    1
   150    49    48    2
   151    71    69   ar
   152    50    47    1
   153     4     3    2
   154    68    67   ar
   155    93    95   ar
   156     2     3    1
   157     2     1    1
   158    81    80    1
   159    81    82    2
   160    54    48   am
   161    48    47    1
   162    40    39    1
   163    40    41    1
   164    80    79    1
   165    11     8    1
   166     3     7   am
   167    34    35    2
   168    56    57    2
   169    20    17    1
   170    79    75   am
   171    47    46    1
   172     7     8    1
   173    69    67   ar
   174    17    18    1
   175    17    16    1
   176    67    66    1
   177     8     9    1
   178    41    42    2
   179    18    19    2
   180    75    76    2
   181    75    74    1
   182    65    64    2
   183    74    73    1
   184    74    77    1
   185    66    63    1
   186    64    73   am
   187    64    63    1
   188     9    10    2
   189    63    62    1
   190    77    78    1
