@<TRIPOS>MOLECULE
tmp/6auxB03.pdb
 143 142 0 0 0
SMALL
GASTEIGER

@<TRIPOS>ATOM
      1  N         18.1920   12.2890   47.4990 N.3    38  MET38      -0.1245
      2  CA        18.0610   11.6360   48.8080 C.3    38  MET38       0.1570
      3  C         17.6240   12.6230   49.9010 C.2    38  MET38       0.2261
      4  O         16.6710   12.3560   50.6410 O.2    38  MET38      -0.2867
      5  CB        19.3810   10.9570   49.1850 C.3    38  MET38       0.0387
      6  CG        19.3690   10.2320   50.5310 C.3    38  MET38       0.0595
      7  SD        19.1490    8.4510   50.3350 S.3    38  MET38      -0.1393
      8  CE        20.4820    8.0460   49.2260 C.3    38  MET38       0.0692
      9  N         22.3400    5.8800   64.5690 N.3   170  SER170     -0.1202
     10  CA        21.3350    6.0590   63.5290 C.3   170  SER170      0.2020
     11  C         20.1750    5.0880   63.7230 C.2   170  SER170      0.2618
     12  O         19.0280    5.4290   63.4260 O.2   170  SER170     -0.2717
     13  CB        21.9800    5.9020   62.1450 C.3   170  SER170      0.2103
     14  OG        22.5460    4.6130   61.9820 O.3   170  SER170     -0.2182
     15  N         20.4580    3.8880   64.2320 N.am  171  GLN171     -0.1979
     16  CA        19.4530    2.9370   64.6820 C.3   171  GLN171      0.1601
     17  C         19.8680    2.4070   66.0500 C.2   171  GLN171      0.2287
     18  O         21.0560    2.3960   66.3880 O.2   171  GLN171     -0.2864
     19  CB        19.2660    1.7470   63.6990 C.3   171  GLN171      0.0394
     20  CG        18.7950    2.1380   62.2940 C.3   171  GLN171      0.0908
     21  CD        18.7040    0.9320   61.3450 C.2   171  GLN171      0.2608
     22  OE1       18.7150   -0.2270   61.7790 O.2   171  GLN171     -0.2717
     23  NE2       18.6190    1.2050   60.0490 N.am  171  GLN171     -0.0878
     24  N         14.2340   -3.4050   63.6960 N.3   258  PRO258     -0.2116
     25  CA        14.6930   -2.1760   63.0330 C.3   258  PRO258      0.1372
     26  C         14.1710   -0.9660   63.8000 C.2   258  PRO258      0.2244
     27  O         12.9620   -0.7940   63.9530 O.2   258  PRO258     -0.2868
     28  CB        14.0650   -2.2770   61.6380 C.3   258  PRO258      0.0268
     29  CG        12.7510   -2.9900   61.8880 C.3   258  PRO258      0.0207
     30  CD        12.9970   -3.9320   63.0850 C.3   258  PRO258      0.0892
     31  N         14.7840    3.0970   64.1320 N.3   260  VAL260     -0.1245
     32  CA        15.4250    4.3150   63.6420 C.3   260  VAL260      0.1561
     33  C         15.4720    5.3520   64.7550 C.2   260  VAL260      0.2260
     34  O         14.4440    5.6750   65.3540 O.2   260  VAL260     -0.2867
     35  CB        14.6720    4.8590   62.4250 C.3   260  VAL260      0.0252
     36  CG1       15.0610    6.3180   62.1560 C.3   260  VAL260      0.0019
     37  CG2       14.9440    3.9550   61.1980 C.3   260  VAL260      0.0019
     38  N         17.6040    8.5030   64.5560 N.3   262  ASN262     -0.1225
     39  CA        18.2610    9.7630   64.2240 C.3   262  ASN262      0.1785
     40  C         17.3290   10.7620   63.5540 C.2   262  ASN262      0.2597
     41  O         17.7990   11.7920   63.0620 O.2   262  ASN262     -0.2718
     42  CB        19.4910    9.5270   63.3330 C.3   262  ASN262      0.1169
     43  CG        19.1600    8.7770   62.0620 C.2   262  ASN262      0.2627
     44  OD1       18.0020    8.4420   61.8000 O.2   262  ASN262     -0.2716
     45  ND2       20.1790    8.5240   61.2500 N.am  262  ASN262     -0.0877
     46  N         16.0330   10.5060   63.5360 N.am  263  MET263     -0.1979
     47  CA        15.1410   11.4460   62.8900 C.3   263  MET263      0.1605
     48  C         14.5570   12.4210   63.9000 C.2   263  MET263      0.2287
     49  O         14.6850   12.2580   65.1170 O.2   263  MET263     -0.2864
     50  CB        14.0560   10.6960   62.1300 C.3   263  MET263      0.0413
     51  CG        14.6490   10.0640   60.8280 C.3   263  MET263      0.0598
     52  SD        13.3880    9.4210   59.7450 S.3   263  MET263     -0.1393
     53  CE        12.9600   10.8540   58.7270 C.3   263  MET263      0.0692
     54  N         11.9930    5.1140   66.9540 N.3   277  PHE277     -0.1227
     55  CA        10.7960    4.3540   66.6420 C.3   277  PHE277      0.1736
     56  C         11.2080    3.0590   65.9470 C.2   277  PHE277      0.2596
     57  O         12.3020    2.9430   65.3890 O.2   277  PHE277     -0.2718
     58  CB         9.8200    5.1700   65.7920 C.3   277  PHE277      0.0547
     59  CG        10.4260    5.7130   64.5240 C.ar  277  PHE277     -0.0202
     60  CD1       10.5370    4.9160   63.3920 C.ar  277  PHE277     -0.0042
     61  CD2       10.8600    7.0310   64.4560 C.ar  277  PHE277     -0.0042
     62  CE1       11.0700    5.4280   62.2060 C.ar  277  PHE277     -0.0003
     63  CE2       11.3990    7.5360   63.2830 C.ar  277  PHE277     -0.0003
     64  CZ        11.5020    6.7200   62.1470 C.ar  277  PHE277     -0.0000
     65  N         10.3420    2.0580   66.0370 N.am  278  SER278     -0.1938
     66  CA        10.6890    0.7190   65.5840 C.3   278  SER278      0.2055
     67  C          9.4340    0.0680   65.0330 C.2   278  SER278      0.2644
     68  O          8.3170    0.4020   65.4340 O.2   278  SER278     -0.2714
     69  CB        11.2810   -0.1470   66.7170 C.3   278  SER278      0.2130
     70  OG        10.3350   -0.2910   67.7580 O.3   278  SER278     -0.2179
     71  N          9.6310   -0.8390   64.0780 N.am  279  GLY279     -0.1939
     72  CA         8.5520   -1.6580   63.5850 C.3   279  GLY279      0.2014
     73  C          9.0700   -3.0680   63.4240 C.2   279  GLY279      0.2639
     74  O          9.6040   -3.6600   64.3660 O.2   279  GLY279     -0.2714
     75  N          8.9560   -3.6000   62.2140 N.am  280  TRP280     -0.1959
     76  CA         9.5430   -4.8800   61.8670 C.3   280  TRP280      0.1771
     77  C         10.0440   -4.7960   60.4250 C.2   280  TRP280      0.2620
     78  O          9.6280   -3.9330   59.6550 O.2   280  TRP280     -0.2715
     79  CB         8.5450   -6.0280   62.0370 C.3   280  TRP280      0.0590
     80  CG         7.2310   -5.8380   61.3530 C.ar  280  TRP280      0.0006
     81  CD1        6.9540   -6.0480   60.0200 C.ar  280  TRP280      0.0946
     82  CD2        6.0020   -5.4170   61.9530 C.ar  280  TRP280      0.0152
     83  NE1        5.6310   -5.7780   59.7690 N.ar  280  TRP280     -0.2442
     84  CE2        5.0250   -5.3910   60.9390 C.ar  280  TRP280      0.0810
     85  CE3        5.6290   -5.0600   63.2610 C.ar  280  TRP280      0.0012
     86  CZ2        3.7020   -5.0250   61.1870 C.ar  280  TRP280      0.0191
     87  CZ3        4.3160   -4.6910   63.5020 C.ar  280  TRP280      0.0001
     88  CH2        3.3670   -4.6820   62.4700 C.ar  280  TRP280      0.0015
     89  N         10.9470   -5.7020   60.0760 N.am  281  TYR281     -0.1960
     90  CA        11.6560   -5.6100   58.8070 C.3   281  TYR281      0.1771
     91  C         10.8020   -6.0870   57.6420 C.2   281  TYR281      0.2619
     92  O         10.0120   -7.0280   57.7660 O.2   281  TYR281     -0.2715
     93  CB        12.9290   -6.4480   58.8470 C.3   281  TYR281      0.0574
     94  CG        14.1730   -5.7010   59.2440 C.ar  281  TYR281     -0.0198
     95  CD1       14.8230   -5.9650   60.4620 C.ar  281  TYR281     -0.0009
     96  CD2       14.7100   -4.7410   58.4070 C.ar  281  TYR281     -0.0009
     97  CE1       15.9730   -5.2870   60.7980 C.ar  281  TYR281      0.0417
     98  CE2       15.8600   -4.0680   58.7290 C.ar  281  TYR281      0.0417
     99  CZ        16.4930   -4.3440   59.9310 C.ar  281  TYR281      0.1957
    100  OH        17.6390   -3.6570   60.2510 O.3   281  TYR281     -0.2866
    101  N         10.9640   -5.4200   56.5020 N.am  282  MET282     -0.1977
    102  CA        10.6670   -6.0280   55.2110 C.3   282  MET282      0.1605
    103  C         11.9380   -6.7250   54.7460 C.2   282  MET282      0.2287
    104  O         13.0390   -6.1840   54.8890 O.2   282  MET282     -0.2864
    105  CB        10.2080   -4.9800   54.1880 C.3   282  MET282      0.0413
    106  CG         9.8250   -5.5590   52.8010 C.3   282  MET282      0.0598
    107  SD         8.9840   -4.3580   51.7130 S.3   282  MET282     -0.1393
    108  CE        10.2930   -3.1670   51.4180 C.3   282  MET282      0.0692
    109  N         15.0480   -5.1530   52.9330 N.3   285  GLU285     -0.1245
    110  CA        15.9410   -4.2540   53.6520 C.3   285  GLU285      0.1567
    111  C         17.2150   -4.9770   54.0640 C.2   285  GLU285      0.2260
    112  O         18.3200   -4.4390   53.9140 O.2   285  GLU285     -0.2867
    113  CB        15.2520   -3.6670   54.8810 C.3   285  GLU285      0.0388
    114  CG        13.9870   -2.8780   54.5910 C.3   285  GLU285      0.1160
    115  CD        13.3930   -2.3120   55.8780 C.2   285  GLU285      0.3649
    116  OE1       14.0420   -1.4130   56.4500 O.co2 285  GLU285     -0.2457
    117  OE2       12.3120   -2.7720   56.3240 O.co2 285  GLU285     -0.2457
    118  N         11.0540    5.4990   46.7790 N.3   371  TRP371     -0.1241
    119  CA        11.3350    4.7480   47.9890 C.3   371  TRP371      0.1605
    120  C         10.3530    3.6140   48.2480 C.2   371  TRP371      0.2264
    121  O         10.7290    2.6220   48.8830 O.2   371  TRP371     -0.2867
    122  CB        11.3420    5.7130   49.1910 C.3   371  TRP371      0.0550
    123  CG        12.6360    6.4700   49.3210 C.ar  371  TRP371      0.0003
    124  CD1       13.1380    7.4290   48.4660 C.ar  371  TRP371      0.0946
    125  CD2       13.5950    6.3270   50.3680 C.ar  371  TRP371      0.0152
    126  NE1       14.3560    7.8780   48.9310 N.ar  371  TRP371     -0.2442
    127  CE2       14.6550    7.2140   50.0930 C.ar  371  TRP371      0.0810
    128  CE3       13.6570    5.5380   51.5190 C.ar  371  TRP371      0.0012
    129  CZ2       15.7600    7.3260   50.9270 C.ar  371  TRP371      0.0191
    130  CZ3       14.7530    5.6550   52.3430 C.ar  371  TRP371      0.0001
    131  CH2       15.7900    6.5400   52.0410 C.ar  371  TRP371      0.0015
    132  N         14.6420   14.5760   58.5380 N.3   399  TYR399     -0.1241
    133  CA        16.0580   14.3440   58.7540 C.3   399  TYR399      0.1605
    134  C         16.6580   15.4820   59.5600 C.2   399  TYR399      0.2264
    135  O         16.1600   16.6130   59.5730 O.2   399  TYR399     -0.2867
    136  CB        16.8060   14.2250   57.4320 C.3   399  TYR399      0.0534
    137  CG        16.3500   13.0700   56.5970 C.ar  399  TYR399     -0.0201
    138  CD1       15.5930   13.2850   55.4550 C.ar  399  TYR399     -0.0009
    139  CD2       16.6630   11.7640   56.9490 C.ar  399  TYR399     -0.0009
    140  CE1       15.1740   12.2420   54.6770 C.ar  399  TYR399      0.0417
    141  CE2       16.2440   10.7050   56.1720 C.ar  399  TYR399      0.0417
    142  CZ        15.5010   10.9570   55.0380 C.ar  399  TYR399      0.1957
    143  OH        15.0770    9.9300   54.2420 O.3   399  TYR399     -0.2866
@<TRIPOS>BOND
     1   118   119    1
     2     1     2    1
     3   119   120    1
     4   119   122    1
     5   120   121    2
     6   124   126   ar
     7   124   123   ar
     8     2     5    1
     9     2     3    1
    10   126   127   ar
    11     5     6    1
    12   122   123    1
    13     8     7    1
    14   123   125   ar
    15     3     4    2
    16   127   125   ar
    17   127   129   ar
    18     7     6    1
    19   125   128   ar
    20   129   131   ar
    21   108   107    1
    22   128   130   ar
    23   107   106    1
    24   131   130   ar
    25   106   105    1
    26   109   110    1
    27   110   111    1
    28   110   113    1
    29   112   111    2
    30   105   102    1
    31   143   142    1
    32   114   113    1
    33   114   115    1
    34   140   142   ar
    35   140   138   ar
    36   103   104    2
    37   103   102    1
    38   142   141   ar
    39   102   101    1
    40   138   137   ar
    41   115   117   ar
    42   115   116   ar
    43   141   139   ar
    44   101    91   am
    45   137   139   ar
    46   137   136    1
    47   136   133    1
    48    91    92    2
    49    91    90    1
    50    96    98   ar
    51    96    94   ar
    52   132   133    1
    53    53    52    1
    54    98    99   ar
    55   133   134    1
    56    90    93    1
    57    90    89    1
    58    93    94    1
    59    94    95   ar
    60   134   135    2
    61    78    77    2
    62    52    51    1
    63    83    81   ar
    64    83    84   ar
    65    99   100    1
    66    99    97   ar
    67    81    80   ar
    68    23    21   am
    69    89    77   am
    70    77    76    1
    71    95    97   ar
    72    51    50    1
    73    84    86   ar
    74    84    82   ar
    75    86    88   ar
    76    37    35    1
    77    45    43   am
    78    21    22    2
    79    21    20    1
    80    80    82   ar
    81    80    79    1
    82    28    29    1
    83    28    25    1
    84    44    43    2
    85    76    79    1
    86    76    75    1
    87    29    30    1
    88    82    85   ar
    89    14    13    1
    90    43    42    1
    91    50    47    1
    92    13    10    1
    93    64    62   ar
    94    64    63   ar
    95    36    35    1
    96    62    60   ar
    97    75    73   am
    98    20    19    1
    99    35    32    1
   100    88    87   ar
   101    47    46    1
   102    47    48    1
   103    25    24    1
   104    25    26    1
   105    41    40    2
   106    30    24    1
   107    85    87   ar
   108    63    61   ar
   109    42    39    1
   110    60    59   ar
   111    73    72    1
   112    73    74    2
   113    12    11    2
   114    10    11    1
   115    10     9    1
   116    46    40   am
   117    40    39    1
   118    72    71    1
   119    32    31    1
   120    32    33    1
   121    19    16    1
   122    11    15   am
   123    26    27    2
   124    48    49    2
   125    71    67   am
   126    39    38    1
   127    15    16    1
   128    61    59   ar
   129    59    58    1
   130    16    17    1
   131    33    34    2
   132    67    68    2
   133    67    66    1
   134    57    56    2
   135    66    65    1
   136    66    69    1
   137    58    55    1
   138    56    65   am
   139    56    55    1
   140    17    18    2
   141    55    54    1
   142    69    70    1
