@<TRIPOS>MOLECULE
tmp/6av0B01.pdb
 201 200 0 0 0
SMALL
GASTEIGER

@<TRIPOS>ATOM
      1  N        108.1160  252.6760  335.5560 N.3    38  MET38      -0.1230
      2  CA       108.6230  252.2880  334.2420 C.3    38  MET38       0.1702
      3  C        108.4580  253.3980  333.2020 C.2    38  MET38       0.2592
      4  O        109.3590  253.6260  332.3810 O.2    38  MET38      -0.2718
      5  CB       108.0140  250.9740  333.7600 C.3    38  MET38       0.0401
      6  CG       108.7760  250.3870  332.5450 C.3    38  MET38       0.0596
      7  SD       108.3310  248.6850  332.1430 S.3    38  MET38      -0.1393
      8  CE       109.0710  247.8020  333.5110 C.3    38  MET38       0.0692
      9  N        107.3210  254.0910  333.2520 N.am   39  HIS39      -0.1976
     10  CA       107.0200  255.1620  332.2920 C.3    39  HIS39       0.1656
     11  C        106.5900  256.4340  333.0250 C.2    39  HIS39       0.2291
     12  O        105.3990  256.7290  333.1060 O.2    39  HIS39      -0.2864
     13  CB       105.8980  254.7340  331.3300 C.3    39  HIS39       0.0771
     14  CG       106.1460  253.4250  330.6380 C.ar   39  HIS39       0.0820
     15  ND1      107.1070  253.2670  329.6590 N.ar   39  HIS39      -0.2267
     16  CD2      105.5390  252.2220  330.7640 C.ar   39  HIS39       0.1154
     17  CE1      107.0890  252.0200  329.2230 C.ar   39  HIS39       0.1986
     18  NE2      106.1470  251.3620  329.8750 N.ar   39  HIS39      -0.2212
     19  N        106.6380  244.7260  318.7330 N.3   170  SER170     -0.1202
     20  CA       107.4750  245.3450  319.7650 C.3   170  SER170      0.2020
     21  C        108.9450  244.9550  319.5530 C.2   170  SER170      0.2618
     22  O        109.8550  245.7630  319.7800 O.2   170  SER170     -0.2717
     23  CB       106.9770  244.9710  321.1630 C.3   170  SER170      0.2103
     24  OG       107.0960  243.5810  321.3890 O.3   170  SER170     -0.2182
     25  N        109.1770  243.7280  319.0820 N.am  171  GLN171     -0.1979
     26  CA       110.4930  243.3430  318.5540 C.3   171  GLN171      0.1601
     27  C        110.3290  242.7380  317.1640 C.2   171  GLN171      0.2287
     28  O        109.2630  242.2170  316.8390 O.2   171  GLN171     -0.2864
     29  CB       111.1840  242.2980  319.4310 C.3   171  GLN171      0.0394
     30  CG       111.5430  242.6980  320.8530 C.3   171  GLN171      0.0908
     31  CD       112.0030  241.4780  321.6440 C.2   171  GLN171      0.2608
     32  OE1      111.2220  240.8740  322.3820 O.2   171  GLN171     -0.2717
     33  NE2      113.2650  241.0850  321.4540 N.am  171  GLN171     -0.0878
     34  N        109.7220  237.6210  317.6120 N.3   174  ARG174     -0.1245
     35  CA       109.0500  237.2190  318.8640 C.3   174  ARG174      0.1563
     36  C        108.1810  235.9850  318.6350 C.2   174  ARG174      0.2260
     37  O        107.8120  235.6760  317.4950 O.2   174  ARG174     -0.2867
     38  CB       108.1630  238.3400  319.4260 C.3   174  ARG174      0.0307
     39  CG       108.9170  239.5580  319.9030 C.3   174  ARG174      0.0489
     40  CD       108.1940  240.2850  321.0100 C.3   174  ARG174      0.2205
     41  NE       108.2770  239.5690  322.2770 N.pl3 174  ARG174     -0.0865
     42  CZ       107.8510  240.0630  323.4360 C.cat 174  ARG174      0.5346
     43  NH1      107.3130  241.2750  323.4840 N.pl3 174  ARG174      0.1354
     44  NH2      107.9610  239.3480  324.5470 N.pl3 174  ARG174      0.1354
     45  N        114.9750  229.5250  321.7710 N.3   254  TRP254     -0.1227
     46  CA       114.7760  230.9650  321.6780 C.3   254  TRP254      0.1737
     47  C        115.4980  231.4490  320.4350 C.2   254  TRP254      0.2595
     48  O        116.2390  230.6830  319.7970 O.2   254  TRP254     -0.2718
     49  CB       115.2970  231.6760  322.9300 C.3   254  TRP254      0.0564
     50  CG       114.6210  232.9970  323.1950 C.ar  254  TRP254      0.0003
     51  CD1      115.1450  234.2430  322.9900 C.ar  254  TRP254      0.0946
     52  CD2      113.2930  233.1980  323.7170 C.ar  254  TRP254      0.0152
     53  NE1      114.2260  235.2050  323.3550 N.ar  254  TRP254     -0.2442
     54  CE2      113.0820  234.5880  323.8030 C.ar  254  TRP254      0.0810
     55  CE3      112.2600  232.3340  324.1030 C.ar  254  TRP254      0.0012
     56  CZ2      111.8780  235.1370  324.2650 C.ar  254  TRP254      0.0191
     57  CZ3      111.0670  232.8820  324.5710 C.ar  254  TRP254      0.0001
     58  CH2      110.8880  234.2670  324.6480 C.ar  254  TRP254      0.0015
     59  N        115.2570  232.7010  320.0670 N.am  255  TYR255     -0.1976
     60  CA       115.8860  233.2760  318.8870 C.3   255  TYR255      0.1639
     61  C        117.1440  234.0020  319.3220 C.2   255  TYR255      0.2290
     62  O        117.2340  234.4730  320.4600 O.2   255  TYR255     -0.2864
     63  CB       114.9260  234.2290  318.1890 C.3   255  TYR255      0.0560
     64  CG       114.1520  235.1180  319.1300 C.ar  255  TYR255     -0.0198
     65  CD1      114.6790  236.3270  319.5500 C.ar  255  TYR255     -0.0009
     66  CD2      112.8790  234.7660  319.5730 C.ar  255  TYR255     -0.0009
     67  CE1      113.9780  237.1570  320.4000 C.ar  255  TYR255      0.0417
     68  CE2      112.1660  235.5980  320.4280 C.ar  255  TYR255      0.0417
     69  CZ       112.7280  236.7910  320.8380 C.ar  255  TYR255      0.1957
     70  OH       112.0550  237.6420  321.6880 O.3   255  TYR255     -0.2866
     71  N        117.9540  239.8760  319.5480 N.3   258  PRO258     -0.2116
     72  CA       117.0790  240.8210  320.2580 C.3   258  PRO258      0.1372
     73  C        116.9970  242.1440  319.5040 C.2   258  PRO258      0.2244
     74  O        118.0030  242.8350  319.3250 O.2   258  PRO258     -0.2868
     75  CB       117.7870  241.0160  321.6100 C.3   258  PRO258      0.0268
     76  CG       119.2410  240.7840  321.3200 C.3   258  PRO258      0.0207
     77  CD       119.3370  239.8960  320.0670 C.3   258  PRO258      0.0892
     78  N        114.6660  245.5280  319.2850 N.3   260  VAL260     -0.1245
     79  CA       113.5750  246.4150  319.6820 C.3   260  VAL260      0.1561
     80  C        113.0800  247.2380  318.5020 C.2   260  VAL260      0.2260
     81  O        113.8760  247.8700  317.7910 O.2   260  VAL260     -0.2867
     82  CB       114.0080  247.3640  320.7960 C.3   260  VAL260      0.0252
     83  CG1      112.8290  248.2360  321.2350 C.3   260  VAL260      0.0019
     84  CG2      114.5300  246.5560  321.9800 C.3   260  VAL260      0.0019
     85  N        109.8650  249.1040  318.6550 N.3   262  ASN262     -0.1240
     86  CA       108.6870  249.8900  319.0300 C.3   262  ASN262      0.1653
     87  C        109.0520  251.2190  319.6910 C.2   262  ASN262      0.2266
     88  O        108.1830  251.9390  320.1960 O.2   262  ASN262     -0.2867
     89  CB       107.7590  249.0780  319.9480 C.3   262  ASN262      0.1155
     90  CG       108.4060  248.7360  321.2890 C.2   262  ASN262      0.2627
     91  OD1      109.5670  249.0710  321.5500 O.2   262  ASN262     -0.2716
     92  ND2      107.6510  248.0660  322.1460 N.am  262  ASN262     -0.0877
     93  N        116.2820  248.4490  316.2450 N.3   277  PHE277     -0.1227
     94  CA       117.6940  248.3130  316.5620 C.3   277  PHE277      0.1736
     95  C        117.9320  246.9980  317.3010 C.2   277  PHE277      0.2596
     96  O        117.0430  246.4880  317.9920 O.2   277  PHE277     -0.2718
     97  CB       118.1940  249.5160  317.3760 C.3   277  PHE277      0.0547
     98  CG       117.4960  249.6970  318.6970 C.ar  277  PHE277     -0.0202
     99  CD1      117.8820  248.9660  319.8180 C.ar  277  PHE277     -0.0042
    100  CD2      116.4760  250.6270  318.8260 C.ar  277  PHE277     -0.0042
    101  CE1      117.2440  249.1550  321.0520 C.ar  277  PHE277     -0.0003
    102  CE2      115.8390  250.8160  320.0450 C.ar  277  PHE277     -0.0003
    103  CZ       116.2240  250.0830  321.1550 C.ar  277  PHE277     -0.0000
    104  N        119.1300  246.4380  317.1430 N.am  278  SER278     -0.1938
    105  CA       119.3870  245.1050  317.6500 C.3   278  SER278      0.2055
    106  C        120.8280  244.9590  318.0870 C.2   278  SER278      0.2644
    107  O        121.7110  245.6480  317.5750 O.2   278  SER278     -0.2714
    108  CB       119.0550  244.0550  316.5870 C.3   278  SER278      0.2130
    109  OG       120.0050  244.0760  315.5390 O.3   278  SER278     -0.2179
    110  N        121.0580  244.0680  319.0450 N.am  279  GLY279     -0.1939
    111  CA       122.3980  243.8140  319.5340 C.3   279  GLY279      0.2014
    112  C        122.5710  242.3240  319.7090 C.2   279  GLY279      0.2639
    113  O        122.3900  241.5450  318.7670 O.2   279  GLY279     -0.2714
    114  N        122.9200  241.9120  320.9180 N.am  280  TRP280     -0.1959
    115  CA       122.8910  240.4910  321.2250 C.3   280  TRP280      0.1771
    116  C        122.4080  240.3530  322.6560 C.2   280  TRP280      0.2620
    117  O        122.3810  241.3420  323.3880 O.2   280  TRP280     -0.2715
    118  CB       124.2530  239.8450  321.0170 C.3   280  TRP280      0.0590
    119  CG       125.3670  240.5300  321.7230 C.ar  280  TRP280      0.0006
    120  CD1      125.6860  240.4340  323.0640 C.ar  280  TRP280      0.0946
    121  CD2      126.3510  241.3950  321.1340 C.ar  280  TRP280      0.0152
    122  NE1      126.8030  241.2050  323.3330 N.ar  280  TRP280     -0.2442
    123  CE2      127.2290  241.8010  322.1660 C.ar  280  TRP280      0.0810
    124  CE3      126.5700  241.8730  319.8370 C.ar  280  TRP280      0.0012
    125  CZ2      128.3070  242.6610  321.9360 C.ar  280  TRP280      0.0191
    126  CZ3      127.6500  242.7280  319.6080 C.ar  280  TRP280      0.0001
    127  CH2      128.5060  243.1050  320.6500 C.ar  280  TRP280      0.0015
    128  N        122.0230  239.1430  323.0520 N.am  281  TYR281     -0.1960
    129  CA       121.3810  238.9370  324.3490 C.3   281  TYR281      0.1771
    130  C        122.3620  238.8810  325.5160 C.2   281  TYR281      0.2619
    131  O        123.5260  238.4680  325.3560 O.2   281  TYR281     -0.2715
    132  CB       120.5760  237.6360  324.3350 C.3   281  TYR281      0.0574
    133  CG       119.1150  237.7900  323.9680 C.ar  281  TYR281     -0.0198
    134  CD1      118.6190  237.2800  322.7680 C.ar  281  TYR281     -0.0009
    135  CD2      118.2240  238.4340  324.8280 C.ar  281  TYR281     -0.0009
    136  CE1      117.2780  237.4120  322.4350 C.ar  281  TYR281      0.0417
    137  CE2      116.8810  238.5620  324.5110 C.ar  281  TYR281      0.0417
    138  CZ       116.4190  238.0570  323.3060 C.ar  281  TYR281      0.1957
    139  OH       115.0880  238.1880  322.9810 O.3   281  TYR281     -0.2866
    140  N        121.8840  239.3320  326.6750 N.am  282  MET282     -0.1977
    141  CA       122.4640  238.9690  327.9570 C.3   282  MET282      0.1605
    142  C        121.6460  237.7680  328.4280 C.2   282  MET282      0.2287
    143  O        120.4070  237.7900  328.3640 O.2   282  MET282     -0.2864
    144  CB       122.3780  240.1300  328.9620 C.3   282  MET282      0.0413
    145  CG       123.0260  239.8060  330.3120 C.3   282  MET282      0.0598
    146  SD       123.2400  241.2580  331.3730 S.3   282  MET282     -0.1393
    147  CE       121.5390  241.6020  331.8430 C.3   282  MET282      0.0692
    148  N        118.1930  237.7730  330.2130 N.3   285  GLU285     -0.1245
    149  CA       117.0030  238.2640  329.5220 C.3   285  GLU285      0.1567
    150  C        116.0980  237.0990  329.1580 C.2   285  GLU285      0.2260
    151  O        114.8750  237.1620  329.3250 O.2   285  GLU285     -0.2867
    152  CB       117.3830  239.0410  328.2640 C.3   285  GLU285      0.0388
    153  CG       118.1500  240.3180  328.5520 C.3   285  GLU285      0.1160
    154  CD       118.4480  241.1220  327.2860 C.2   285  GLU285      0.3649
    155  OE1      117.5370  241.8450  326.8240 O.co2 285  GLU285     -0.2457
    156  OE2      119.5870  241.0360  326.7570 O.co2 285  GLU285     -0.2457
    157  N        112.1930  235.9860  330.3040 N.3   290  ASP290     -0.1239
    158  CA       111.3810  235.2650  329.3080 C.3   290  ASP290      0.1674
    159  C        110.8440  233.9050  329.7860 C.2   290  ASP290      0.2266
    160  O        109.6690  233.5800  329.5830 O.2   290  ASP290     -0.2867
    161  CB       112.1770  235.0820  327.9950 C.3   290  ASP290      0.1410
    162  CG       112.5090  236.4070  327.3140 C.2   290  ASP290      0.3668
    163  OD1      111.8060  237.4040  327.5730 O.co2 290  ASP290     -0.2456
    164  OD2      113.4750  236.4550  326.5100 O.co2 290  ASP290     -0.2456
    165  N        105.2200  235.1750  331.9390 N.3   296  ARG296     -0.1245
    166  CA       105.8060  234.7710  330.6560 C.3   296  ARG296      0.1563
    167  C        105.7310  233.2450  330.4730 C.2   296  ARG296      0.2260
    168  O        104.6870  232.6540  330.7450 O.2   296  ARG296     -0.2867
    169  CB       107.2320  235.3010  330.5210 C.3   296  ARG296      0.0307
    170  CG       107.3470  236.8300  330.5540 C.3   296  ARG296      0.0489
    171  CD       106.7430  237.5040  329.3060 C.3   296  ARG296      0.2205
    172  NE       107.3700  237.0740  328.0500 N.pl3 296  ARG296     -0.0865
    173  CZ       108.5360  237.5340  327.5910 C.cat 296  ARG296      0.5346
    174  NH1      109.2270  238.4240  328.2930 N.pl3 296  ARG296      0.1354
    175  NH2      109.0300  237.0920  326.4410 N.pl3 296  ARG296      0.1354
    176  N        117.3460  249.2420  336.2040 N.3   371  TRP371     -0.1241
    177  CA       117.4230  248.4360  334.9920 C.3   371  TRP371      0.1605
    178  C        118.7990  247.7960  334.7830 C.2   371  TRP371      0.2264
    179  O        118.9060  246.6970  334.2140 O.2   371  TRP371     -0.2867
    180  CB       117.0340  249.2900  333.7640 C.3   371  TRP371      0.0550
    181  CG       115.5480  249.3410  333.5430 C.ar  371  TRP371      0.0003
    182  CD1      114.6000  249.8650  334.3930 C.ar  371  TRP371      0.0946
    183  CD2      114.8320  248.8240  332.4060 C.ar  371  TRP371      0.0152
    184  NE1      113.3310  249.6980  333.8360 N.ar  371  TRP371     -0.2442
    185  CE2      113.4590  249.0690  332.6200 C.ar  371  TRP371      0.0810
    186  CE3      115.2280  248.1820  331.2240 C.ar  371  TRP371      0.0012
    187  CZ2      112.4770  248.6910  331.6910 C.ar  371  TRP371      0.0191
    188  CZ3      114.2550  247.8150  330.2990 C.ar  371  TRP371      0.0001
    189  CH2      112.8940  248.0670  330.5430 C.ar  371  TRP371      0.0015
    190  N        109.9920  255.9530  324.6680 N.3   399  TYR399     -0.1241
    191  CA       108.7990  255.1320  324.5040 C.3   399  TYR399      0.1605
    192  C        107.7750  255.8840  323.6600 C.2   399  TYR399      0.2264
    193  O        107.8120  257.1180  323.5700 O.2   399  TYR399     -0.2867
    194  CB       108.1900  254.7610  325.8620 C.3   399  TYR399      0.0534
    195  CG       109.1030  253.9220  326.7220 C.ar  399  TYR399     -0.0201
    196  CD1      109.4510  254.3280  328.0080 C.ar  399  TYR399     -0.0009
    197  CD2      109.6290  252.7260  326.2450 C.ar  399  TYR399     -0.0009
    198  CE1      110.2830  253.5640  328.8010 C.ar  399  TYR399      0.0417
    199  CE2      110.4690  251.9540  327.0270 C.ar  399  TYR399      0.0417
    200  CZ       110.7900  252.3800  328.3050 C.ar  399  TYR399      0.1957
    201  OH       111.6230  251.6190  329.0870 O.3   399  TYR399     -0.2866
@<TRIPOS>BOND
     1   109   108    1
     2    93    94    1
     3    94    95    1
     4    94    97    1
     5   108   105    1
     6    28    27    2
     7   104    95   am
     8   104   105    1
     9    27    26    1
    10    95    96    2
    11    97    98    1
    12    37    36    2
    13   107   106    2
    14    34    35    1
    15   105   106    1
    16    81    80    2
    17   106   110   am
    18    63    60    1
    19    63    64    1
    20    80    79    1
    21    26    25    1
    22    26    29    1
    23    36    35    1
    24    85    86    1
    25    98   100   ar
    26    98    99   ar
    27    19    20    1
    28   113   112    2
    29   100   102   ar
    30    35    38    1
    31    60    61    1
    32    60    59    1
    33    86    87    1
    34    86    89    1
    35   110   111    1
    36    25    21   am
    37    64    65   ar
    38    64    66   ar
    39    78    79    1
    40    61    62    2
    41    74    73    2
    42    38    39    1
    43    29    30    1
    44    73    72    1
    45   111   112    1
    46    71    77    1
    47    71    72    1
    48    65    67   ar
    49    21    20    1
    50    21    22    2
    51    66    68   ar
    52   126   124   ar
    53   126   127   ar
    54    79    82    1
    55    87    88    2
    56   112   114   am
    57    20    23    1
    58    48    47    2
    59    99   101   ar
    60   124   121   ar
    61    39    40    1
    62    89    90    1
    63   102   103   ar
    64    77    76    1
    65    59    47   am
    66    72    75    1
    67    67    69   ar
    68    68    69   ar
    69    47    46    1
    70   127   125   ar
    71    82    83    1
    72    82    84    1
    73    69    70    1
    74    30    31    1
    75   114   115    1
    76    40    41    1
    77   118   115    1
    78   118   119    1
    79   101   103   ar
    80   121   119   ar
    81   121   123   ar
    82    23    24    1
    83   115   116    1
    84    90    91    2
    85    90    92   am
    86    76    75    1
    87    33    31   am
    88    31    32    2
    89    46    45    1
    90    46    49    1
    91   119   120   ar
    92   125   123   ar
    93   123   122   ar
    94    41    42    2
    95   136   134   ar
    96   136   138   ar
    97   116   128   am
    98   116   117    2
    99   134   133   ar
   100    49    50    1
   101   139   138    1
   102    51    50   ar
   103    51    53   ar
   104   128   129    1
   105   120   122   ar
   106    50    52   ar
   107   138   137   ar
   108    53    54   ar
   109    42    43    1
   110    42    44    1
   111   193   192    2
   112   192   191    1
   113    52    54   ar
   114    52    55   ar
   115    54    56   ar
   116   133   132    1
   117   133   135   ar
   118    55    57   ar
   119    56    58   ar
   120   132   129    1
   121   129   130    1
   122   191   190    1
   123   191   194    1
   124   137   135   ar
   125    57    58   ar
   126   131   130    2
   127   130   140   am
   128   194   195    1
   129   197   195   ar
   130   197   199   ar
   131   175   173    1
   132   164   162   ar
   133   140   141    1
   134   195   196   ar
   135   156   154   ar
   136   155   154   ar
   137   199   200   ar
   138   154   153    1
   139   162   163   ar
   140   162   161    1
   141   173   172    2
   142   173   174    1
   143   141   142    1
   144   141   144    1
   145   161   158    1
   146   196   198   ar
   147   172   171    1
   148   152   153    1
   149   152   149    1
   150   200   198   ar
   151   200   201    1
   152   143   142    2
   153   144   145    1
   154   150   151    2
   155   150   149    1
   156    17    15   ar
   157    17    18   ar
   158   171   170    1
   159   158   159    1
   160   158   157    1
   161   149   148    1
   162   160   159    2
   163    15    14   ar
   164    18    16   ar
   165   188   189   ar
   166   188   186   ar
   167   145   146    1
   168   167   166    1
   169   167   168    2
   170   169   170    1
   171   169   166    1
   172   189   187   ar
   173    14    16   ar
   174    14    13    1
   175   166   165    1
   176   186   183   ar
   177    13    10    1
   178   146   147    1
   179   187   185   ar
   180     7     6    1
   181     7     8    1
   182    10    11    1
   183    10     9    1
   184     4     3    2
   185   183   185   ar
   186   183   181   ar
   187     6     5    1
   188   185   184   ar
   189    11    12    2
   190     3     9   am
   191     3     2    1
   192   181   180    1
   193   181   182   ar
   194     5     2    1
   195   180   177    1
   196   184   182   ar
   197   179   178    2
   198     2     1    1
   199   178   177    1
   200   177   176    1
