@<TRIPOS>MOLECULE
tmp/6av2B03.pdb
 147 142 0 0 0
SMALL
GASTEIGER

@<TRIPOS>ATOM
      1  N        106.1910  243.3020  319.2560 N.3   170  SER170     -0.1202
      2  CA       107.0110  243.9230  320.3010 C.3   170  SER170      0.2020
      3  C        108.4830  243.5350  320.1280 C.2   170  SER170      0.2618
      4  O        109.3820  244.3410  320.3790 O.2   170  SER170     -0.2717
      5  CB       106.4980  243.5590  321.6950 C.3   170  SER170      0.2103
      6  OG       106.6080  242.1650  321.9210 O.3   170  SER170     -0.2182
      7  N        108.7310  242.3020  319.6910 N.am  171  GLN171     -0.1979
      8  CA       110.0560  241.9290  319.1870 C.3   171  GLN171      0.1601
      9  C        109.8940  241.3470  317.7950 C.2   171  GLN171      0.2287
     10  O        108.8430  240.7880  317.4780 O.2   171  GLN171     -0.2864
     11  CB       110.7480  240.8970  320.0910 C.3   171  GLN171      0.0394
     12  CG       111.1590  241.4020  321.4760 C.3   171  GLN171      0.0908
     13  CD       111.6180  240.2740  322.3970 C.2   171  GLN171      0.2608
     14  OE1      112.5030  239.4900  322.0490 O.2   171  GLN171     -0.2717
     15  NE2      111.0080  240.1880  323.5750 N.am  171  GLN171     -0.0878
     16  N        109.3530  236.3770  318.1110 N.3   174  ARG174     -0.1245
     17  CA       108.6660  236.0040  319.3650 C.3   174  ARG174      0.1563
     18  C        107.7430  234.8190  319.1380 C.2   174  ARG174      0.2260
     19  O        107.3000  234.5820  318.0080 O.2   174  ARG174     -0.2867
     20  CB       107.8370  237.1630  319.9300 C.3   174  ARG174      0.0307
     21  CG       108.6500  238.1790  320.6990 C.3   174  ARG174      0.0489
     22  CD       107.8140  238.9490  321.6880 C.3   174  ARG174      0.2205
     23  NE       107.9060  238.3830  323.0280 N.pl3 174  ARG174     -0.0865
     24  CZ       107.3230  238.9140  324.0980 C.cat 174  ARG174      0.5346
     25  NH1      106.6060  240.0240  323.9810 N.pl3 174  ARG174      0.1354
     26  NH2      107.4520  238.3350  325.2810 N.pl3 174  ARG174      0.1354
     27  N        102.6240  236.4250  327.3090 N.3   190  ALA190     -0.1245
     28  CA       102.9180  237.8240  326.9980 C.3   190  ALA190      0.1562
     29  C        102.3770  238.2590  325.6260 C.2   190  ALA190      0.2260
     30  O        102.1120  239.4410  325.3980 O.2   190  ALA190     -0.2867
     31  CB       104.4090  238.0660  327.0640 C.3   190  ALA190      0.0290
     32  N        117.5270  238.6190  320.0520 N.3   258  PRO258     -0.2116
     33  CA       116.6370  239.5390  320.7830 C.3   258  PRO258      0.1372
     34  C        116.5760  240.8540  320.0280 C.2   258  PRO258      0.2244
     35  O        117.5990  241.5150  319.8160 O.2   258  PRO258     -0.2868
     36  CB       117.3510  239.7310  322.1220 C.3   258  PRO258      0.0268
     37  CG       118.8270  239.5460  321.7980 C.3   258  PRO258      0.0207
     38  CD       118.9110  238.6430  320.5660 C.3   258  PRO258      0.0892
     39  N        114.2640  244.1830  319.8290 N.3   260  VAL260     -0.1245
     40  CA       113.1700  245.0210  320.2940 C.3   260  VAL260      0.1561
     41  C        112.6570  245.8490  319.1360 C.2   260  VAL260      0.2260
     42  O        113.4430  246.5110  318.4470 O.2   260  VAL260     -0.2867
     43  CB       113.6400  245.9430  321.4190 C.3   260  VAL260      0.0252
     44  CG1      112.5500  246.9390  321.7750 C.3   260  VAL260      0.0019
     45  CG2      114.0500  245.1060  322.6390 C.3   260  VAL260      0.0019
     46  N        115.7690  247.1950  316.8700 N.3   277  PHE277     -0.1227
     47  CA       117.1920  247.0660  317.1540 C.3   277  PHE277      0.1736
     48  C        117.4370  245.7420  317.8550 C.2   277  PHE277      0.2596
     49  O        116.5650  245.2300  318.5700 O.2   277  PHE277     -0.2718
     50  CB       117.6960  248.2470  317.9960 C.3   277  PHE277      0.0547
     51  CG       116.9930  248.4010  319.3370 C.ar  277  PHE277     -0.0202
     52  CD1      117.4350  247.7000  320.4530 C.ar  277  PHE277     -0.0042
     53  CD2      115.9220  249.2770  319.4820 C.ar  277  PHE277     -0.0042
     54  CE1      116.8110  247.8650  321.7090 C.ar  277  PHE277     -0.0003
     55  CE2      115.2850  249.4390  320.7130 C.ar  277  PHE277     -0.0003
     56  CZ       115.7350  248.7360  321.8280 C.ar  277  PHE277     -0.0000
     57  N        118.6180  245.1790  317.6360 N.am  278  SER278     -0.1938
     58  CA       118.9050  243.8570  318.1630 C.3   278  SER278      0.2055
     59  C        120.3420  243.7600  318.6280 C.2   278  SER278      0.2644
     60  O        121.2100  244.5380  318.1930 O.2   278  SER278     -0.2714
     61  CB       118.6270  242.7940  317.0970 C.3   278  SER278      0.2130
     62  OG       119.5690  242.8800  316.0430 O.3   278  SER278     -0.2179
     63  N        120.5860  242.8020  319.5130 N.am  279  GLY279     -0.1939
     64  CA       121.9210  242.5390  320.0210 C.3   279  GLY279      0.2014
     65  C        122.0430  241.0470  320.2500 C.2   279  GLY279      0.2639
     66  O        121.8250  240.2310  319.3390 O.2   279  GLY279     -0.2714
     67  N        122.3980  240.6740  321.4650 N.am  280  TRP280     -0.1959
     68  CA       122.4180  239.2600  321.8190 C.3   280  TRP280      0.1771
     69  C        121.9510  239.1440  323.2530 C.2   280  TRP280      0.2620
     70  O        121.9240  240.1380  323.9760 O.2   280  TRP280     -0.2715
     71  CB       123.8080  238.6510  321.6390 C.3   280  TRP280      0.0590
     72  CG       124.8880  239.3760  322.3680 C.ar  280  TRP280      0.0006
     73  CD1      125.1610  239.3140  323.7150 C.ar  280  TRP280      0.0946
     74  CD2      125.8660  240.2610  321.7990 C.ar  280  TRP280      0.0152
     75  NE1      126.2430  240.1110  324.0070 N.ar  280  TRP280     -0.2442
     76  CE2      126.6930  240.7040  322.8530 C.ar  280  TRP280      0.0810
     77  CE3      126.1180  240.7230  320.5010 C.ar  280  TRP280      0.0012
     78  CZ2      127.7530  241.5880  322.6480 C.ar  280  TRP280      0.0191
     79  CZ3      127.1730  241.6040  320.2970 C.ar  280  TRP280      0.0001
     80  CH2      127.9840  242.0200  321.3630 C.ar  280  TRP280      0.0015
     81  N        121.5840  237.9320  323.6590 N.am  281  TYR281     -0.1960
     82  CA       120.9400  237.7310  324.9370 C.3   281  TYR281      0.1771
     83  C        121.9130  237.7180  326.1050 C.2   281  TYR281      0.2619
     84  O        123.0610  237.2830  325.9710 O.2   281  TYR281     -0.2715
     85  CB       120.1740  236.4200  324.9200 C.3   281  TYR281      0.0574
     86  CG       118.7120  236.5450  324.5470 C.ar  281  TYR281     -0.0198
     87  CD1      118.1980  235.8860  323.4310 C.ar  281  TYR281     -0.0009
     88  CD2      117.8370  237.3010  325.3250 C.ar  281  TYR281     -0.0009
     89  CE1      116.8500  235.9920  323.0970 C.ar  281  TYR281      0.0417
     90  CE2      116.4880  237.4020  325.0050 C.ar  281  TYR281      0.0417
     91  CZ       116.0020  236.7460  323.8940 C.ar  281  TYR281      0.1957
     92  OH       114.6660  236.8530  323.5700 O.3   281  TYR281     -0.2866
     93  N        121.4490  238.2340  327.2380 N.am  282  MET282     -0.1977
     94  CA       122.0120  237.8650  328.5240 C.3   282  MET282      0.1605
     95  C        121.1780  236.6650  328.9750 C.2   282  MET282      0.2287
     96  O        119.9470  236.6720  328.8350 O.2   282  MET282     -0.2864
     97  CB       121.9180  239.0160  329.5300 C.3   282  MET282      0.0413
     98  CG       122.6050  238.6960  330.8580 C.3   282  MET282      0.0598
     99  SD       122.7690  240.1190  331.9650 S.3   282  MET282     -0.1393
    100  CE       121.0780  240.3170  332.5640 C.3   282  MET282      0.0692
    101  N        117.6840  236.6450  330.8340 N.3   285  GLU285     -0.1245
    102  CA       116.5150  237.1790  330.1390 C.3   285  GLU285      0.1567
    103  C        115.6180  236.0350  329.7050 C.2   285  GLU285      0.2260
    104  O        114.3990  236.0950  329.8460 O.2   285  GLU285     -0.2867
    105  CB       116.9350  238.0000  328.9180 C.3   285  GLU285      0.0388
    106  CG       117.7790  239.2130  329.2570 C.3   285  GLU285      0.1160
    107  CD       118.1350  240.0200  328.0170 C.2   285  GLU285      0.3649
    108  OE1      117.2400  240.7410  327.5380 O.co2 285  GLU285     -0.2457
    109  OE2      119.2900  239.9250  327.5180 O.co2 285  GLU285     -0.2457
    110  N        113.3880  235.2970  333.3080 N.3   289  ARG289     -0.1231
    111  CA       112.1730  236.0480  332.9620 C.3   289  ARG289      0.1694
    112  C        111.2370  235.2960  331.9890 C.2   289  ARG289      0.2592
    113  O        110.0640  235.0640  332.3070 O.2   289  ARG289     -0.2718
    114  CB       112.5480  237.4310  332.3970 C.3   289  ARG289      0.0321
    115  CG       113.5160  238.2340  333.2860 C.3   289  ARG289      0.0489
    116  CD       112.9520  238.4510  334.7150 C.3   289  ARG289      0.2205
    117  NE       111.5680  238.9340  334.6730 N.pl3 289  ARG289     -0.0865
    118  CZ       111.2160  240.2050  334.4590 C.cat 289  ARG289      0.5346
    119  NH1      112.1480  241.1460  334.2870 N.pl3 289  ARG289      0.1354
    120  NH2      109.9280  240.5460  334.4340 N.pl3 289  ARG289      0.1354
    121  N        111.7520  234.9210  330.8130 N.am  290  ASP290     -0.1974
    122  CA       110.9340  234.2240  329.8070 C.3   290  ASP290      0.1709
    123  C        110.4020  232.8570  330.2670 C.2   290  ASP290      0.2293
    124  O        109.2570  232.5040  329.9830 O.2   290  ASP290     -0.2864
    125  CB       111.7000  234.0500  328.4800 C.3   290  ASP290      0.1436
    126  CG       112.0500  235.3820  327.8110 C.2   290  ASP290      0.3671
    127  OD1      111.2960  236.3670  327.9850 O.co2 290  ASP290     -0.2456
    128  OD2      113.0840  235.4450  327.0980 O.co2 290  ASP290     -0.2456
    129  N        109.0550  233.4900  335.0080 N.3   293  ASP293     -0.1239
    130  CA       108.0290  234.4220  335.4800 C.3   293  ASP293      0.1674
    131  C        106.7140  233.6690  335.5480 C.2   293  ASP293      0.2266
    132  O        106.4350  232.8140  334.6900 O.2   293  ASP293     -0.2867
    133  CB       107.8500  235.6150  334.5410 C.3   293  ASP293      0.1410
    134  CG       108.8740  236.7160  334.7630 C.2   293  ASP293      0.3668
    135  OD1      109.7000  236.6210  335.7030 O.co2 293  ASP293     -0.2456
    136  OD2      108.8350  237.6980  333.9890 O.co2 293  ASP293     -0.2456
    137  N        104.7380  234.1590  332.4530 N.3   296  ARG296     -0.1245
    138  CA       105.3720  233.7210  331.2090 C.3   296  ARG296      0.1563
    139  C        105.2670  232.1980  331.0580 C.2   296  ARG296      0.2260
    140  O        104.1930  231.6340  331.2640 O.2   296  ARG296     -0.2867
    141  CB       106.8210  234.2020  331.1330 C.3   296  ARG296      0.0307
    142  CG       106.9930  235.7310  331.1330 C.3   296  ARG296      0.0489
    143  CD       106.2970  236.4320  329.9400 C.3   296  ARG296      0.2205
    144  NE       106.8560  236.0400  328.6400 N.pl3 296  ARG296     -0.0865
    145  CZ       108.0030  236.5040  328.1390 C.cat 296  ARG296      0.5346
    146  NH1      108.7300  237.3750  328.8320 N.pl3 296  ARG296      0.1354
    147  NH2      108.4380  236.0910  326.9450 N.pl3 296  ARG296      0.1354
@<TRIPOS>BOND
     1    62    61    1
     2    46    47    1
     3    61    58    1
     4    47    48    1
     5    47    50    1
     6    10     9    2
     7    57    48   am
     8    57    58    1
     9     9     8    1
    10    48    49    2
    11    50    51    1
    12    19    18    2
    13    16    17    1
    14    58    59    1
    15    60    59    2
    16    42    41    2
    17    59    63   am
    18    41    40    1
    19    18    17    1
    20     8     7    1
    21     8    11    1
    22     1     2    1
    23    51    53   ar
    24    51    52   ar
    25    66    65    2
    26    17    20    1
    27    53    55   ar
    28    63    64    1
    29     7     3   am
    30    35    34    2
    31    39    40    1
    32    20    21    1
    33    64    65    1
    34    34    33    1
    35    32    38    1
    36    32    33    1
    37    11    12    1
    38     3     2    1
    39     3     4    2
    40    65    67   am
    41    40    43    1
    42    79    77   ar
    43    79    80   ar
    44     2     5    1
    45    52    54   ar
    46    77    74   ar
    47    38    37    1
    48    21    22    1
    49    55    56   ar
    50    33    36    1
    51    80    78   ar
    52    43    44    1
    53    43    45    1
    54    67    68    1
    55    12    13    1
    56    71    68    1
    57    71    72    1
    58    22    23    1
    59     5     6    1
    60    54    56   ar
    61    37    36    1
    62    74    72   ar
    63    74    76   ar
    64    68    69    1
    65    14    13    2
    66    72    73   ar
    67    13    15   am
    68    78    76   ar
    69    76    75   ar
    70    23    24    2
    71    89    87   ar
    72    89    91   ar
    73    69    81   am
    74    69    70    2
    75    87    86   ar
    76    92    91    1
    77    81    82    1
    78    73    75   ar
    79    91    90   ar
    80    25    24    1
    81    24    26    1
    82    86    85    1
    83    86    88   ar
    84    85    82    1
    85    82    83    1
    86    90    88   ar
    87    30    29    2
    88    29    28    1
    89    84    83    2
    90    83    93   am
    91   147   145    1
    92    28    31    1
    93    28    27    1
    94   128   126   ar
    95    93    94    1
    96   109   107   ar
    97   108   107   ar
    98   126   127   ar
    99   126   125    1
   100   107   106    1
   101   145   144    2
   102   145   146    1
   103   125   122    1
   104    94    95    1
   105    94    97    1
   106   144   143    1
   107    96    95    2
   108   105   106    1
   109   105   102    1
   110    97    98    1
   111   103   104    2
   112   103   102    1
   113   122   123    1
   114   122   121    1
   115   143   142    1
   116   124   123    2
   117   102   101    1
   118   121   112   am
   119    98    99    1
   120   139   138    1
   121   139   140    2
   122   142   141    1
   123   141   138    1
   124   138   137    1
   125    99   100    1
   126   112   113    2
   127   112   111    1
   128   114   111    1
   129   114   115    1
   130   111   110    1
   131   115   116    1
   132   136   134   ar
   133   119   118    1
   134   120   118    1
   135   118   117    2
   136   133   134    1
   137   133   130    1
   138   117   116    1
   139   132   131    2
   140   134   135   ar
   141   129   130    1
   142   130   131    1
