@<TRIPOS>MOLECULE
tmp/6av3A02.pdb
 178 174 0 0 0
SMALL
GASTEIGER

@<TRIPOS>ATOM
      1  N        123.5980  256.2270  346.2740 N.3    40  MET40      -0.1245
      2  CA       123.3440  255.7110  347.6380 C.3    40  MET40       0.1570
      3  C        123.0620  256.8330  348.6550 C.2    40  MET40       0.2261
      4  O        122.0960  256.7510  349.4160 O.2    40  MET40      -0.2867
      5  CB       124.5130  254.8410  348.0890 C.3    40  MET40       0.0387
      6  CG       124.2990  254.1220  349.4270 C.3    40  MET40       0.0595
      7  SD       124.3380  252.3150  349.3240 S.3    40  MET40      -0.1393
      8  CE       125.8160  252.0210  348.3610 C.3    40  MET40       0.0692
      9  N        113.0110  249.8640  352.4530 N.3   111  CYS111     -0.1235
     10  CA       112.7730  248.6340  353.2120 C.3   111  CYS111      0.1677
     11  C        111.6610  247.7770  352.6280 C.2   111  CYS111      0.2270
     12  O        110.5030  248.1940  352.5690 O.2   111  CYS111     -0.2867
     13  CB       112.4320  248.9470  354.6930 C.3   111  CYS111      0.0956
     14  SG       111.9110  247.5130  355.6630 S.3   111  CYS111     -0.0801
     15  N        126.0400  248.9040  362.6850 N.3   174  GLN174     -0.1245
     16  CA       125.0590  247.9080  363.1190 C.3   174  GLN174      0.1566
     17  C        125.4300  247.3560  364.5250 C.2   174  GLN174      0.2260
     18  O        126.6130  247.2510  364.8730 O.2   174  GLN174     -0.2867
     19  CB       124.9490  246.7590  362.1160 C.3   174  GLN174      0.0367
     20  CG       124.5510  247.1800  360.6620 C.3   174  GLN174      0.0905
     21  CD       125.7180  247.7540  359.8830 C.2   174  GLN174      0.2608
     22  OE1      126.8800  247.4910  360.2050 O.2   174  GLN174     -0.2717
     23  NE2      125.4210  248.5540  358.8640 N.am  174  GLN174     -0.0878
     24  N        128.1140  243.1780  364.3140 N.3   177  ARG177     -0.1245
     25  CA       128.9600  243.0860  363.1110 C.3   177  ARG177      0.1563
     26  C        130.2390  242.3180  363.4330 C.2   177  ARG177      0.2260
     27  O        130.6870  242.3130  364.5870 O.2   177  ARG177     -0.2867
     28  CB       129.3460  244.4720  362.5760 C.3   177  ARG177      0.0307
     29  CG       128.3090  245.1960  361.7450 C.3   177  ARG177      0.0489
     30  CD       127.9360  244.4750  360.4360 C.3   177  ARG177      0.2205
     31  NE       129.0260  244.2430  359.4790 N.pl3 177  ARG177     -0.0865
     32  CZ       129.4010  245.0970  358.5220 C.cat 177  ARG177      0.5346
     33  NH1      128.8110  246.2800  358.3960 N.pl3 177  ARG177      0.1354
     34  NH2      130.3870  244.7760  357.6950 N.pl3 177  ARG177      0.1354
     35  N        135.2990  244.8230  354.8340 N.3   193  ALA193     -0.1245
     36  CA       134.6380  246.1250  354.8420 C.3   193  ALA193      0.1562
     37  C        134.7150  246.8220  356.2060 C.2   193  ALA193      0.2260
     38  O        134.4850  248.0270  356.2980 O.2   193  ALA193     -0.2867
     39  CB       133.1880  245.9790  354.4170 C.3   193  ALA193      0.0290
     40  N        125.3650  236.0260  362.2410 N.3   258  TYR258     -0.1241
     41  CA       124.5640  236.4210  363.3870 C.3   258  TYR258      0.1605
     42  C        123.0890  236.5240  363.0070 C.2   258  TYR258      0.2264
     43  O        122.7560  236.9140  361.8860 O.2   258  TYR258     -0.2867
     44  CB       125.0650  237.7410  363.9570 C.3   258  TYR258      0.0534
     45  CG       125.3660  238.8050  362.9260 C.ar  258  TYR258     -0.0201
     46  CD1      124.3680  239.6440  362.4600 C.ar  258  TYR258     -0.0009
     47  CD2      126.6600  238.9870  362.4380 C.ar  258  TYR258     -0.0009
     48  CE1      124.6380  240.6340  361.5260 C.ar  258  TYR258      0.0417
     49  CE2      126.9420  239.9740  361.5140 C.ar  258  TYR258      0.0417
     50  CZ       125.9260  240.7950  361.0580 C.ar  258  TYR258      0.1957
     51  OH       126.1890  241.7840  360.1250 O.3   258  TYR258     -0.2866
     52  N        119.5510  241.2690  362.4910 N.3   261  PRO261     -0.2102
     53  CA       119.9680  242.4370  361.7160 C.3   261  PRO261      0.1504
     54  C        119.4670  243.7060  362.3850 C.2   261  PRO261      0.2576
     55  O        118.2650  243.8640  362.5610 O.2   261  PRO261     -0.2718
     56  CB       119.3030  242.2180  360.3460 C.3   261  PRO261      0.0282
     57  CG       118.0940  241.3230  360.6280 C.3   261  PRO261      0.0208
     58  CD       118.2230  240.7830  362.0720 C.3   261  PRO261      0.0893
     59  N        120.3820  244.6010  362.7360 N.am  262  ALA262     -0.1966
     60  CA       120.0560  245.7540  363.5590 C.3   262  ALA262      0.1728
     61  C        120.8660  246.9580  363.1230 C.2   262  ALA262      0.2616
     62  O        122.0880  246.9700  363.2550 O.2   262  ALA262     -0.2715
     63  CB       120.3160  245.4370  365.0830 C.3   262  ALA262      0.0334
     64  N        120.1860  247.9800  362.6250 N.am  263  VAL263     -0.1977
     65  CA       120.8620  249.1750  362.1450 C.3   263  VAL263      0.1596
     66  C        120.9240  250.2190  363.2410 C.2   263  VAL263      0.2287
     67  O        119.8990  250.5650  363.8300 O.2   263  VAL263     -0.2864
     68  CB       120.1490  249.7690  360.9060 C.3   263  VAL263      0.0276
     69  CG1      120.5620  251.2180  360.6900 C.3   263  VAL263      0.0022
     70  CG2      120.4370  248.9220  359.6670 C.3   263  VAL263      0.0022
     71  N        117.4270  250.0860  365.4920 N.3   280  PHE280     -0.1227
     72  CA       116.2350  249.2860  365.2360 C.3   280  PHE280      0.1736
     73  C        116.6340  247.9550  364.6240 C.2   280  PHE280      0.2596
     74  O        117.6920  247.8330  364.0110 O.2   280  PHE280     -0.2718
     75  CB       115.2450  250.0400  364.3410 C.3   280  PHE280      0.0547
     76  CG       115.8570  250.5840  363.0710 C.ar  280  PHE280     -0.0202
     77  CD1      115.9660  249.7830  361.9360 C.ar  280  PHE280     -0.0042
     78  CD2      116.3220  251.8890  363.0130 C.ar  280  PHE280     -0.0042
     79  CE1      116.5260  250.2750  360.7630 C.ar  280  PHE280     -0.0003
     80  CE2      116.8920  252.3890  361.8390 C.ar  280  PHE280     -0.0003
     81  CZ       116.9910  251.5830  360.7170 C.ar  280  PHE280     -0.0000
     82  N        115.7940  246.9470  364.7960 N.am  281  SER281     -0.1938
     83  CA       116.1250  245.6210  364.2910 C.3   281  SER281      0.2055
     84  C        114.8760  244.9270  363.7840 C.2   281  SER281      0.2644
     85  O        113.7740  245.2240  364.2550 O.2   281  SER281     -0.2714
     86  CB       116.7830  244.7770  365.3840 C.3   281  SER281      0.2130
     87  OG       115.9160  244.6500  366.5010 O.3   281  SER281     -0.2179
     88  N        115.0500  244.0090  362.8300 N.am  282  GLY282     -0.1939
     89  CA       113.9690  243.1500  362.3720 C.3   282  GLY282      0.2014
     90  C        114.4370  241.7080  362.2870 C.2   282  GLY282      0.2639
     91  O        114.9880  241.1760  363.2480 O.2   282  GLY282     -0.2714
     92  N        114.2100  241.0660  361.1420 N.am  283  TRP283     -0.1959
     93  CA       114.8490  239.7860  360.8560 C.3   283  TRP283      0.1771
     94  C        115.3390  239.7470  359.3840 C.2   283  TRP283      0.2620
     95  O        114.9600  240.5760  358.5680 O.2   283  TRP283     -0.2715
     96  CB       113.9080  238.6240  361.1560 C.3   283  TRP283      0.0590
     97  CG       112.5810  238.7060  360.4630 C.ar  283  TRP283      0.0006
     98  CD1      112.3170  238.4210  359.1510 C.ar  283  TRP283      0.0946
     99  CD2      111.3310  239.0750  361.0520 C.ar  283  TRP283      0.0152
    100  NE1      110.9830  238.6010  358.8880 N.ar  283  TRP283     -0.2442
    101  CE2      110.3540  239.0040  360.0380 C.ar  283  TRP283      0.0810
    102  CE3      110.9430  239.4660  362.3410 C.ar  283  TRP283      0.0012
    103  CZ2      109.0180  239.3090  360.2690 C.ar  283  TRP283      0.0191
    104  CZ3      109.6170  239.7690  362.5700 C.ar  283  TRP283      0.0001
    105  CH2      108.6690  239.6890  361.5380 C.ar  283  TRP283      0.0015
    106  N        116.2070  238.7940  359.0760 N.am  284  TYR284     -0.1960
    107  CA       116.9670  238.8140  357.8370 C.3   284  TYR284      0.1771
    108  C        116.1670  238.2920  356.6520 C.2   284  TYR284      0.2619
    109  O        115.3940  237.3370  356.7800 O.2   284  TYR284     -0.2715
    110  CB       118.2330  237.9700  357.9810 C.3   284  TYR284      0.0574
    111  CG       119.5120  238.7300  358.2360 C.ar  284  TYR284     -0.0198
    112  CD1      120.3500  238.3720  359.2900 C.ar  284  TYR284     -0.0009
    113  CD2      119.9070  239.7730  357.4100 C.ar  284  TYR284     -0.0009
    114  CE1      121.5430  239.0460  359.5250 C.ar  284  TYR284      0.0417
    115  CE2      121.1030  240.4550  357.6320 C.ar  284  TYR284      0.0417
    116  CZ       121.9120  240.0890  358.7040 C.ar  284  TYR284      0.1957
    117  OH       123.0960  240.7590  358.9370 O.3   284  TYR284     -0.2866
    118  N        116.3540  238.9370  355.5040 N.am  285  MET285     -0.1977
    119  CA       116.0560  238.3090  354.2210 C.3   285  MET285      0.1605
    120  C        117.3290  237.5740  353.8420 C.2   285  MET285      0.2287
    121  O        118.4080  238.1560  353.9070 O.2   285  MET285     -0.2864
    122  CB       115.6610  239.3370  353.1640 C.3   285  MET285      0.0413
    123  CG       115.2310  238.7310  351.7970 C.3   285  MET285      0.0598
    124  SD       114.4210  239.9540  350.7380 S.3   285  MET285     -0.1393
    125  CE       115.8470  240.8740  350.1370 C.3   285  MET285      0.0692
    126  N        120.5650  238.9030  351.9520 N.3   288  GLU288     -0.1245
    127  CA       121.3990  239.9100  352.5980 C.3   288  GLU288      0.1567
    128  C        122.7150  239.2720  353.0050 C.2   288  GLU288      0.2260
    129  O        123.7760  239.9010  352.9580 O.2   288  GLU288     -0.2867
    130  CB       120.7120  240.5040  353.8280 C.3   288  GLU288      0.0388
    131  CG       119.5720  241.4590  353.5480 C.3   288  GLU288      0.1160
    132  CD       118.9790  242.0220  354.8430 C.2   288  GLU288      0.3649
    133  OE1      119.5130  243.0390  355.3410 O.co2 288  GLU288     -0.2457
    134  OE2      117.9860  241.4500  355.3510 O.co2 288  GLU288     -0.2457
    135  N        125.1680  239.2760  349.6300 N.3   292  ARG292     -0.1231
    136  CA       125.9500  240.4900  349.8370 C.3   292  ARG292      0.1694
    137  C        127.1000  240.2500  350.8190 C.2   292  ARG292      0.2592
    138  O        128.2650  240.4090  350.4410 O.2   292  ARG292     -0.2718
    139  CB       125.0510  241.6420  350.3040 C.3   292  ARG292      0.0321
    140  CG       123.8210  241.9220  349.3970 C.3   292  ARG292      0.0489
    141  CD       124.2060  242.4000  347.9680 C.3   292  ARG292      0.2205
    142  NE       125.3000  243.3720  348.0080 N.pl3 292  ARG292     -0.0865
    143  CZ       125.1390  244.6550  348.3220 C.cat 292  ARG292      0.5346
    144  NH1      123.9250  245.1280  348.5970 N.pl3 292  ARG292      0.1354
    145  NH2      126.1880  245.4660  348.3680 N.pl3 292  ARG292      0.1354
    146  N        126.7890  239.8490  352.0590 N.am  293  ASP293     -0.1974
    147  CA       127.8300  239.6180  353.0650 C.3   293  ASP293      0.1709
    148  C        128.8340  238.5820  352.5770 C.2   293  ASP293      0.2293
    149  O        130.0450  238.7440  352.7380 O.2   293  ASP293     -0.2864
    150  CB       127.2340  239.1470  354.4130 C.3   293  ASP293      0.1436
    151  CG       126.3350  240.1900  355.0610 C.2   293  ASP293      0.3671
    152  OD1      126.7430  241.3680  355.1490 O.co2 293  ASP293     -0.2456
    153  OD2      125.2090  239.8340  355.4810 O.co2 293  ASP293     -0.2456
    154  N        133.5460  242.0450  350.4530 N.3   299  ARG299     -0.1245
    155  CA       133.1470  241.4120  351.7130 C.3   299  ARG299      0.1563
    156  C        133.8190  240.0490  351.8640 C.2   299  ARG299      0.2260
    157  O        135.0140  239.9300  351.6080 O.2   299  ARG299     -0.2867
    158  CB       131.6320  241.2940  351.7790 C.3   299  ARG299      0.0307
    159  CG       130.9420  242.6270  351.5890 C.3   299  ARG299      0.0489
    160  CD       131.1560  243.5420  352.7870 C.3   299  ARG299      0.2205
    161  NE       130.8370  242.8630  354.0420 N.pl3 299  ARG299     -0.0865
    162  CZ       129.6040  242.5680  354.4440 C.cat 299  ARG299      0.5346
    163  NH1      128.5570  242.8920  353.6950 N.pl3 299  ARG299      0.1354
    164  NH2      129.4180  241.9380  355.5940 N.pl3 299  ARG299      0.1354
    165  N        116.5860  249.4460  345.7290 N.3   374  TRP374     -0.1241
    166  CA       116.8110  248.7390  346.9970 C.3   374  TRP374      0.1605
    167  C        115.8330  247.5990  347.2240 C.2   374  TRP374      0.2264
    168  O        116.2080  246.5690  347.7780 O.2   374  TRP374     -0.2867
    169  CB       116.7410  249.7160  348.1800 C.3   374  TRP374      0.0550
    170  CG       118.0680  250.3220  348.5030 C.ar  374  TRP374      0.0003
    171  CD1      118.8070  251.1440  347.7140 C.ar  374  TRP374      0.0946
    172  CD2      118.8170  250.1420  349.7100 C.ar  374  TRP374      0.0152
    173  NE1      119.9750  251.4850  348.3490 N.ar  374  TRP374     -0.2442
    174  CE2      120.0040  250.8820  349.5780 C.ar  374  TRP374      0.0810
    175  CE3      118.5970  249.4230  350.8880 C.ar  374  TRP374      0.0012
    176  CZ2      120.9680  250.9320  350.5820 C.ar  374  TRP374      0.0191
    177  CZ3      119.5540  249.4700  351.8850 C.ar  374  TRP374      0.0001
    178  CH2      120.7260  250.2160  351.7270 C.ar  374  TRP374      0.0015
@<TRIPOS>BOND
     1   165   166    1
     2     1     2    1
     3   166   167    1
     4   166   169    1
     5   167   168    2
     6     2     5    1
     7     2     3    1
     8   171   173   ar
     9   171   170   ar
    10   141   142    1
    11   141   140    1
    12   142   143    2
    13     5     6    1
    14   169   170    1
    15   143   145    1
    16   143   144    1
    17   173   174   ar
    18     8     7    1
    19   170   172   ar
    20     3     4    2
    21     7     6    1
    22   140   139    1
    23   174   172   ar
    24   174   176   ar
    25   135   136    1
    26   172   175   ar
    27   136   139    1
    28   136   137    1
    29   125   124    1
    30   138   137    2
    31   154   155    1
    32   176   178   ar
    33   124   123    1
    34   137   146   am
    35   175   177   ar
    36   159   158    1
    37   159   160    1
    38   157   156    2
    39   155   158    1
    40   155   156    1
    41   178   177   ar
    42   123   122    1
    43   126   127    1
    44   146   147    1
    45     9    10    1
    46    12    11    2
    47   148   149    2
    48   148   147    1
    49   127   128    1
    50   127   130    1
    51    11    10    1
    52   160   161    1
    53   129   128    2
    54   147   150    1
    55   122   119    1
    56    10    13    1
    57   131   130    1
    58   131   132    1
    59   163   162    1
    60   120   121    2
    61   120   119    1
    62   161   162    2
    63   119   118    1
    64   150   151    1
    65    39    36    1
    66   162   164    1
    67    13    14    1
    68    35    36    1
    69    36    37    1
    70   132   133   ar
    71   132   134   ar
    72   151   152   ar
    73   151   153   ar
    74   118   108   am
    75    37    38    2
    76   108   109    2
    77   108   107    1
    78   113   115   ar
    79   113   111   ar
    80   115   116   ar
    81    34    32    1
    82   107   110    1
    83   107   106    1
    84   110   111    1
    85   111   112   ar
    86    33    32    1
    87    32    31    2
    88    95    94    2
    89   116   117    1
    90   116   114   ar
    91    23    21   am
    92   100    98   ar
    93   100   101   ar
    94   106    94   am
    95    98    97   ar
    96   112   114   ar
    97    94    93    1
    98    31    30    1
    99    70    68    1
   100    21    22    2
   101    21    20    1
   102   101   103   ar
   103   101    99   ar
   104    51    50    1
   105   103   105   ar
   106    56    57    1
   107    56    53    1
   108    30    29    1
   109    97    99   ar
   110    97    96    1
   111    57    58    1
   112    20    19    1
   113    69    68    1
   114    81    79   ar
   115    81    80   ar
   116    79    77   ar
   117    93    92    1
   118    93    96    1
   119    68    65    1
   120    99   102   ar
   121    50    49   ar
   122    50    48   ar
   123    92    90   am
   124    49    47   ar
   125    48    46   ar
   126   105   104   ar
   127    53    54    1
   128    53    52    1
   129    29    28    1
   130    80    78   ar
   131    43    42    2
   132    77    76   ar
   133    58    52    1
   134    19    16    1
   135    65    64    1
   136    65    66    1
   137    40    41    1
   138    90    89    1
   139    90    91    2
   140   102   104   ar
   141    89    88    1
   142    54    55    2
   143    54    59   am
   144    47    45   ar
   145    46    45   ar
   146    28    25    1
   147    64    61   am
   148    15    16    1
   149    59    60    1
   150    88    84   am
   151    45    44    1
   152    42    41    1
   153    78    76   ar
   154    76    75    1
   155    25    26    1
   156    25    24    1
   157    16    17    1
   158    61    62    2
   159    61    60    1
   160    66    67    2
   161    41    44    1
   162    26    27    2
   163    60    63    1
   164    84    85    2
   165    84    83    1
   166    74    73    2
   167    83    82    1
   168    83    86    1
   169    75    72    1
   170    17    18    2
   171    73    82   am
   172    73    72    1
   173    72    71    1
   174    86    87    1
