@<TRIPOS>MOLECULE
tmp/6av6D03.pdb
 183 179 0 0 0
SMALL
GASTEIGER

@<TRIPOS>ATOM
      1  N        105.3460  -25.1280 -218.6760 N.3    38  VAL38      -0.1231
      2  CA       105.5380  -23.7750 -219.1830 C.3    38  VAL38       0.1692
      3  C        105.3870  -23.7390 -220.7060 C.2    38  VAL38       0.2592
      4  O        104.8050  -22.7940 -221.2570 O.2    38  VAL38      -0.2718
      5  CB       106.9130  -23.2000 -218.7810 C.3    38  VAL38       0.0266
      6  CG1      107.2250  -21.9610 -219.5900 C.3    38  VAL38       0.0020
      7  CG2      106.9420  -22.8660 -217.2950 C.3    38  VAL38       0.0020
      8  N        105.9180  -24.7680 -221.3650 N.am   39  PHE39      -0.1976
      9  CA       105.7380  -24.9780 -222.8040 C.3    39  PHE39       0.1639
     10  C        105.0450  -26.2930 -223.0790 C.2    39  PHE39       0.2290
     11  O        105.6670  -27.3490 -222.9910 O.2    39  PHE39      -0.2864
     12  CB       107.0770  -24.9630 -223.5340 C.3    39  PHE39       0.0560
     13  CG       107.8250  -23.6990 -223.3580 C.ar   39  PHE39      -0.0200
     14  CD1      107.4000  -22.5410 -223.9900 C.ar   39  PHE39      -0.0042
     15  CD2      108.9390  -23.6490 -222.5460 C.ar   39  PHE39      -0.0042
     16  CE1      108.0770  -21.3530 -223.8140 C.ar   39  PHE39      -0.0003
     17  CE2      109.6250  -22.4560 -222.3690 C.ar   39  PHE39      -0.0003
     18  CZ       109.1920  -21.3110 -223.0030 C.ar   39  PHE39      -0.0000
     19  N         97.4890  -13.8640 -219.3390 N.3   106  CYS106     -0.1235
     20  CA        97.6120  -12.4060 -219.0980 C.3   106  CYS106      0.1677
     21  C         96.5390  -11.8770 -218.1640 C.2   106  CYS106      0.2270
     22  O         95.3470  -11.8850 -218.4910 O.2   106  CYS106     -0.2867
     23  CB        97.5640  -11.5810 -220.4100 C.3   106  CYS106      0.0956
     24  SG        97.8300   -9.7470 -220.1660 S.3   106  CYS106     -0.0801
     25  N        112.7650   -9.3650 -225.1270 N.3   169  GLN169     -0.1245
     26  CA       112.0840   -8.1210 -224.8450 C.3   169  GLN169      0.1566
     27  C        112.8640   -6.9800 -225.4670 C.2   169  GLN169      0.2260
     28  O        114.0800   -7.0870 -225.6650 O.2   169  GLN169     -0.2867
     29  CB       111.9260   -7.8810 -223.3270 C.3   169  GLN169      0.0367
     30  CG       111.0520   -8.8930 -222.5930 C.3   169  GLN169      0.0905
     31  CD       110.6990   -8.4530 -221.1640 C.2   169  GLN169      0.2608
     32  OE1      110.8840   -7.2960 -220.7930 O.2   169  GLN169     -0.2717
     33  NE2      110.1780   -9.3790 -220.3720 N.am  169  GLN169     -0.0878
     34  N        116.2070   -5.0890 -222.1120 N.3   172  ARG172     -0.1245
     35  CA       116.7310   -6.1810 -221.2860 C.3   172  ARG172      0.1563
     36  C        118.0690   -5.8010 -220.7120 C.2   172  ARG172      0.2260
     37  O        118.8750   -5.1590 -221.3830 O.2   172  ARG172     -0.2867
     38  CB       116.9070   -7.4770 -222.0840 C.3   172  ARG172      0.0307
     39  CG       115.6300   -8.1770 -222.4790 C.3   172  ARG172      0.0489
     40  CD       115.2430   -9.2200 -221.4620 C.3   172  ARG172      0.2205
     41  NE       114.5090   -8.6220 -220.3600 N.pl3 172  ARG172     -0.0865
     42  CZ       113.8910   -9.3250 -219.4200 C.cat 172  ARG172      0.5346
     43  NH1      113.9320  -10.6470 -219.4650 N.pl3 172  ARG172      0.1354
     44  NH2      113.2420   -8.7070 -218.4350 N.pl3 172  ARG172      0.1354
     45  N        107.7530   -2.9470 -220.2820 N.3   256  PRO256     -0.2116
     46  CA       107.7430   -4.3890 -220.5430 C.3   256  PRO256      0.1372
     47  C        107.2880   -4.6590 -221.9790 C.2   256  PRO256      0.2244
     48  O        106.1060   -4.5310 -222.2870 O.2   256  PRO256     -0.2868
     49  CB       106.7290   -4.9260 -219.5380 C.3   256  PRO256      0.0268
     50  CG       105.7700   -3.7760 -219.3420 C.3   256  PRO256      0.0207
     51  CD       106.5000   -2.4890 -219.6640 C.3   256  PRO256      0.0892
     52  N        107.4160   -7.4170 -224.8620 N.3   258  VAL258     -0.1245
     53  CA       107.7220   -8.7650 -225.2900 C.3   258  VAL258      0.1561
     54  C        107.8500   -8.7970 -226.8200 C.2   258  VAL258      0.2260
     55  O        106.9330   -8.3780 -227.5280 O.2   258  VAL258     -0.2867
     56  CB       106.6510   -9.7540 -224.8090 C.3   258  VAL258      0.0252
     57  CG1      106.8530  -11.1320 -225.4580 C.3   258  VAL258      0.0019
     58  CG2      106.6740   -9.8620 -223.2460 C.3   258  VAL258      0.0019
     59  N        109.5050  -11.6190 -228.7220 N.3   260  ASN260     -0.1225
     60  CA       109.8680  -12.9040 -229.3360 C.3   260  ASN260      0.1785
     61  C        108.6930  -13.8420 -229.6040 C.2   260  ASN260      0.2597
     62  O        108.8920  -14.9990 -229.9830 O.2   260  ASN260     -0.2718
     63  CB       110.9140  -13.6270 -228.4670 C.3   260  ASN260      0.1169
     64  CG       110.3760  -14.0370 -227.0930 C.2   260  ASN260      0.2627
     65  OD1      109.2890  -13.6350 -226.6900 O.2   260  ASN260     -0.2716
     66  ND2      111.1580  -14.8240 -226.3630 N.am  260  ASN260     -0.0877
     67  N        107.4690  -13.3680 -229.4080 N.am  261  MET261     -0.1979
     68  CA       106.3160  -14.2120 -229.7070 C.3   261  MET261      0.1605
     69  C        105.7640  -14.0190 -231.1290 C.2   261  MET261      0.2287
     70  O        105.9980  -12.9920 -231.7690 O.2   261  MET261     -0.2864
     71  CB       105.2040  -13.9680 -228.6960 C.3   261  MET261      0.0413
     72  CG       105.6350  -14.3280 -227.2190 C.3   261  MET261      0.0598
     73  SD       104.1960  -14.3810 -226.1370 S.3   261  MET261     -0.1393
     74  CE       103.5470  -16.0110 -226.5450 C.3   261  MET261      0.0692
     75  N        104.8410   -6.3760 -228.5940 N.3   275  PHE275     -0.1227
     76  CA       103.7500   -5.7030 -227.9090 C.3   275  PHE275      0.1736
     77  C        104.1920   -5.2910 -226.5110 C.2   275  PHE275      0.2596
     78  O        105.0980   -5.8930 -225.9320 O.2   275  PHE275     -0.2718
     79  CB       102.5200   -6.6000 -227.8100 C.3   275  PHE275      0.0547
     80  CG       102.7950   -7.9690 -227.1830 C.ar  275  PHE275     -0.0202
     81  CD1      102.8000   -8.1280 -225.8040 C.ar  275  PHE275     -0.0042
     82  CD2      103.0320   -9.0830 -227.9860 C.ar  275  PHE275     -0.0042
     83  CE1      103.0520   -9.3890 -225.2190 C.ar  275  PHE275     -0.0003
     84  CE2      103.2760  -10.3330 -227.4410 C.ar  275  PHE275     -0.0003
     85  CZ       103.2830  -10.4920 -226.0330 C.ar  275  PHE275     -0.0000
     86  N        103.5240   -4.2970 -225.9460 N.am  276  SER276     -0.1938
     87  CA       103.9080   -3.8240 -224.6190 C.3   276  SER276      0.2055
     88  C        102.7310   -3.1840 -223.8780 C.2   276  SER276      0.2644
     89  O        101.8140   -2.6290 -224.5020 O.2   276  SER276     -0.2714
     90  CB       105.0680   -2.8340 -224.7460 C.3   276  SER276      0.2130
     91  OG       104.6730   -1.7210 -225.5230 O.3   276  SER276     -0.2179
     92  N        102.7430   -3.2980 -222.5540 N.am  277  GLY277     -0.1939
     93  CA       101.8130   -2.5600 -221.7060 C.3   277  GLY277      0.2014
     94  C        102.5530   -1.8370 -220.5830 C.2   277  GLY277      0.2639
     95  O        103.5180   -1.1190 -220.8340 O.2   277  GLY277     -0.2714
     96  N        102.1060   -2.0360 -219.3410 N.am  278  TRP278     -0.1959
     97  CA       102.8470   -1.5520 -218.1730 C.3   278  TRP278      0.1771
     98  C        103.0070   -2.6990 -217.1470 C.2   278  TRP278      0.2620
     99  O        102.3160   -3.7170 -217.2040 O.2   278  TRP278     -0.2715
    100  CB       102.1540   -0.3420 -217.5450 C.3   278  TRP278      0.0590
    101  CG       100.7010   -0.5590 -217.2660 C.ar  278  TRP278      0.0006
    102  CD1      100.1590   -1.2370 -216.2150 C.ar  278  TRP278      0.0946
    103  CD2       99.5990   -0.1120 -218.0650 C.ar  278  TRP278      0.0152
    104  NE1       98.7880   -1.2300 -216.2980 N.ar  278  TRP278     -0.2442
    105  CE2       98.4170   -0.5420 -217.4290 C.ar  278  TRP278      0.0810
    106  CE3       99.4970    0.6030 -219.2630 C.ar  278  TRP278      0.0012
    107  CZ2       97.1480   -0.2810 -217.9450 C.ar  278  TRP278      0.0191
    108  CZ3       98.2410    0.8690 -219.7710 C.ar  278  TRP278      0.0001
    109  CH2       97.0810    0.4360 -219.1080 C.ar  278  TRP278      0.0015
    110  N        103.9290   -2.5290 -216.2150 N.am  279  TYR279     -0.1960
    111  CA       104.2530   -3.6120 -215.2940 C.3   279  TYR279      0.1771
    112  C        103.2280   -3.8080 -214.1970 C.2   279  TYR279      0.2619
    113  O        102.6050   -2.8540 -213.7420 O.2   279  TYR279     -0.2715
    114  CB       105.6040   -3.3660 -214.6470 C.3   279  TYR279      0.0574
    115  CG       106.7440   -4.0980 -215.3030 C.ar  279  TYR279     -0.0198
    116  CD1      106.8080   -5.5020 -215.2940 C.ar  279  TYR279     -0.0009
    117  CD2      107.7890   -3.3950 -215.8810 C.ar  279  TYR279     -0.0009
    118  CE1      107.8550   -6.1670 -215.8990 C.ar  279  TYR279      0.0417
    119  CE2      108.8500   -4.0580 -216.4710 C.ar  279  TYR279      0.0417
    120  CZ       108.8730   -5.4420 -216.4790 C.ar  279  TYR279      0.1957
    121  OH       109.9410   -6.0660 -217.0620 O.3   279  TYR279     -0.2866
    122  N        103.0540   -5.0630 -213.7810 N.am  280  MET280     -0.1977
    123  CA       102.5080   -5.3570 -212.4600 C.3   280  MET280      0.1605
    124  C        103.6950   -5.5070 -211.4910 C.2   280  MET280      0.2287
    125  O        104.6800   -6.1540 -211.8210 O.2   280  MET280     -0.2864
    126  CB       101.6360   -6.6090 -212.4710 C.3   280  MET280      0.0413
    127  CG       101.3010   -7.1280 -211.0480 C.3   280  MET280      0.0598
    128  SD        99.9780   -8.3510 -211.1320 S.3   280  MET280     -0.1393
    129  CE       100.9200   -9.8830 -211.2420 C.3   280  MET280      0.0692
    130  N        106.0460   -8.4830 -210.7980 N.3   283  GLU283     -0.1245
    131  CA       106.9330   -8.9700 -211.8620 C.3   283  GLU283      0.1567
    132  C        108.3630   -8.5040 -211.6150 C.2   283  GLU283      0.2260
    133  O        109.3270   -9.2360 -211.8050 O.2   283  GLU283     -0.2867
    134  CB       106.4700   -8.4920 -213.2410 C.3   283  GLU283      0.0388
    135  CG       105.1380   -9.0360 -213.6870 C.3   283  GLU283      0.1160
    136  CD       104.7070   -8.4570 -215.0380 C.2   283  GLU283      0.3649
    137  OE1      105.1830   -8.9520 -216.0880 O.co2 283  GLU283     -0.2457
    138  OE2      103.9090   -7.5000 -215.0340 O.co2 283  GLU283     -0.2457
    139  N        111.6160  -10.8120 -210.7790 N.3   288  ASN288     -0.1240
    140  CA       112.8910  -10.4050 -211.3650 C.3   288  ASN288      0.1653
    141  C        113.9740  -10.1140 -210.3150 C.2   288  ASN288      0.2266
    142  O        115.1550  -10.3280 -210.5750 O.2   288  ASN288     -0.2867
    143  CB       112.7070   -9.1820 -212.2830 C.3   288  ASN288      0.1155
    144  CG       111.8330   -9.4780 -213.5030 C.2   288  ASN288      0.2627
    145  OD1      111.6480  -10.6370 -213.8770 O.2   288  ASN288     -0.2716
    146  ND2      111.2960   -8.4230 -214.1280 N.am  288  ASN288     -0.0877
    147  N        117.4810  -15.3790 -210.7190 N.3   294  ARG294     -0.1245
    148  CA       117.5420  -14.0390 -211.3020 C.3   294  ARG294      0.1563
    149  C        118.4780  -13.1830 -210.4400 C.2   294  ARG294      0.2260
    150  O        119.5600  -13.6480 -210.0850 O.2   294  ARG294     -0.2867
    151  CB       116.1450  -13.4260 -211.4220 C.3   294  ARG294      0.0307
    152  CG       115.1910  -14.2260 -212.2970 C.3   294  ARG294      0.0489
    153  CD       115.5680  -14.1690 -213.7880 C.3   294  ARG294      0.2205
    154  NE       115.4870  -12.8140 -214.3520 N.pl3 294  ARG294     -0.0865
    155  CZ       114.3540  -12.1820 -214.6740 C.cat 294  ARG294      0.5346
    156  NH1      113.1740  -12.7630 -214.4890 N.pl3 294  ARG294      0.1354
    157  NH2      114.3970  -10.9560 -215.1950 N.pl3 294  ARG294      0.1354
    158  N         99.1900  -18.8320 -213.7650 N.3   369  TRP369     -0.1241
    159  CA        99.8660  -17.6180 -214.2030 C.3   369  TRP369      0.1605
    160  C         99.0650  -16.3850 -213.8050 C.2   369  TRP369      0.2264
    161  O         99.6290  -15.3060 -213.6330 O.2   369  TRP369     -0.2867
    162  CB       100.1030  -17.6370 -215.7350 C.3   369  TRP369      0.0550
    163  CG       101.3120  -18.4650 -216.1720 C.ar  369  TRP369      0.0003
    164  CD1      101.4650  -19.8220 -216.0700 C.ar  369  TRP369      0.0946
    165  CD2      102.5330  -17.9680 -216.7490 C.ar  369  TRP369      0.0152
    166  NE1      102.7030  -20.1960 -216.5460 N.ar  369  TRP369     -0.2442
    167  CE2      103.3650  -19.0810 -216.9830 C.ar  369  TRP369      0.0810
    168  CE3      102.9850  -16.6950 -217.1060 C.ar  369  TRP369      0.0012
    169  CZ2      104.6400  -18.9530 -217.5520 C.ar  369  TRP369      0.0191
    170  CZ3      104.2450  -16.5720 -217.6810 C.ar  369  TRP369      0.0001
    171  CH2      105.0580  -17.6980 -217.8960 C.ar  369  TRP369      0.0015
    172  N        104.2280  -18.9480 -228.7120 N.3   397  TYR397     -0.1241
    173  CA       105.6650  -19.1680 -228.5990 C.3   397  TYR397      0.1605
    174  C        106.1810  -19.7580 -229.8840 C.2   397  TYR397      0.2264
    175  O        105.4390  -20.4570 -230.5710 O.2   397  TYR397     -0.2867
    176  CB       106.0040  -20.1270 -227.4450 C.3   397  TYR397      0.0534
    177  CG       105.4980  -19.6720 -226.1020 C.ar  397  TYR397     -0.0201
    178  CD1      105.8420  -18.4220 -225.5900 C.ar  397  TYR397     -0.0009
    179  CD2      104.6880  -20.4960 -225.3380 C.ar  397  TYR397     -0.0009
    180  CE1      105.3750  -18.0040 -224.3550 C.ar  397  TYR397      0.0417
    181  CE2      104.2200  -20.0920 -224.1060 C.ar  397  TYR397      0.0417
    182  CZ       104.5640  -18.8500 -223.6190 C.ar  397  TYR397      0.1957
    183  OH       104.0910  -18.4690 -222.3870 O.3   397  TYR397     -0.2866
@<TRIPOS>BOND
     1    70    69    2
     2    69    68    1
     3   175   174    2
     4    62    61    2
     5   174   173    1
     6    68    67    1
     7    68    71    1
     8    61    67   am
     9    61    60    1
    10    60    59    1
    11    60    63    1
    12   172   173    1
    13    71    72    1
    14   173   176    1
    15    75    76    1
    16    63    64    1
    17    82    84   ar
    18    82    80   ar
    19    76    79    1
    20    76    77    1
    21    79    80    1
    22    55    54    2
    23   176   177    1
    24    84    85   ar
    25    72    73    1
    26    80    81   ar
    27    64    65    2
    28    64    66   am
    29    54    53    1
    30    74    73    1
    31    77    86   am
    32    77    78    2
    33   177   178   ar
    34   177   179   ar
    35    85    83   ar
    36    86    87    1
    37    81    83   ar
    38    28    27    2
    39   178   180   ar
    40    91    90    1
    41    27    26    1
    42    57    56    1
    43   179   181   ar
    44    53    52    1
    45    53    56    1
    46    25    26    1
    47    26    29    1
    48    56    58    1
    49    90    87    1
    50    87    88    1
    51    89    88    2
    52   180   182   ar
    53   181   182   ar
    54    14    16   ar
    55    14    13   ar
    56    88    92   am
    57    16    18   ar
    58   182   183    1
    59    12    13    1
    60    12     9    1
    61    13    15   ar
    62    29    30    1
    63    10    11    2
    64    10     9    1
    65    18    17   ar
    66     9     8    1
    67    30    31    1
    68    92    93    1
    69    15    17   ar
    70    39    38    1
    71    39    40    1
    72    48    47    2
    73    34    35    1
    74    38    35    1
    75    47    46    1
    76    93    94    1
    77    40    41    1
    78    37    36    2
    79     8     3   am
    80    35    36    1
    81     4     3    2
    82    31    32    2
    83    31    33   am
    84    95    94    2
    85     3     2    1
    86    94    96   am
    87    46    45    1
    88    46    49    1
    89    23    24    1
    90    23    20    1
    91    41    42    2
    92    45    51    1
    93   108   106   ar
    94   108   109   ar
    95    51    50    1
    96     6     5    1
    97    49    50    1
    98    43    42    1
    99    42    44    1
   100    96    97    1
   101    19    20    1
   102   106   103   ar
   103     2     5    1
   104     2     1    1
   105   109   107   ar
   106    20    21    1
   107     5     7    1
   108    22    21    2
   109    97   100    1
   110    97    98    1
   111   103   105   ar
   112   103   101   ar
   113   107   105   ar
   114   171   170   ar
   115   171   169   ar
   116   170   168   ar
   117   169   167   ar
   118   100   101    1
   119   105   104   ar
   120   101   102   ar
   121    99    98    2
   122    98   110   am
   123   168   165   ar
   124   121   120    1
   125   167   165   ar
   126   167   166   ar
   127   165   163   ar
   128   166   164   ar
   129   120   119   ar
   130   120   118   ar
   131   119   117   ar
   132   104   102   ar
   133   110   111    1
   134   163   164   ar
   135   163   162    1
   136   137   136   ar
   137   118   116   ar
   138   117   115   ar
   139   162   159    1
   140   115   116   ar
   141   115   114    1
   142   111   114    1
   143   111   112    1
   144   157   155    1
   145   136   138   ar
   146   136   135    1
   147   155   156    1
   148   155   154    2
   149   154   153    1
   150   159   160    1
   151   159   158    1
   152   112   122   am
   153   112   113    2
   154   146   144   am
   155   145   144    2
   156   160   161    2
   157   153   152    1
   158   122   123    1
   159   135   134    1
   160   144   143    1
   161   134   131    1
   162   126   123    1
   163   126   127    1
   164   123   124    1
   165   152   151    1
   166   143   140    1
   167   131   132    1
   168   131   130    1
   169   125   124    2
   170   133   132    2
   171   151   148    1
   172   140   139    1
   173   140   141    1
   174   148   147    1
   175   148   149    1
   176   129   128    1
   177   128   127    1
   178   142   141    2
   179   149   150    2
