@<TRIPOS>MOLECULE
tmp/6avhC00.pdb
 180 172 0 0 0
SMALL
GASTEIGER

@<TRIPOS>ATOM
      1  N        -36.7990   39.5290   19.2430 N.3    95  SER95      -0.1202
      2  CA       -35.9100   38.8030   20.1320 C.3    95  SER95       0.2020
      3  C        -36.5040   37.4810   20.6550 C.2    95  SER95       0.2619
      4  O        -37.7100   37.2100   20.5650 O.2    95  SER95      -0.2717
      5  CB       -35.5360   39.7390   21.2950 C.3    95  SER95       0.2103
      6  OG       -34.6900   39.1340   22.2750 O.3    95  SER95      -0.2182
      7  N        -35.5970   36.6450   21.1880 N.am   96  SER96      -0.1951
      8  CA       -35.9460   35.4020   21.8770 C.3    96  SER96       0.1924
      9  C        -36.6600   35.6900   23.1820 C.2    96  SER96       0.2314
     10  O        -37.7640   35.1930   23.4180 O.2    96  SER96      -0.2863
     11  CB       -34.6840   34.5850   22.1720 C.3    96  SER96       0.2116
     12  OG       -34.0460   35.0830   23.3530 O.3    96  SER96      -0.2180
     13  N        -32.3590   38.9560   13.7930 N.3   160  MET160     -0.1245
     14  CA       -30.9090   38.9540   13.6260 C.3   160  MET160      0.1570
     15  C        -30.4740   38.1750   12.3950 C.2   160  MET160      0.2261
     16  O        -29.5910   38.6270   11.6550 O.2   160  MET160     -0.2867
     17  CB       -30.2380   38.3930   14.8750 C.3   160  MET160      0.0387
     18  CG       -28.7540   38.3910   14.7960 C.3   160  MET160      0.0595
     19  SD       -28.1120   40.0610   14.5760 S.3   160  MET160     -0.1393
     20  CE       -26.6470   39.7900   13.5480 C.3   160  MET160      0.0692
     21  N        -29.1690   26.7900   15.7040 N.3   208  PHE208     -0.1241
     22  CA       -29.4100   26.0420   16.9250 C.3   208  PHE208      0.1605
     23  C        -29.7350   24.5920   16.6140 C.2   208  PHE208      0.2264
     24  O        -30.3000   24.2880   15.5560 O.2   208  PHE208     -0.2867
     25  CB       -30.5310   26.6470   17.7300 C.3   208  PHE208      0.0534
     26  CG       -30.2510   28.0300   18.1940 C.ar  208  PHE208     -0.0203
     27  CD1      -29.5160   28.2460   19.3320 C.ar  208  PHE208     -0.0042
     28  CD2      -30.7030   29.1190   17.4710 C.ar  208  PHE208     -0.0042
     29  CE1      -29.2410   29.5220   19.7410 C.ar  208  PHE208     -0.0003
     30  CE2      -30.4350   30.3900   17.8730 C.ar  208  PHE208     -0.0003
     31  CZ       -29.7030   30.6030   19.0230 C.ar  208  PHE208     -0.0000
     32  N        -25.5220   25.1330   17.7660 N.3   289  ILE289     -0.1245
     33  CA       -25.4340   25.4420   19.1840 C.3   289  ILE289      0.1561
     34  C        -26.1020   24.3140   19.9680 C.2   289  ILE289      0.2260
     35  O        -27.2890   24.0090   19.7730 O.2   289  ILE289     -0.2867
     36  CB       -26.0820   26.7980   19.4860 C.3   289  ILE289      0.0252
     37  CG1      -25.1290   27.9380   19.1580 C.3   289  ILE289      0.0019
     38  CG2      -26.5320   26.8710   20.9370 C.3   289  ILE289      0.0019
     39  CD1      -25.8280   29.1710   18.6920 C.3   289  ILE289      0.0001
     40  N        -25.3260   24.2360   23.5440 N.3   291  THR291     -0.1203
     41  CA       -25.2120   24.6610   24.9250 C.3   291  THR291      0.1994
     42  C        -26.5510   25.1410   25.4330 C.2   291  THR291      0.2618
     43  O        -27.4800   25.3460   24.6560 O.2   291  THR291     -0.2717
     44  CB       -24.1680   25.7440   25.0450 C.3   291  THR291      0.1784
     45  OG1      -24.2440   26.5900   23.9000 O.3   291  THR291     -0.2211
     46  CG2      -22.7970   25.1030   25.0610 C.3   291  THR291      0.0376
     47  N        -26.6440   25.3160   26.7550 N.am  292  GLY292     -0.1942
     48  CA       -27.9110   25.7270   27.3420 C.3   292  GLY292      0.2014
     49  C        -28.9680   24.6580   27.1620 C.2   292  GLY292      0.2640
     50  O        -28.6910   23.4670   27.2250 O.2   292  GLY292     -0.2714
     51  N        -30.2070   25.0720   26.9420 N.am  293  THR293     -0.1936
     52  CA       -31.2750   24.0910   26.7490 C.3   293  THR293      0.2028
     53  C        -31.0840   23.2490   25.5080 C.2   293  THR293      0.2642
     54  O        -31.6810   22.1740   25.4210 O.2   293  THR293     -0.2714
     55  CB       -32.6630   24.7430   26.6410 C.3   293  THR293      0.1808
     56  OG1      -32.5980   25.9610   25.8670 O.3   293  THR293     -0.2208
     57  CG2      -33.2230   24.9840   28.0360 C.3   293  THR293      0.0379
     58  N        -30.2950   23.7160   24.5370 N.am  294  MET294     -0.1976
     59  CA       -30.0300   22.9300   23.3310 C.3   294  MET294      0.1605
     60  C        -29.2800   21.6270   23.6110 C.2   294  MET294      0.2287
     61  O        -29.2590   20.7480   22.7550 O.2   294  MET294     -0.2864
     62  CB       -29.2850   23.7980   22.3050 C.3   294  MET294      0.0413
     63  CG       -30.0030   25.1150   22.0060 C.3   294  MET294      0.0598
     64  SD       -31.2050   24.9150   20.6640 S.3   294  MET294     -0.1393
     65  CE       -32.4530   26.0860   21.0190 C.3   294  MET294      0.0692
     66  N        -20.6550   29.9930   18.6050 N.3   314  PHE314     -0.1227
     67  CA       -20.9600   31.3710   18.9790 C.3   314  PHE314      0.1736
     68  C        -21.9730   31.4660   20.1090 C.2   314  PHE314      0.2595
     69  O        -22.9110   30.6800   20.1590 O.2   314  PHE314     -0.2718
     70  CB       -21.5060   32.0950   17.8110 C.3   314  PHE314      0.0547
     71  CG       -20.5370   32.2290   16.6930 C.ar  314  PHE314     -0.0202
     72  CD1      -19.3690   32.9480   16.8610 C.ar  314  PHE314     -0.0042
     73  CD2      -20.7960   31.6440   15.4640 C.ar  314  PHE314     -0.0042
     74  CE1      -18.4520   33.0760   15.8210 C.ar  314  PHE314     -0.0003
     75  CE2      -19.9140   31.7750   14.4200 C.ar  314  PHE314     -0.0003
     76  CZ       -18.7260   32.4990   14.5950 C.ar  314  PHE314     -0.0000
     77  N        -21.7660   32.4150   21.0290 N.am  315  TYR315     -0.1962
     78  CA       -22.7780   32.8680   21.9840 C.3   315  TYR315      0.1771
     79  C        -23.0760   34.3510   21.7350 C.2   315  TYR315      0.2620
     80  O        -22.1720   35.1940   21.8070 O.2   315  TYR315     -0.2715
     81  CB       -22.3350   32.6320   23.4300 C.3   315  TYR315      0.0574
     82  CG       -23.1410   33.4370   24.4580 C.ar  315  TYR315     -0.0198
     83  CD1      -24.5370   33.3780   24.5070 C.ar  315  TYR315     -0.0009
     84  CD2      -22.4930   34.2200   25.4100 C.ar  315  TYR315     -0.0009
     85  CE1      -25.2150   34.0750   25.4330 C.ar  315  TYR315      0.0417
     86  CE2      -23.1850   34.9240   26.3520 C.ar  315  TYR315      0.0417
     87  CZ       -24.5320   34.8540   26.3760 C.ar  315  TYR315      0.1957
     88  OH       -25.2120   35.6120   27.3150 O.3   315  TYR315     -0.2866
     89  N        -24.3410   34.6590   21.4240 N.am  316  GLY316     -0.1940
     90  CA       -24.7640   35.9960   21.0440 C.3   316  GLY316      0.2014
     91  C        -26.2530   36.1940   21.2300 C.2   316  GLY316      0.2640
     92  O        -27.0160   35.2570   21.4550 O.2   316  GLY316     -0.2714
     93  N        -26.6480   37.4480   21.2030 N.am  317  SER317     -0.1935
     94  CA       -28.0460   37.8290   21.3190 C.3   317  SER317      0.2055
     95  C        -28.2250   39.1090   20.5060 C.2   317  SER317      0.2644
     96  O        -27.2520   39.7490   20.1170 O.2   317  SER317     -0.2714
     97  CB       -28.4650   38.0200   22.7860 C.3   317  SER317      0.2130
     98  OG       -27.5550   38.8810   23.4480 O.3   317  SER317     -0.2179
     99  N        -29.4780   39.4710   20.2080 N.am  318  SER318     -0.1935
    100  CA       -29.7170   40.7130   19.4720 C.3   318  SER318      0.2055
    101  C        -28.9550   41.8650   20.0960 C.2   318  SER318      0.2642
    102  O        -28.3500   42.6720   19.4010 O.2   318  SER318     -0.2714
    103  CB       -31.2100   41.0410   19.4310 C.3   318  SER318      0.2130
    104  OG       -31.9490   39.9740   18.8790 O.3   318  SER318     -0.2179
    105  N        -28.9100   41.9000   21.4140 N.am  319  GLU319     -0.1976
    106  CA       -28.3050   43.0070   22.1240 C.3   319  GLU319      0.1602
    107  C        -26.8160   43.0720   21.8780 C.2   319  GLU319      0.2287
    108  O        -26.2740   44.1380   21.5940 O.2   319  GLU319     -0.2864
    109  CB       -28.6490   42.8590   23.6020 C.3   319  GLU319      0.0415
    110  CG       -30.2010   42.8560   23.8190 C.3   319  GLU319      0.1163
    111  CD       -30.7890   41.5110   24.2150 C.2   319  GLU319      0.3649
    112  OE1      -30.5900   40.5160   23.4660 O.co2 319  GLU319     -0.2457
    113  OE2      -31.4830   41.4550   25.2570 O.co2 319  GLU319     -0.2457
    114  N        -17.4670   29.6870   26.1480 N.3   337  TYR337     -0.1241
    115  CA       -17.3750   30.7980   25.2110 C.3   337  TYR337      0.1605
    116  C        -16.4550   31.8810   25.7700 C.2   337  TYR337      0.2264
    117  O        -16.5370   32.2240   26.9570 O.2   337  TYR337     -0.2867
    118  CB       -18.7700   31.3390   24.9140 C.3   337  TYR337      0.0534
    119  CG       -19.7000   30.2750   24.3210 C.ar  337  TYR337     -0.0201
    120  CD1      -19.6790   30.0030   22.9830 C.ar  337  TYR337     -0.0009
    121  CD2      -20.5570   29.5200   25.1310 C.ar  337  TYR337     -0.0009
    122  CE1      -20.5060   29.0540   22.4540 C.ar  337  TYR337      0.0417
    123  CE2      -21.3700   28.5780   24.6310 C.ar  337  TYR337      0.0417
    124  CZ       -21.3580   28.3380   23.2800 C.ar  337  TYR337      0.1957
    125  OH       -22.1870   27.3880   22.6810 O.3   337  TYR337     -0.2866
    126  N        -28.6470   41.1160   30.1290 N.3   380  VAL380     -0.1245
    127  CA       -29.0450   40.4090   28.9220 C.3   380  VAL380      0.1561
    128  C        -30.0450   39.3020   29.2290 C.2   380  VAL380      0.2260
    129  O        -30.8720   38.9720   28.3720 O.2   380  VAL380     -0.2867
    130  CB       -27.8120   39.8770   28.1590 C.3   380  VAL380      0.0252
    131  CG1      -27.3800   38.5170   28.6830 C.3   380  VAL380      0.0019
    132  CG2      -28.1000   39.8280   26.6670 C.3   380  VAL380      0.0019
    133  N        -29.2500   36.0810   30.6690 N.3   382  ASP382     -0.1239
    134  CA       -28.6610   34.7560   30.7560 C.3   382  ASP382      0.1674
    135  C        -27.7410   34.6630   31.9650 C.2   382  ASP382      0.2266
    136  O        -27.3070   35.6580   32.5470 O.2   382  ASP382     -0.2867
    137  CB       -27.8680   34.4430   29.4950 C.3   382  ASP382      0.1410
    138  CG       -28.6710   34.6740   28.2030 C.2   382  ASP382      0.3668
    139  OD1      -29.8880   34.3590   28.1730 O.co2 382  ASP382     -0.2456
    140  OD2      -28.0800   35.1950   27.2150 O.co2 382  ASP382     -0.2456
    141  N        -22.3560   28.3760   29.4090 N.3   398  PHE398     -0.1241
    142  CA       -23.7510   28.8080   29.4120 C.3   398  PHE398      0.1605
    143  C        -24.5510   27.9140   30.3560 C.2   398  PHE398      0.2264
    144  O        -24.6150   26.6940   30.1570 O.2   398  PHE398     -0.2867
    145  CB       -24.3430   28.7920   28.0030 C.3   398  PHE398      0.0534
    146  CG       -25.5940   29.5440   27.8920 C.ar  398  PHE398     -0.0203
    147  CD1      -26.8100   28.9420   28.1910 C.ar  398  PHE398     -0.0042
    148  CD2      -25.5730   30.8720   27.5370 C.ar  398  PHE398     -0.0042
    149  CE1      -27.9780   29.6740   28.1030 C.ar  398  PHE398     -0.0003
    150  CE2      -26.7450   31.5760   27.4440 C.ar  398  PHE398     -0.0003
    151  CZ       -27.9290   30.9830   27.7360 C.ar  398  PHE398     -0.0000
    152  N        -31.1780   30.5100   31.2030 N.3   401  ARG401     -0.1245
    153  CA       -31.8490   31.7930   31.3160 C.3   401  ARG401      0.1563
    154  C        -32.1110   32.1540   32.7820 C.2   401  ARG401      0.2260
    155  O        -32.4930   31.2950   33.5870 O.2   401  ARG401     -0.2867
    156  CB       -33.1460   31.7530   30.5280 C.3   401  ARG401      0.0307
    157  CG       -32.9460   32.0870   29.0720 C.3   401  ARG401      0.0489
    158  CD       -34.1660   32.8010   28.4890 C.3   401  ARG401      0.2205
    159  NE       -33.7220   33.8610   27.5820 N.pl3 401  ARG401     -0.0865
    160  CZ       -33.4520   35.1100   27.9690 C.cat 401  ARG401      0.5346
    161  NH1      -33.5700   35.4280   29.2580 N.pl3 401  ARG401      0.1354
    162  NH2      -33.0570   36.0350   27.0810 N.pl3 401  ARG401      0.1354
    163  N        -34.3250   31.2050   14.6370 N.3   519  GLN519     -0.1245
    164  CA       -33.9990   31.6370   15.9940 C.3   519  GLN519      0.1566
    165  C        -34.9280   31.0260   17.0390 C.2   519  GLN519      0.2260
    166  O        -34.8700   31.4130   18.2020 O.2   519  GLN519     -0.2867
    167  CB       -34.0450   33.1660   16.0950 C.3   519  GLN519      0.0367
    168  CG       -32.7500   33.9090   15.9090 C.3   519  GLN519      0.0905
    169  CD       -32.9620   35.2730   15.2580 C.2   519  GLN519      0.2608
    170  OE1      -32.9310   35.4080   14.0450 O.2   519  GLN519     -0.2717
    171  NE2      -33.1980   36.2720   16.0610 N.am  519  GLN519     -0.0878
    172  N        -36.6960   28.6830   19.8780 N.3   521  LYS521     -0.1245
    173  CA       -36.2950   27.8770   21.0360 C.3   521  LYS521      0.1561
    174  C        -37.5330   27.3030   21.7210 C.2   521  LYS521      0.2260
    175  O        -38.5040   28.0140   21.9690 O.2   521  LYS521     -0.2867
    176  CB       -35.4930   28.7070   22.0470 C.3   521  LYS521      0.0271
    177  CG       -34.2240   29.2350   21.4670 C.3   521  LYS521      0.0035
    178  CD       -33.9170   30.6420   21.9420 C.3   521  LYS521      0.0206
    179  CE       -32.7550   31.1820   21.1520 C.3   521  LYS521      0.1093
    180  NZ       -33.2430   32.0290   20.0620 N.3   521  LYS521     -0.1314
@<TRIPOS>BOND
     1    16    15    2
     2    15    14    1
     3    20    19    1
     4    14    13    1
     5    14    17    1
     6   170   169    2
     7    75    76   ar
     8    75    73   ar
     9    19    18    1
    10    76    74   ar
    11   163   164    1
    12    18    17    1
    13   169   168    1
    14   169   171   am
    15    73    71   ar
    16    24    23    2
    17    21    22    1
    18    74    72   ar
    19   168   167    1
    20   164   167    1
    21   164   165    1
    22    23    22    1
    23    71    72   ar
    24    71    70    1
    25    22    25    1
    26   165   166    2
    27    28    30   ar
    28    28    26   ar
    29    25    26    1
    30    32    33    1
    31    70    67    1
    32    30    31   ar
    33    26    27   ar
    34    66    67    1
    35    39    37    1
    36   104   103    1
    37    67    68    1
    38    31    29   ar
    39    37    36    1
    40    33    36    1
    41    33    34    1
    42     1     2    1
    43    27    29   ar
    44   102   101    2
    45   103   100    1
    46   100   101    1
    47   100    99    1
    48    36    38    1
    49    35    34    2
    50   172   173    1
    51   180   179    1
    52   101   105   am
    53    68    69    2
    54    68    77   am
    55    96    95    2
    56     2     3    1
    57     2     5    1
    58    99    95   am
    59    95    94    1
    60     4     3    2
    61     3     7   am
    62    64    65    1
    63    64    63    1
    64    77    78    1
    65   173   174    1
    66   173   176    1
    67    90    91    1
    68    90    89    1
    69   179   178    1
    70     7     8    1
    71    93    91   am
    72    93    94    1
    73    91    92    2
    74     5     6    1
    75    94    97    1
    76   105   106    1
    77    89    79   am
    78   177   178    1
    79   177   176    1
    80   108   107    2
    81   174   175    2
    82    79    80    2
    83    79    78    1
    84     8    11    1
    85     8     9    1
    86   107   106    1
    87    78    81    1
    88    63    62    1
    89   106   109    1
    90    11    12    1
    91    62    59    1
    92   122   120   ar
    93   122   124   ar
    94   125   124    1
    95    61    60    2
    96    97    98    1
    97   120   119   ar
    98     9    10    2
    99   124   123   ar
   100    59    60    1
   101    59    58    1
   102    81    82    1
   103   112   111   ar
   104    40    41    1
   105   109   110    1
   106   110   111    1
   107    45    44    1
   108   111   113   ar
   109   119   118    1
   110   119   121   ar
   111    82    83   ar
   112    82    84   ar
   113    83    85   ar
   114    58    53   am
   115   123   121   ar
   116    43    42    2
   117   118   115    1
   118    41    44    1
   119    41    42    1
   120    44    46    1
   121   115   116    1
   122   115   114    1
   123    84    86   ar
   124    54    53    2
   125    85    87   ar
   126    42    47   am
   127    53    52    1
   128   116   117    2
   129    56    55    1
   130    86    87   ar
   131    87    88    1
   132    55    52    1
   133    55    57    1
   134   132   130    1
   135    52    51    1
   136    47    48    1
   137    51    49   am
   138   162   160    1
   139    49    50    2
   140    49    48    1
   141   140   138   ar
   142   150   148   ar
   143   150   151   ar
   144   148   146   ar
   145   159   160    2
   146   159   158    1
   147   151   149   ar
   148   146   145    1
   149   146   147   ar
   150   160   161    1
   151   145   142    1
   152   149   147   ar
   153   130   131    1
   154   130   127    1
   155   139   138   ar
   156   138   137    1
   157   129   128    2
   158   158   157    1
   159   127   128    1
   160   127   126    1
   161   157   156    1
   162   141   142    1
   163   142   143    1
   164   137   134    1
   165   144   143    2
   166   156   153    1
   167   133   134    1
   168   134   135    1
   169   152   153    1
   170   153   154    1
   171   135   136    2
   172   154   155    2
