@<TRIPOS>MOLECULE
tmp/6aviB02.pdb
 131 126 0 0 0
SMALL
GASTEIGER

@<TRIPOS>ATOM
      1  N         32.7820   22.4430   37.2090 N.3    21  PRO21      -0.2102
      2  CA        32.8950   21.7830   38.5130 C.3    21  PRO21       0.1504
      3  C         31.8330   22.2800   39.4750 C.2    21  PRO21       0.2575
      4  O         30.8490   21.5860   39.7600 O.2    21  PRO21      -0.2718
      5  CB        34.3060   22.1680   38.9760 C.3    21  PRO21       0.0282
      6  CG        35.0460   22.4790   37.6900 C.3    21  PRO21       0.0208
      7  CD        34.0360   23.1070   36.8030 C.3    21  PRO21       0.0893
      8  N         32.0330   23.4970   39.9680 N.am   22  LEU22      -0.1980
      9  CA        31.1520   24.1010   40.9540 C.3    22  LEU22       0.1596
     10  C         29.8620   24.5250   40.2630 C.2    22  LEU22       0.2287
     11  O         29.8110   25.5840   39.6360 O.2    22  LEU22      -0.2864
     12  CB        31.8560   25.2920   41.5810 C.3    22  LEU22       0.0297
     13  CG        31.5950   25.6460   43.0390 C.3    22  LEU22       0.0022
     14  CD1       32.4080   26.8740   43.3970 C.3    22  LEU22       0.0001
     15  CD2       30.1150   25.8420   43.2730 C.3    22  LEU22       0.0001
     16  N         43.7880   27.1450   49.0570 N.3    57  LYS57      -0.1231
     17  CA        44.6730   26.6960   47.9810 C.3    57  LYS57       0.1693
     18  C         44.7060   27.7640   46.8830 C.2    57  LYS57       0.2592
     19  O         44.1610   27.6200   45.7780 O.2    57  LYS57      -0.2718
     20  CB        44.2440   25.3330   47.4530 C.3    57  LYS57       0.0285
     21  CG        44.4540   24.2100   48.4710 C.3    57  LYS57       0.0035
     22  CD        44.5810   22.8600   47.8030 C.3    57  LYS57       0.0206
     23  CE        43.3680   21.9990   48.0850 C.3    57  LYS57       0.1093
     24  NZ        43.4850   20.7150   47.3480 N.3    57  LYS57      -0.1314
     25  N         45.3170   28.8900   47.2450 N.am   58  PHE58      -0.1962
     26  CA        45.7580   29.9050   46.2950 C.3    58  PHE58       0.1771
     27  C         47.2810   29.8970   46.3150 C.2    58  PHE58       0.2619
     28  O         47.8740   29.9530   47.3950 O.2    58  PHE58      -0.2715
     29  CB        45.2500   31.2970   46.6670 C.3    58  PHE58       0.0574
     30  CG        45.4710   32.3430   45.5940 C.ar   58  PHE58      -0.0200
     31  CD1       45.0300   32.1350   44.2900 C.ar   58  PHE58      -0.0042
     32  CD2       46.1240   33.5400   45.8920 C.ar   58  PHE58      -0.0042
     33  CE1       45.1880   33.0990   43.3180 C.ar   58  PHE58      -0.0003
     34  CE2       46.3070   34.5140   44.9030 C.ar   58  PHE58      -0.0003
     35  CZ        45.8350   34.2780   43.6050 C.ar   58  PHE58      -0.0000
     36  N         47.9090   29.8440   45.1280 N.am   59  LYS59      -0.1977
     37  CA        49.3250   29.5090   44.9740 C.3    59  LYS59       0.1596
     38  C         50.1930   30.5980   44.3380 C.2    59  LYS59       0.2287
     39  O         51.4100   30.4050   44.2360 O.2    59  LYS59      -0.2864
     40  CB        49.4730   28.2510   44.1010 C.3    59  LYS59       0.0298
     41  CG        48.6570   27.0190   44.5110 C.3    59  LYS59       0.0038
     42  CD        48.4520   25.9820   43.3670 C.3    59  LYS59       0.0206
     43  CE        47.3660   26.3880   42.3370 C.3    59  LYS59       0.1093
     44  NZ        46.3090   27.3290   42.8650 N.3    59  LYS59      -0.1314
     45  N         44.6950   37.2470   40.7980 N.3    71  GLY71      -0.1225
     46  CA        44.0180   35.9940   41.0540 C.3    71  GLY71       0.1811
     47  C         42.7170   35.8880   40.2960 C.2    71  GLY71       0.2280
     48  O         42.3440   34.8040   39.8380 O.2    71  GLY71      -0.2866
     49  N         43.6600   34.5690   36.8350 N.3    74  PHE74      -0.1227
     50  CA        43.8830   33.1230   36.7700 C.3    74  PHE74       0.1736
     51  C         42.5680   32.3830   36.6020 C.2    74  PHE74       0.2595
     52  O         42.4040   31.6000   35.6610 O.2    74  PHE74      -0.2718
     53  CB        44.6170   32.6430   38.0360 C.3    74  PHE74       0.0547
     54  CG        44.9100   31.1270   38.0920 C.ar   74  PHE74      -0.0202
     55  CD1       43.9310   30.2150   38.4760 C.ar   74  PHE74      -0.0042
     56  CD2       46.1840   30.6330   37.8070 C.ar   74  PHE74      -0.0042
     57  CE1       44.2090   28.8370   38.5350 C.ar   74  PHE74      -0.0003
     58  CE2       46.4740   29.2650   37.8800 C.ar   74  PHE74      -0.0003
     59  CZ        45.5010   28.3710   38.2390 C.ar   74  PHE74      -0.0000
     60  N         41.6060   32.6380   37.4970 N.am   75  ARG75      -0.1980
     61  CA        40.3480   31.8890   37.4650 C.3    75  ARG75       0.1597
     62  C         39.6070   32.0880   36.1510 C.2    75  ARG75       0.2287
     63  O         39.0000   31.1450   35.6190 O.2    75  ARG75      -0.2864
     64  CB        39.4460   32.3000   38.6280 C.3    75  ARG75       0.0334
     65  CG        38.0290   31.7010   38.5460 C.3    75  ARG75       0.0492
     66  CD        38.0140   30.1640   38.5820 C.3    75  ARG75       0.2205
     67  NE        36.6690   29.6290   38.3420 N.pl3  75  ARG75      -0.0865
     68  CZ        36.3600   28.7570   37.3790 C.cat  75  ARG75       0.5346
     69  NH1       37.3010   28.3050   36.5670 N.pl3  75  ARG75       0.1354
     70  NH2       35.1100   28.3320   37.2210 N.pl3  75  ARG75       0.1354
     71  N         40.9260   29.9770   33.6180 N.3    78  GLU78      -0.1245
     72  CA        40.4330   28.6160   33.8060 C.3    78  GLU78       0.1567
     73  C         39.0230   28.4550   33.2570 C.2    78  GLU78       0.2260
     74  O         38.7320   27.4970   32.5280 O.2    78  GLU78      -0.2867
     75  CB        40.4380   28.2430   35.2790 C.3    78  GLU78       0.0388
     76  CG        41.7100   27.6890   35.7970 C.3    78  GLU78       0.1160
     77  CD        41.5460   27.3230   37.2490 C.2    78  GLU78       0.3649
     78  OE1       41.1710   28.2270   38.0170 O.co2  78  GLU78      -0.2457
     79  OE2       41.7250   26.1360   37.5990 O.co2  78  GLU78      -0.2457
     80  N         36.9700   25.8760   30.6380 N.3    82  GLU82      -0.1245
     81  CA        35.7380   25.1440   30.9240 C.3    82  GLU82       0.1567
     82  C         34.6700   25.4350   29.8820 C.2    82  GLU82       0.2260
     83  O         34.0140   24.5110   29.3810 O.2    82  GLU82      -0.2867
     84  CB        35.2190   25.4890   32.3140 C.3    82  GLU82       0.0388
     85  CG        36.0530   24.9150   33.4170 C.3    82  GLU82       0.1160
     86  CD        35.6730   25.4950   34.7750 C.2    82  GLU82       0.3649
     87  OE1       34.7190   26.3030   34.8410 O.co2  82  GLU82      -0.2457
     88  OE2       36.3470   25.1620   35.7680 O.co2  82  GLU82      -0.2457
     89  N         27.6340   31.9290   41.7310 N.3   120  LEU120     -0.1245
     90  CA        28.5650   31.9340   42.8540 C.3   120  LEU120      0.1561
     91  C         28.3550   33.0970   43.8110 C.2   120  LEU120      0.2260
     92  O         29.1100   33.2210   44.7850 O.2   120  LEU120     -0.2867
     93  CB        30.0040   31.9860   42.3280 C.3   120  LEU120      0.0270
     94  CG        30.7690   30.6800   42.0730 C.3   120  LEU120      0.0019
     95  CD1       29.8890   29.6080   41.4670 C.3   120  LEU120      0.0001
     96  CD2       31.9810   30.9600   41.1850 C.3   120  LEU120      0.0001
     97  N         31.5890   33.2110   46.1610 N.3   127  LEU127     -0.1231
     98  CA        32.3670   31.9980   46.3790 C.3   127  LEU127      0.1693
     99  C         33.6710   32.0070   45.5860 C.2   127  LEU127      0.2592
    100  O         33.6730   32.1960   44.3700 O.2   127  LEU127     -0.2718
    101  CB        31.5330   30.7820   45.9850 C.3   127  LEU127      0.0284
    102  CG        30.4440   30.4550   46.9800 C.3   127  LEU127      0.0019
    103  CD1       29.6650   29.2380   46.5250 C.3   127  LEU127      0.0001
    104  CD2       31.0660   30.2190   48.3540 C.3   127  LEU127      0.0001
    105  N         34.7730   31.7490   46.2860 N.am  128  ILE128     -0.1966
    106  CA        36.1360   31.8390   45.7810 C.3   128  ILE128      0.1727
    107  C         36.7490   30.4430   45.8420 C.2   128  ILE128      0.2617
    108  O         36.2860   29.5730   46.5860 O.2   128  ILE128     -0.2715
    109  CB        36.9520   32.8720   46.6090 C.3   128  ILE128      0.0290
    110  CG1       36.9150   34.2630   45.9670 C.3   128  ILE128      0.0022
    111  CG2       38.3730   32.4050   46.9590 C.3   128  ILE128      0.0023
    112  CD1       35.5460   34.6830   45.5520 C.3   128  ILE128      0.0001
    113  N         37.7510   30.2100   44.9950 N.am  129  SER129     -0.1936
    114  CA        38.6280   29.0390   45.0910 C.3   129  SER129      0.2055
    115  C         37.8410   27.7380   45.2250 C.2   129  SER129      0.2643
    116  O         37.8980   27.0460   46.2400 O.2   129  SER129     -0.2714
    117  CB        39.5960   29.1920   46.2630 C.3   129  SER129      0.2130
    118  OG        40.1740   27.9480   46.6040 O.3   129  SER129     -0.2179
    119  N         37.0840   27.4180   44.1800 N.am  130  GLU130     -0.1963
    120  CA        36.3220   26.1730   44.0990 C.3   130  GLU130      0.1733
    121  C         35.2440   26.1050   45.1680 C.2   130  GLU130      0.2616
    122  O         34.6970   25.0330   45.4410 O.2   130  GLU130     -0.2715
    123  CB        37.2410   24.9350   44.1660 C.3   130  GLU130      0.0429
    124  CG        38.2420   24.8540   42.9970 C.3   130  GLU130      0.1163
    125  CD        39.3820   23.8640   43.1770 C.2   130  GLU130      0.3649
    126  OE1       39.3910   22.8380   42.4550 O.co2 130  GLU130     -0.2457
    127  OE2       40.2750   24.1240   44.0250 O.co2 130  GLU130     -0.2457
    128  N         34.9070   27.2470   45.7600 N.am  131  GLY131     -0.1955
    129  CA        33.9110   27.2860   46.7990 C.3   131  GLY131      0.1869
    130  C         34.4570   27.1050   48.1940 C.2   131  GLY131      0.2309
    131  O         33.6670   27.0350   49.1390 O.2   131  GLY131     -0.2863
@<TRIPOS>BOND
     1    83    82    2
     2    82    81    1
     3    80    81    1
     4    81    84    1
     5    84    85    1
     6    74    73    2
     7    73    72    1
     8    85    86    1
     9    71    72    1
    10    72    75    1
    11    86    87   ar
    12    86    88   ar
    13    75    76    1
    14    63    62    2
    15    52    51    2
    16    76    77    1
    17    62    61    1
    18    69    68    1
    19    51    50    1
    20    51    60   am
    21    50    49    1
    22    50    53    1
    23     7     1    1
    24     7     6    1
    25     1     2    1
    26    70    68    1
    27    77    79   ar
    28    77    78   ar
    29    68    67    2
    30    61    60    1
    31    61    64    1
    32     6     5    1
    33    56    58   ar
    34    56    54   ar
    35    58    59   ar
    36    53    54    1
    37    54    55   ar
    38    59    57   ar
    39    67    66    1
    40    55    57   ar
    41     2     5    1
    42     2     3    1
    43    65    66    1
    44    65    64    1
    45     3     4    2
    46     3     8   am
    47    11    10    2
    48    48    47    2
    49     8     9    1
    50    10     9    1
    51    47    46    1
    52    45    46    1
    53     9    12    1
    54    96    94    1
    55    95    94    1
    56    12    13    1
    57    89    90    1
    58    94    93    1
    59    93    90    1
    60    43    44    1
    61    43    42    1
    62   126   125   ar
    63    90    91    1
    64   124   125    1
    65   124   123    1
    66    13    15    1
    67    13    14    1
    68   125   127   ar
    69    33    35   ar
    70    33    31   ar
    71    42    41    1
    72    35    34   ar
    73    91    92    2
    74   120   123    1
    75   120   119    1
    76   120   121    1
    77    40    41    1
    78    40    37    1
    79   119   115   am
    80    39    38    2
    81    31    30   ar
    82    38    37    1
    83   100    99    2
    84    34    32   ar
    85    37    36    1
    86   113   114    1
    87   113   107   am
    88   114   115    1
    89   114   117    1
    90    36    27   am
    91   121   122    2
    92   121   128   am
    93   115   116    2
    94   112   110    1
    95    99   105   am
    96    99    98    1
    97    30    32   ar
    98    30    29    1
    99   128   129    1
   100    19    18    2
   101   106   107    1
   102   106   105    1
   103   106   109    1
   104   107   108    2
   105   110   109    1
   106   101    98    1
   107   101   102    1
   108    97    98    1
   109   117   118    1
   110    26    27    1
   111    26    29    1
   112    26    25    1
   113    27    28    2
   114   103   102    1
   115   109   111    1
   116   129   130    1
   117    18    25   am
   118    18    17    1
   119   102   104    1
   120    24    23    1
   121    20    17    1
   122    20    21    1
   123    22    23    1
   124    22    21    1
   125    17    16    1
   126   130   131    2
