@<TRIPOS>MOLECULE
tmp/6aviB01.pdb
 118 109 0 0 0
SMALL
GASTEIGER

@<TRIPOS>ATOM
      1  N         45.3170   28.8900   47.2450 N.3    58  PHE58      -0.1241
      2  CA        45.7580   29.9050   46.2950 C.3    58  PHE58       0.1605
      3  C         47.2810   29.8970   46.3150 C.2    58  PHE58       0.2264
      4  O         47.8740   29.9530   47.3950 O.2    58  PHE58      -0.2867
      5  CB        45.2500   31.2970   46.6670 C.3    58  PHE58       0.0534
      6  CG        45.4710   32.3430   45.5940 C.ar   58  PHE58      -0.0203
      7  CD1       45.0300   32.1350   44.2900 C.ar   58  PHE58      -0.0042
      8  CD2       46.1240   33.5400   45.8920 C.ar   58  PHE58      -0.0042
      9  CE1       45.1880   33.0990   43.3180 C.ar   58  PHE58      -0.0003
     10  CE2       46.3070   34.5140   44.9030 C.ar   58  PHE58      -0.0003
     11  CZ        45.8350   34.2780   43.6050 C.ar   58  PHE58      -0.0000
     12  N         44.7530   40.2620   44.4440 N.3    68  ILE68      -0.1245
     13  CA        43.3790   39.8160   44.2590 C.3    68  ILE68       0.1561
     14  C         42.9930   39.9060   42.7950 C.2    68  ILE68       0.2260
     15  O         42.4020   38.9740   42.2380 O.2    68  ILE68      -0.2867
     16  CB        42.4200   40.6350   45.1380 C.3    68  ILE68       0.0252
     17  CG1       42.8290   40.5460   46.6070 C.3    68  ILE68       0.0019
     18  CG2       40.9970   40.1460   44.9390 C.3    68  ILE68       0.0019
     19  CD1       42.4210   41.7440   47.4210 C.3    68  ILE68       0.0001
     20  N         44.6950   37.2470   40.7980 N.3    71  GLY71      -0.1210
     21  CA        44.0180   35.9940   41.0540 C.3    71  GLY71       0.1956
     22  C         42.7170   35.8880   40.2960 C.2    71  GLY71       0.2612
     23  O         42.3440   34.8040   39.8380 O.2    71  GLY71      -0.2717
     24  N         42.0140   37.0070   40.1390 N.am   72  CYS72      -0.1970
     25  CA        40.8010   36.9930   39.3390 C.3    72  CYS72       0.1712
     26  C         41.1120   36.6380   37.8920 C.2    72  CYS72       0.2296
     27  O         40.3250   35.9410   37.2450 O.2    72  CYS72      -0.2864
     28  CB        40.1010   38.3440   39.4490 C.3    72  CYS72       0.0983
     29  SG        38.3830   38.2550   39.0270 S.3    72  CYS72      -0.0798
     30  N         41.6060   32.6380   37.4970 N.3    75  ARG75      -0.1245
     31  CA        40.3480   31.8890   37.4650 C.3    75  ARG75       0.1563
     32  C         39.6070   32.0880   36.1510 C.2    75  ARG75       0.2260
     33  O         39.0000   31.1450   35.6190 O.2    75  ARG75      -0.2867
     34  CB        39.4460   32.3000   38.6280 C.3    75  ARG75       0.0307
     35  CG        38.0290   31.7010   38.5460 C.3    75  ARG75       0.0489
     36  CD        38.0140   30.1640   38.5820 C.3    75  ARG75       0.2205
     37  NE        36.6690   29.6290   38.3420 N.pl3  75  ARG75      -0.0865
     38  CZ        36.3600   28.7570   37.3790 C.cat  75  ARG75       0.5346
     39  NH1       37.3010   28.3050   36.5670 N.pl3  75  ARG75       0.1354
     40  NH2       35.1100   28.3320   37.2210 N.pl3  75  ARG75       0.1354
     41  N         29.2740   33.5550   37.1280 N.3   117  LEU117     -0.1245
     42  CA        29.7170   34.1870   38.3610 C.3   117  LEU117      0.1561
     43  C         28.5410   34.5190   39.2670 C.2   117  LEU117      0.2260
     44  O         28.7240   34.6810   40.4740 O.2   117  LEU117     -0.2867
     45  CB        30.4900   35.4490   38.0220 C.3   117  LEU117      0.0270
     46  CG        31.2880   36.1700   39.0930 C.3   117  LEU117      0.0019
     47  CD1       32.1450   35.2000   39.9030 C.3   117  LEU117      0.0001
     48  CD2       32.1510   37.1910   38.4140 C.3   117  LEU117      0.0001
     49  N         27.6340   31.9290   41.7310 N.3   120  LEU120     -0.1245
     50  CA        28.5650   31.9340   42.8540 C.3   120  LEU120      0.1561
     51  C         28.3550   33.0970   43.8110 C.2   120  LEU120      0.2260
     52  O         29.1100   33.2210   44.7850 O.2   120  LEU120     -0.2867
     53  CB        30.0040   31.9860   42.3280 C.3   120  LEU120      0.0270
     54  CG        30.7690   30.6800   42.0730 C.3   120  LEU120      0.0019
     55  CD1       29.8890   29.6080   41.4670 C.3   120  LEU120      0.0001
     56  CD2       31.9810   30.9600   41.1850 C.3   120  LEU120      0.0001
     57  N         30.9320   36.5020   47.2740 N.3   126  VAL126     -0.1231
     58  CA        31.1380   35.5950   46.1480 C.3   126  VAL126      0.1692
     59  C         32.0170   34.4090   46.5490 C.2   126  VAL126      0.2592
     60  O         33.0720   34.5810   47.1680 O.2   126  VAL126     -0.2718
     61  CB        31.7620   36.3370   44.9490 C.3   126  VAL126      0.0266
     62  CG1       33.0140   37.1060   45.3840 C.3   126  VAL126      0.0020
     63  CG2       32.0880   35.3720   43.8500 C.3   126  VAL126      0.0020
     64  N         31.5890   33.2110   46.1610 N.am  127  LEU127     -0.1966
     65  CA        32.3670   31.9980   46.3790 C.3   127  LEU127      0.1728
     66  C         33.6710   32.0070   45.5860 C.2   127  LEU127      0.2616
     67  O         33.6730   32.1960   44.3700 O.2   127  LEU127     -0.2715
     68  CB        31.5330   30.7820   45.9850 C.3   127  LEU127      0.0311
     69  CG        30.4440   30.4550   46.9800 C.3   127  LEU127      0.0022
     70  CD1       29.6650   29.2380   46.5250 C.3   127  LEU127      0.0001
     71  CD2       31.0660   30.2190   48.3540 C.3   127  LEU127      0.0001
     72  N         34.7730   31.7490   46.2860 N.am  128  ILE128     -0.1963
     73  CA        36.1360   31.8390   45.7810 C.3   128  ILE128      0.1727
     74  C         36.7490   30.4430   45.8420 C.2   128  ILE128      0.2617
     75  O         36.2860   29.5730   46.5860 O.2   128  ILE128     -0.2715
     76  CB        36.9520   32.8720   46.6090 C.3   128  ILE128      0.0290
     77  CG1       36.9150   34.2630   45.9670 C.3   128  ILE128      0.0022
     78  CG2       38.3730   32.4050   46.9590 C.3   128  ILE128      0.0023
     79  CD1       35.5460   34.6830   45.5520 C.3   128  ILE128      0.0001
     80  N         37.7510   30.2100   44.9950 N.am  129  SER129     -0.1936
     81  CA        38.6280   29.0390   45.0910 C.3   129  SER129      0.2055
     82  C         37.8410   27.7380   45.2250 C.2   129  SER129      0.2642
     83  O         37.8980   27.0460   46.2400 O.2   129  SER129     -0.2714
     84  CB        39.5960   29.1920   46.2630 C.3   129  SER129      0.2130
     85  OG        40.1740   27.9480   46.6040 O.3   129  SER129     -0.2179
     86  N         37.0840   27.4180   44.1800 N.am  130  GLU130     -0.1976
     87  CA        36.3220   26.1730   44.0990 C.3   130  GLU130      0.1602
     88  C         35.2440   26.1050   45.1680 C.2   130  GLU130      0.2287
     89  O         34.6970   25.0330   45.4410 O.2   130  GLU130     -0.2864
     90  CB        37.2410   24.9350   44.1660 C.3   130  GLU130      0.0415
     91  CG        38.2420   24.8540   42.9970 C.3   130  GLU130      0.1163
     92  CD        39.3820   23.8640   43.1770 C.2   130  GLU130      0.3649
     93  OE1       39.3910   22.8380   42.4550 O.co2 130  GLU130     -0.2457
     94  OE2       40.2750   24.1240   44.0250 O.co2 130  GLU130     -0.2457
     95  N         34.6170   35.6240   49.4800 N.3   135  MET135     -0.1245
     96  CA        35.1180   36.9790   49.6020 C.3   135  MET135      0.1570
     97  C         33.9130   37.8940   49.7540 C.2   135  MET135      0.2261
     98  O         32.9900   37.8570   48.9310 O.2   135  MET135     -0.2867
     99  CB        35.9810   37.3670   48.4030 C.3   135  MET135      0.0387
    100  CG        36.6630   38.7120   48.5730 C.3   135  MET135      0.0595
    101  SD        38.2540   38.7570   47.7560 S.3   135  MET135     -0.1393
    102  CE        38.6420   37.0030   47.7960 C.3   135  MET135      0.0692
    103  N         35.7730   43.5240   48.8560 N.3   140  LEU140     -0.1245
    104  CA        36.0500   43.9110   47.4690 C.3   140  LEU140      0.1561
    105  C         35.8140   45.4010   47.2550 C.2   140  LEU140      0.2260
    106  O         36.6650   46.1040   46.6950 O.2   140  LEU140     -0.2867
    107  CB        35.1850   43.1070   46.4900 C.3   140  LEU140      0.0270
    108  CG        35.3650   41.6030   46.5290 C.3   140  LEU140      0.0019
    109  CD1       34.2310   40.8950   45.8060 C.3   140  LEU140      0.0001
    110  CD2       36.7180   41.2490   45.9540 C.3   140  LEU140      0.0001
    111  N         34.3940   44.5030   40.9080 N.3   151  MET151     -0.1245
    112  CA        33.3680   43.4880   41.1160 C.3   151  MET151      0.1570
    113  C         32.0050   44.0870   41.4340 C.2   151  MET151      0.2261
    114  O         30.9950   43.4000   41.2510 O.2   151  MET151     -0.2867
    115  CB        33.7770   42.5230   42.2420 C.3   151  MET151      0.0387
    116  CG        35.0160   41.6890   41.9620 C.3   151  MET151      0.0595
    117  SD        34.8370   40.7340   40.4460 S.3   151  MET151     -0.1393
    118  CE        33.4520   39.6930   40.8860 C.3   151  MET151      0.0692
@<TRIPOS>BOND
     1    33    32    2
     2    32    31    1
     3    39    38    1
     4    41    42    1
     5    40    38    1
     6    27    26    2
     7    38    37    2
     8    31    30    1
     9    31    34    1
    10    26    25    1
    11    45    42    1
    12    45    46    1
    13    37    36    1
    14    42    43    1
    15    48    46    1
    16    35    36    1
    17    35    34    1
    18    29    28    1
    19    46    47    1
    20    43    44    2
    21    25    28    1
    22    25    24    1
    23    23    22    2
    24    24    22   am
    25    22    21    1
    26   117   118    1
    27   117   116    1
    28    20    21    1
    29   111   112    1
    30   112   113    1
    31   112   115    1
    32    56    54    1
    33   114   113    2
    34    55    54    1
    35    49    50    1
    36   116   115    1
    37    54    53    1
    38    15    14    2
    39    53    50    1
    40    93    92   ar
    41    14    13    1
    42    50    51    1
    43    91    92    1
    44    91    90    1
    45    92    94   ar
    46     9    11   ar
    47     9     7   ar
    48    11    10   ar
    49    51    52    2
    50    63    61    1
    51    87    90    1
    52    87    86    1
    53    87    88    1
    54    86    82   am
    55    13    12    1
    56    13    16    1
    57     7     6   ar
    58    67    66    2
    59    10     8   ar
    60    18    16    1
    61    61    62    1
    62    61    58    1
    63    80    81    1
    64    80    74   am
    65    81    82    1
    66    81    84    1
    67    16    17    1
    68    88    89    2
    69    82    83    2
    70    79    77    1
    71    66    72   am
    72    66    65    1
    73     6     8   ar
    74     6     5    1
    75    73    74    1
    76    73    72    1
    77    73    76    1
    78   109   108    1
    79    74    75    2
    80   110   108    1
    81    77    76    1
    82    68    65    1
    83    68    69    1
    84    58    59    1
    85    58    57    1
    86    64    65    1
    87    64    59   am
    88    84    85    1
    89     2     3    1
    90     2     5    1
    91     2     1    1
    92     3     4    2
    93   107   108    1
    94   107   104    1
    95    70    69    1
    96    59    60    2
    97    17    19    1
    98    76    78    1
    99   106   105    2
   100    69    71    1
   101   105   104    1
   102   104   103    1
   103   101   102    1
   104   101   100    1
   105    99   100    1
   106    99    96    1
   107    98    97    2
   108    95    96    1
   109    96    97    1
