@<TRIPOS>MOLECULE
tmp/6avkB00.pdb
 154 145 0 0 0
SMALL
GASTEIGER

@<TRIPOS>ATOM
      1  N         24.1370    5.0350   12.1990 N.3    10  ASN10      -0.1240
      2  CA        24.3230    5.3990   10.8090 C.3    10  ASN10       0.1653
      3  C         25.3960    4.5580   10.1770 C.2    10  ASN10       0.2266
      4  O         26.0130    3.7140   10.8520 O.2    10  ASN10      -0.2867
      5  CB        24.5330    6.8970   10.5730 C.3    10  ASN10       0.1155
      6  CG        25.9240    7.4170   10.9070 C.2    10  ASN10       0.2627
      7  OD1       26.8440    6.6740   11.2630 O.2    10  ASN10      -0.2716
      8  ND2       26.0960    8.7380   10.8360 N.am   10  ASN10      -0.0877
      9  N         28.3100    5.1150    9.3130 N.3    12  LEU12      -0.1245
     10  CA        29.6790    5.3210    9.8130 C.3    12  LEU12       0.1561
     11  C         29.8820    4.7360   11.1960 C.2    12  LEU12       0.2260
     12  O         31.0200    4.7220   11.6810 O.2    12  LEU12      -0.2867
     13  CB        29.9930    6.8210    9.8550 C.3    12  LEU12       0.0270
     14  CG        29.8920    7.5610    8.5010 C.3    12  LEU12       0.0019
     15  CD1       29.9510    9.0800    8.6710 C.3    12  LEU12       0.0001
     16  CD2       30.9450    7.0760    7.5190 C.3    12  LEU12       0.0001
     17  N         27.9590    5.8680   13.8580 N.3    14  SER14      -0.1217
     18  CA        27.5150    6.8090   14.8730 C.3    14  SER14       0.1889
     19  C         26.2090    6.3410   15.5110 C.2    14  SER14       0.2288
     20  O         25.4530    5.6210   14.8380 O.2    14  SER14      -0.2866
     21  CB        27.3160    8.1880   14.2580 C.3    14  SER14       0.2089
     22  OG        28.5230    8.6180   13.6550 O.3    14  SER14      -0.2183
     23  N         23.6890   12.1500   20.8980 N.3    30  TYR30      -0.1241
     24  CA        24.3430   11.6930   19.6780 C.3    30  TYR30       0.1605
     25  C         25.8050   11.4000   19.9640 C.2    30  TYR30       0.2264
     26  O         26.4700   12.1990   20.6290 O.2    30  TYR30      -0.2867
     27  CB        24.2430   12.7870   18.6190 C.3    30  TYR30       0.0534
     28  CG        24.5680   12.3050   17.2250 C.ar   30  TYR30      -0.0201
     29  CD1       25.8910   12.1950   16.7950 C.ar   30  TYR30      -0.0009
     30  CD2       23.5590   11.9780   16.3290 C.ar   30  TYR30      -0.0009
     31  CE1       26.2010   11.7450   15.5140 C.ar   30  TYR30       0.0417
     32  CE2       23.8620   11.5140   15.0430 C.ar   30  TYR30       0.0417
     33  CZ        25.1830   11.3720   14.6560 C.ar   30  TYR30       0.1957
     34  OH        25.4830   10.9440   13.3770 O.3    30  TYR30      -0.2866
     35  N         29.2400   10.5700   17.7530 N.3    32  SER32      -0.1217
     36  CA        29.7470   10.4960   16.3870 C.3    32  SER32       0.1889
     37  C         30.9480    9.5870   16.2760 C.2    32  SER32       0.2288
     38  O         31.9020    9.7010   17.0570 O.2    32  SER32      -0.2866
     39  CB        30.1190   11.8810   15.8720 C.3    32  SER32       0.2089
     40  OG        30.4290   11.8230   14.4860 O.3    32  SER32      -0.2183
     41  N         32.8670    9.8300   13.7240 N.3    34  VAL34      -0.1231
     42  CA        33.7880   10.6320   12.9150 C.3    34  VAL34       0.1692
     43  C         33.8880   12.0610   13.3890 C.2    34  VAL34       0.2593
     44  O         32.9880   12.5800   14.0570 O.2    34  VAL34      -0.2718
     45  CB        33.4020   10.6050   11.4060 C.3    34  VAL34       0.0266
     46  CG1       33.5130    9.1990   10.8140 C.3    34  VAL34       0.0020
     47  CG2       32.0100   11.2100   11.1670 C.3    34  VAL34       0.0020
     48  N         34.9710   12.6990   12.9970 N.am   35  GLY35      -0.1942
     49  CA        35.1500   14.1090   13.3010 C.3    35  GLY35       0.2014
     50  C         35.7250   14.3920   14.6670 C.2    35  GLY35       0.2639
     51  O         36.1440   13.4890   15.4020 O.2    35  GLY35      -0.2714
     52  N         35.7440   15.6760   15.0130 N.am   36  ASN36      -0.1958
     53  CA        36.3250   16.1520   16.2600 C.3    36  ASN36       0.1819
     54  C         35.2780   16.0230   17.3450 C.2    36  ASN36       0.2621
     55  O         34.6230   16.9990   17.7490 O.2    36  ASN36      -0.2715
     56  CB        36.8270   17.5880   16.0760 C.3    36  ASN36       0.1195
     57  CG        37.5750   18.1220   17.2540 C.2    36  ASN36       0.2630
     58  OD1       37.9960   17.3740   18.1290 O.2    36  ASN36      -0.2716
     59  ND2       37.7780   19.4320   17.2720 N.am   36  ASN36      -0.0877
     60  N         35.0820   14.7690   17.7800 N.am   37  ALA37      -0.1977
     61  CA        33.9980   14.4250   18.6810 C.3    37  ALA37       0.1597
     62  C         34.3450   13.2610   19.5690 C.2    37  ALA37       0.2287
     63  O         35.0340   12.3330   19.1440 O.2    37  ALA37      -0.2864
     64  CB        32.7450   14.0960   17.8650 C.3    37  ALA37       0.0319
     65  N         28.6880   20.6560   18.6330 N.3    66  TRP66      -0.1241
     66  CA        29.7770   19.7510   19.0190 C.3    66  TRP66       0.1605
     67  C         30.5890   20.2290   20.2160 C.2    66  TRP66       0.2264
     68  O         31.8330   20.2610   20.2030 O.2    66  TRP66      -0.2867
     69  CB        30.6520   19.4460   17.8140 C.3    66  TRP66       0.0550
     70  CG        29.8590   18.8000   16.7320 C.ar   66  TRP66       0.0003
     71  CD1       29.4520   19.3720   15.5590 C.ar   66  TRP66       0.0946
     72  CD2       29.3070   17.4770   16.7490 C.ar   66  TRP66       0.0152
     73  NE1       28.7290   18.4730   14.8250 N.ar   66  TRP66      -0.2442
     74  CE2       28.5900   17.3120   15.5450 C.ar   66  TRP66       0.0810
     75  CE3       29.3690   16.4030   17.6570 C.ar   66  TRP66       0.0012
     76  CZ2       27.9500   16.1080   15.2130 C.ar   66  TRP66       0.0191
     77  CZ3       28.7270   15.2200   17.3380 C.ar   66  TRP66       0.0001
     78  CH2       28.0270   15.0760   16.1320 C.ar   66  TRP66       0.0015
     79  N         34.4060   21.3690   19.4060 N.3    73  ALA73      -0.1245
     80  CA        34.8980   21.4600   18.0330 C.3    73  ALA73       0.1562
     81  C         34.5040   22.7770   17.3800 C.2    73  ALA73       0.2260
     82  O         34.8450   22.9900   16.2140 O.2    73  ALA73      -0.2867
     83  CB        34.3660   20.2900   17.2080 C.3    73  ALA73       0.0290
     84  N         31.6140   23.8570   16.2570 N.3    75  SER75      -0.1217
     85  CA        30.8670   23.5000   15.0640 C.3    75  SER75       0.1889
     86  C         29.5170   22.8960   15.4440 C.2    75  SER75       0.2288
     87  O         29.3040   22.5530   16.6120 O.2    75  SER75      -0.2866
     88  CB        31.6690   22.5460   14.1800 C.3    75  SER75       0.2089
     89  OG        32.0080   21.3520   14.8610 O.3    75  SER75      -0.2183
     90  N         26.1720   20.4370   13.5890 N.3    77  THR77      -0.1218
     91  CA        25.5950   19.7210   12.4390 C.3    77  THR77       0.1862
     92  C         24.0920   19.7020   12.5550 C.2    77  THR77       0.2287
     93  O         23.5500   19.4540   13.6390 O.2    77  THR77      -0.2866
     94  CB        26.1540   18.2990   12.3270 C.3    77  THR77       0.1770
     95  OG1       27.5750   18.4220   12.2010 O.3    77  THR77      -0.2211
     96  CG2       25.6370   17.5500   11.0950 C.3    77  THR77       0.0375
     97  N         20.7980   17.7250   10.7350 N.3    79  TRP79      -0.1241
     98  CA        20.3280   16.6500    9.8560 C.3    79  TRP79       0.1605
     99  C         18.8930   16.9600    9.5080 C.2    79  TRP79       0.2264
    100  O         18.0750   17.2150   10.4160 O.2    79  TRP79      -0.2867
    101  CB        20.3740   15.2860   10.5650 C.3    79  TRP79       0.0550
    102  CG        21.7430   14.6980   10.7400 C.ar   79  TRP79       0.0003
    103  CD1       22.2860   13.6680   10.0240 C.ar   79  TRP79       0.0946
    104  CD2       22.6610   14.9630   11.8160 C.ar   79  TRP79       0.0152
    105  NE1       23.5280   13.3390   10.5260 N.ar   79  TRP79      -0.2442
    106  CE2       23.7620   14.0930   11.6520 C.ar   79  TRP79       0.0810
    107  CE3       22.6640   15.8630   12.8970 C.ar   79  TRP79       0.0012
    108  CZ2       24.8500   14.0900   12.5350 C.ar   79  TRP79       0.0191
    109  CZ3       23.7270   15.8320   13.7890 C.ar   79  TRP79       0.0001
    110  CH2       24.7980   14.9520   13.6020 C.ar   79  TRP79       0.0015
    111  N         22.8290   16.3960    5.6710 N.3    95  TRP95      -0.1241
    112  CA        23.3090   17.1680    6.8010 C.3    95  TRP95       0.1605
    113  C         24.2100   18.2870    6.3790 C.2    95  TRP95       0.2264
    114  O         24.8230   18.2480    5.3040 O.2    95  TRP95      -0.2867
    115  CB        23.9730   16.2660    7.8830 C.3    95  TRP95       0.0550
    116  CG        25.0640   15.3680    7.4000 C.ar   95  TRP95       0.0003
    117  CD1       24.9520   14.0370    7.1330 C.ar   95  TRP95       0.0946
    118  CD2       26.4370   15.7230    7.1220 C.ar   95  TRP95       0.0152
    119  NE1       26.1680   13.5400    6.6920 N.ar   95  TRP95      -0.2442
    120  CE2       27.0970   14.5550    6.6920 C.ar   95  TRP95       0.0810
    121  CE3       27.1690   16.9200    7.1930 C.ar   95  TRP95       0.0012
    122  CZ2       28.4500   14.5500    6.3160 C.ar   95  TRP95       0.0191
    123  CZ3       28.5050   16.9140    6.8370 C.ar   95  TRP95       0.0001
    124  CH2       29.1300   15.7490    6.3870 C.ar   95  TRP95       0.0015
    125  N         27.2460   20.6160    8.2300 N.3    97  LEU97      -0.1245
    126  CA        28.1570   20.7810    9.3350 C.3    97  LEU97       0.1561
    127  C         28.8420   22.1380    9.1980 C.2    97  LEU97       0.2260
    128  O         29.6620   22.3290    8.2910 O.2    97  LEU97      -0.2867
    129  CB        29.1580   19.6020    9.3640 C.3    97  LEU97       0.0270
    130  CG        30.4860   19.7480   10.1440 C.3    97  LEU97       0.0019
    131  CD1       30.2700   20.1710   11.5730 C.3    97  LEU97       0.0001
    132  CD2       31.2410   18.4490   10.1050 C.3    97  LEU97       0.0001
    133  N         31.2370   25.0960   10.7890 N.3    99  SER99      -0.1217
    134  CA        32.2480   25.4290   11.7910 C.3    99  SER99       0.1889
    135  C         32.2920   26.9390   11.9620 C.2    99  SER99       0.2288
    136  O         32.1100   27.6740   10.9940 O.2    99  SER99      -0.2866
    137  CB        33.6220   24.9230   11.3440 C.3    99  SER99       0.2089
    138  OG        33.6240   23.5080   11.2660 O.3    99  SER99      -0.2183
    139  N         30.2730   21.9090    5.5150 N.3   111  LEU111     -0.1245
    140  CA        30.3530   20.6260    4.8450 C.3   111  LEU111      0.1561
    141  C         28.9440   20.0770    4.6870 C.2   111  LEU111      0.2260
    142  O         28.0510   20.3540    5.5060 O.2   111  LEU111     -0.2867
    143  CB        31.1840   19.6410    5.6660 C.3   111  LEU111      0.0270
    144  CG        32.6750   19.9380    5.7450 C.3   111  LEU111      0.0019
    145  CD1       33.3040   19.1870    6.9140 C.3   111  LEU111      0.0001
    146  CD2       33.3830   19.5610    4.4470 C.3   111  LEU111      0.0001
    147  N         23.4380   10.8460    5.5400 N.3   115  ASP115     -0.1239
    148  CA        23.5270    9.6960    6.4360 C.3   115  ASP115      0.1674
    149  C         22.2260    8.9350    6.3910 C.2   115  ASP115      0.2266
    150  O         21.1410    9.5320    6.3760 O.2   115  ASP115     -0.2867
    151  CB        23.7190   10.1450    7.8940 C.3   115  ASP115      0.1410
    152  CG        25.0630   10.7280    8.2630 C.2   115  ASP115      0.3668
    153  OD1       26.0020   10.6370    7.4200 O.co2 115  ASP115     -0.2456
    154  OD2       25.1970   11.1900    9.4200 O.co2 115  ASP115     -0.2456
@<TRIPOS>BOND
     1   146   144    1
     2   141   140    1
     3   141   142    2
     4   140   139    1
     5   140   143    1
     6   114   113    2
     7   147   148    1
     8   143   144    1
     9   111   112    1
    10   144   145    1
    11   122   124   ar
    12   122   120   ar
    13   150   149    2
    14   113   112    1
    15   124   123   ar
    16   149   148    1
    17   148   151    1
    18   119   120   ar
    19   119   117   ar
    20   120   118   ar
    21   112   115    1
    22   123   121   ar
    23   118   121   ar
    24   118   116   ar
    25   117   116   ar
    26   116   115    1
    27   153   152   ar
    28    16    14    1
    29   151   152    1
    30   125   126    1
    31   152   154   ar
    32   128   127    2
    33    14    15    1
    34    14    13    1
    35   127   126    1
    36     9    10    1
    37   126   129    1
    38   129   130    1
    39    99    98    1
    40    99   100    2
    41    10    13    1
    42    10    11    1
    43    98   101    1
    44    98    97    1
    45   103   105   ar
    46   103   102   ar
    47   132   130    1
    48   130   131    1
    49     3     2    1
    50     3     4    2
    51   105   106   ar
    52   101   102    1
    53     5     2    1
    54     5     6    1
    55   102   104   ar
    56   133   134    1
    57     2     1    1
    58    46    45    1
    59     8     6   am
    60     6     7    2
    61   136   135    2
    62    96    94    1
    63    47    45    1
    64    11    12    2
    65   138   137    1
    66   137   134    1
    67    45    42    1
    68   106   104   ar
    69   106   108   ar
    70   134   135    1
    71   104   107   ar
    72    95    94    1
    73    94    91    1
    74    91    92    1
    75    91    90    1
    76   108   110   ar
    77    92    93    2
    78   107   109   ar
    79    42    43    1
    80    42    41    1
    81    48    49    1
    82    48    43   am
    83    49    50    1
    84    34    33    1
    85    43    44    2
    86   110   109   ar
    87    22    21    1
    88    17    18    1
    89    88    89    1
    90    88    85    1
    91    21    18    1
    92    40    39    1
    93    33    32   ar
    94    33    31   ar
    95    50    52   am
    96    50    51    2
    97    73    74   ar
    98    73    71   ar
    99    20    19    2
   100    18    19    1
   101    52    53    1
   102    32    30   ar
   103    85    86    1
   104    85    84    1
   105    76    74   ar
   106    76    78   ar
   107    86    87    2
   108    31    29   ar
   109    74    72   ar
   110    71    70   ar
   111    39    36    1
   112    56    53    1
   113    56    57    1
   114    78    77   ar
   115    82    81    2
   116    53    54    1
   117    37    36    1
   118    37    38    2
   119    30    28   ar
   120    36    35    1
   121    70    72   ar
   122    70    69    1
   123    72    75   ar
   124    29    28   ar
   125    83    80    1
   126    28    27    1
   127    57    59   am
   128    57    58    2
   129    77    75   ar
   130    54    55    2
   131    54    60   am
   132    81    80    1
   133    60    61    1
   134    69    66    1
   135    64    61    1
   136    80    79    1
   137    27    24    1
   138    65    66    1
   139    61    62    1
   140    66    67    1
   141    63    62    2
   142    24    25    1
   143    24    23    1
   144    25    26    2
   145    68    67    2
