@<TRIPOS>MOLECULE
tmp/6avkA00.pdb
 177 172 0 0 0
SMALL
GASTEIGER

@<TRIPOS>ATOM
      1  N         14.8710   38.0060    8.2390 N.3     9  ASN9       -0.1240
      2  CA        15.5580   37.8500    6.9520 C.3     9  ASN9        0.1653
      3  C         15.0170   38.9570    6.0110 C.2     9  ASN9        0.2266
      4  O         14.3130   39.8590    6.4640 O.2     9  ASN9       -0.2867
      5  CB        15.4100   36.4370    6.4130 C.3     9  ASN9        0.1155
      6  CG        14.0430   36.0950    5.8830 C.2     9  ASN9        0.2627
      7  OD1       13.1250   36.9040    5.9190 O.2     9  ASN9       -0.2716
      8  ND2       13.9040   34.8990    5.3430 N.am    9  ASN9       -0.0877
      9  N         13.1660   38.2350    3.2180 N.3    11  LEU11      -0.1231
     10  CA        12.0760   37.6090    2.4640 C.3    11  LEU11       0.1693
     11  C         10.7240   37.5180    3.1840 C.2    11  LEU11       0.2593
     12  O          9.7670   37.0090    2.6000 O.2    11  LEU11      -0.2718
     13  CB        12.5100   36.2150    1.9810 C.3    11  LEU11       0.0284
     14  CG        13.6790   36.1730    0.9740 C.3    11  LEU11       0.0019
     15  CD1       14.2580   34.7740    0.8650 C.3    11  LEU11       0.0001
     16  CD2       13.2620   36.6910   -0.4030 C.3    11  LEU11       0.0001
     17  N         10.6350   38.0130    4.4100 N.am   12  GLY12      -0.1942
     18  CA         9.3670   37.9950    5.1440 C.3    12  GLY12       0.2014
     19  C          9.2920   37.0330    6.3180 C.2    12  GLY12       0.2639
     20  O          8.1870   36.6550    6.7340 O.2    12  GLY12      -0.2714
     21  N         10.4510   36.6170    6.8560 N.am   13  SER13      -0.1949
     22  CA        10.5050   35.7440    8.0300 C.3    13  SER13       0.1924
     23  C         10.9480   36.5130    9.2330 C.2    13  SER13       0.2314
     24  O         11.8020   37.4020    9.1210 O.2    13  SER13      -0.2863
     25  CB        11.5590   34.6540    7.8580 C.3    13  SER13       0.2116
     26  OG        11.2210   33.5960    6.9850 O.3    13  SER13      -0.2180
     27  N          9.3530   30.6540   15.0130 N.3    29  TYR29      -0.1227
     28  CA         9.6610   31.0980   13.6560 C.3    29  TYR29       0.1736
     29  C          8.3320   31.4570   13.0150 C.2    29  TYR29       0.2595
     30  O          7.3880   30.6530   13.0580 O.2    29  TYR29      -0.2718
     31  CB        10.3520   29.9630   12.8750 C.3    29  TYR29       0.0548
     32  CG        11.0590   30.4470   11.6280 C.ar   29  TYR29      -0.0200
     33  CD1       10.3510   30.7240   10.4600 C.ar   29  TYR29      -0.0009
     34  CD2       12.4330   30.6620   11.6240 C.ar   29  TYR29      -0.0009
     35  CE1       11.0030   31.1930    9.3130 C.ar   29  TYR29       0.0417
     36  CE2       13.0880   31.1520   10.4980 C.ar   29  TYR29       0.0417
     37  CZ        12.3700   31.4180    9.3470 C.ar   29  TYR29       0.1957
     38  OH        13.0220   31.9150    8.2290 O.3    29  TYR29      -0.2866
     39  N          8.2260   32.6530   12.4370 N.am   30  GLU30      -0.1965
     40  CA         6.9540   33.1110   11.8810 C.3    30  GLU30       0.1733
     41  C          7.0860   34.0040   10.6470 C.2    30  GLU30       0.2617
     42  O          8.1890   34.2950   10.1940 O.2    30  GLU30      -0.2715
     43  CB         6.1500   33.8270   12.9940 C.3    30  GLU30       0.0429
     44  CG         6.8450   35.0490   13.5830 C.3    30  GLU30       0.1163
     45  CD         6.3570   35.5880   14.9160 C.2    30  GLU30       0.3649
     46  OE1        6.0900   34.7810   15.8360 O.co2  30  GLU30      -0.2457
     47  OE2        6.3600   36.8300   15.0760 O.co2  30  GLU30      -0.2457
     48  N          5.9410   34.4110   10.0800 N.am   31  SER31      -0.1950
     49  CA         5.9310   35.3290    8.9460 C.3    31  SER31       0.1924
     50  C          6.1330   36.7480    9.5110 C.2    31  SER31       0.2314
     51  O          6.0090   36.9590   10.7300 O.2    31  SER31      -0.2863
     52  CB         4.5970   35.2470    8.2100 C.3    31  SER31       0.2116
     53  OG         3.5660   35.7830    9.0260 O.3    31  SER31      -0.2180
     54  N         -1.4160   31.5960   12.8340 N.3    37  GLU37      -0.1182
     55  CA        -1.3490   30.5220   11.8430 C.3    37  GLU37       0.1915
     56  C          0.0050   30.3920   11.1430 C.2    37  GLU37       0.2635
     57  O          0.2750   29.3330   10.5850 O.2    37  GLU37      -0.2714
     58  CB        -2.4830   30.6120   10.8120 C.2    37  GLU37       0.0085
     59  CG        -2.4790   31.8590    9.9460 C.2    37  GLU37       0.0835
     60  CD        -3.7550   32.1370    9.1690 C.2    37  GLU37       0.3877
     61  OE1       -4.8480   31.7360    9.6320 O.co2  37  GLU37      -0.2406
     62  OE2       -3.6590   32.7780    8.0970 O.co2  37  GLU37      -0.2406
     63  N          0.8620   31.4420   11.1820 N.am   38  SER38      -0.1949
     64  CA         2.1740   31.3630   10.5410 C.3    38  SER38       0.1924
     65  C          3.3160   31.1310   11.5590 C.2    38  SER38       0.2314
     66  O          4.4700   31.1220   11.1430 O.2    38  SER38      -0.2863
     67  CB         2.4540   32.6390    9.7550 C.3    38  SER38       0.2116
     68  OG         2.7560   33.7150   10.6330 O.3    38  SER38      -0.2180
     69  N          5.5610   28.8840   14.2510 N.3    40  TYR40      -0.1241
     70  CA         5.9740   27.4980   14.4250 C.3    40  TYR40       0.1605
     71  C          7.0740   27.4130   15.4650 C.2    40  TYR40       0.2264
     72  O          7.8810   28.3400   15.6180 O.2    40  TYR40      -0.2867
     73  CB         6.5120   26.9390   13.0810 C.3    40  TYR40       0.0534
     74  CG         5.4530   26.8880   12.0040 C.ar   40  TYR40      -0.0201
     75  CD1        5.1680   28.0040   11.2210 C.ar   40  TYR40      -0.0009
     76  CD2        4.6840   25.7440   11.8140 C.ar   40  TYR40      -0.0009
     77  CE1        4.1350   27.9800   10.2820 C.ar   40  TYR40       0.0417
     78  CE2        3.6500   25.7130   10.8880 C.ar   40  TYR40       0.0417
     79  CZ         3.3660   26.8360   10.1420 C.ar   40  TYR40       0.1957
     80  OH         2.3340   26.7480    9.2400 O.3    40  TYR40      -0.2866
     81  N          7.1660   22.1710    9.9770 N.3    65  TRP65      -0.1241
     82  CA         6.1000   23.0460    9.5080 C.3    65  TRP65       0.1605
     83  C          4.6950   22.5340    9.8220 C.2    65  TRP65       0.2264
     84  O          3.8340   22.4280    8.9360 O.2    65  TRP65      -0.2867
     85  CB         6.2720   23.3660    8.0300 C.3    65  TRP65       0.0550
     86  CG         7.5730   24.0650    7.7830 C.ar   65  TRP65       0.0003
     87  CD1        8.6960   23.5190    7.2280 C.ar   65  TRP65       0.0946
     88  CD2        7.9380   25.3980    8.1970 C.ar   65  TRP65       0.0152
     89  NE1        9.7080   24.4420    7.2020 N.ar   65  TRP65      -0.2442
     90  CE2        9.2890   25.5890    7.8320 C.ar   65  TRP65       0.0810
     91  CE3        7.2560   26.4390    8.8450 C.ar   65  TRP65       0.0012
     92  CZ2        9.9510   26.8030    8.0260 C.ar   65  TRP65       0.0191
     93  CZ3        7.9200   27.6390    9.0570 C.ar   65  TRP65       0.0001
     94  CH2        9.2520   27.8090    8.6560 C.ar   65  TRP65       0.0015
     95  N         -1.9960   24.4920   10.5000 N.3    70  ARG70      -0.1245
     96  CA        -1.5390   23.9710    9.2240 C.3    70  ARG70       0.1563
     97  C         -0.5080   22.8750    9.4100 C.2    70  ARG70       0.2260
     98  O          0.1870   22.8360   10.4260 O.2    70  ARG70      -0.2867
     99  CB        -0.8200   25.1190    8.4690 C.3    70  ARG70       0.0307
    100  CG        -1.7270   26.2730    8.0500 C.3    70  ARG70       0.0489
    101  CD        -0.9440   27.5490    7.8210 C.3    70  ARG70       0.2205
    102  NE        -1.8320   28.6070    7.3320 N.pl3  70  ARG70      -0.0865
    103  CZ        -1.4730   29.8720    7.1390 C.cat  70  ARG70       0.5346
    104  NH1       -2.3490   30.7520    6.6770 N.pl3  70  ARG70       0.1354
    105  NH2       -0.2370   30.2690    7.4130 N.pl3  70  ARG70       0.1354
    106  N          2.4030   21.2870    6.6710 N.3    72  ALA72      -0.1245
    107  CA         2.9970   21.1780    5.3520 C.3    72  ALA72       0.1562
    108  C          3.7350   19.8440    5.1750 C.2    72  ALA72       0.2260
    109  O          4.2390   19.5970    4.0820 O.2    72  ALA72      -0.2867
    110  CB         3.9640   22.3280    5.1120 C.3    72  ALA72       0.0290
    111  N          6.6240   18.7940    6.3620 N.3    74  SER74      -0.1217
    112  CA         7.9900   19.1420    6.0080 C.3    74  SER74       0.1889
    113  C          8.6970   19.7310    7.1990 C.2    74  SER74       0.2288
    114  O          8.0640   20.1160    8.1940 O.2    74  SER74      -0.2866
    115  CB         8.0230   20.1170    4.8310 C.3    74  SER74       0.2089
    116  OG         7.4090   21.3550    5.1520 O.3    74  SER74      -0.2183
    117  N         12.4480   22.2240    8.1010 N.3    76  THR76      -0.1218
    118  CA        13.6610   22.9080    7.6630 C.3    76  THR76       0.1862
    119  C         14.6730   22.8800    8.8010 C.2    76  THR76       0.2287
    120  O         14.3210   23.0870    9.9650 O.2    76  THR76      -0.2866
    121  CB        13.3570   24.3710    7.2900 C.3    76  THR76       0.1770
    122  OG1       12.4410   24.4040    6.2090 O.3    76  THR76      -0.2211
    123  CG2       14.6100   25.1450    6.8610 C.3    76  THR76       0.0375
    124  N         18.3970   24.8370    9.6700 N.3    78  TRP78      -0.1241
    125  CA        19.3450   25.9040    9.3370 C.3    78  TRP78       0.1605
    126  C         20.6340   25.6000   10.0910 C.2    78  TRP78       0.2264
    127  O         20.5910   25.3440   11.2980 O.2    78  TRP78      -0.2867
    128  CB        18.8340   27.2720    9.8250 C.3    78  TRP78       0.0550
    129  CG        17.6680   27.8380    9.0770 C.ar   78  TRP78       0.0003
    130  CD1       17.6980   28.8660    8.1750 C.ar   78  TRP78       0.0946
    131  CD2       16.2770   27.5100    9.2680 C.ar   78  TRP78       0.0152
    132  NE1       16.4100   29.1890    7.7770 N.ar   78  TRP78      -0.2442
    133  CE2       15.5230   28.3990    8.4640 C.ar   78  TRP78       0.0810
    134  CE3       15.5900   26.6010   10.0980 C.ar   78  TRP78       0.0012
    135  CZ2       14.1170   28.3790    8.4380 C.ar   78  TRP78       0.0191
    136  CZ3       14.2020   26.5830   10.0680 C.ar   78  TRP78       0.0001
    137  CH2       13.4820   27.4780    9.2650 C.ar   78  TRP78       0.0015
    138  N         20.4740   26.1090    4.6390 N.3    94  TRP94      -0.1241
    139  CA        19.3460   25.3580    5.1290 C.3    94  TRP94       0.1605
    140  C         18.9480   24.2330    4.2040 C.2    94  TRP94       0.2264
    141  O         19.2860   24.2360    3.0030 O.2    94  TRP94      -0.2867
    142  CB        18.1500   26.2900    5.4530 C.3    94  TRP94       0.0550
    143  CG        17.7090   27.1340    4.2870 C.ar   94  TRP94       0.0003
    144  CD1       17.9770   28.4580    4.0980 C.ar   94  TRP94       0.0946
    145  CD2       16.8900   26.7270    3.1910 C.ar   94  TRP94       0.0152
    146  NE1       17.4140   28.8900    2.9170 N.ar   94  TRP94      -0.2442
    147  CE2       16.6950   27.8590    2.3670 C.ar   94  TRP94       0.0810
    148  CE3       16.2590   25.5200    2.8470 C.ar   94  TRP94       0.0012
    149  CZ2       15.9450   27.8010    1.1870 C.ar   94  TRP94       0.0191
    150  CZ3       15.5260   25.4590    1.6750 C.ar   94  TRP94       0.0001
    151  CH2       15.3580   26.5940    0.8710 C.ar   94  TRP94       0.0015
    152  N         15.3500   21.9070    3.4740 N.3    96  LEU96      -0.1245
    153  CA        13.9150   21.7330    3.7120 C.3    96  LEU96       0.1561
    154  C         13.4830   20.3740    3.1340 C.2    96  LEU96       0.2260
    155  O         13.3470   20.2430    1.9110 O.2    96  LEU96      -0.2867
    156  CB        13.1110   22.9290    3.1340 C.3    96  LEU96       0.0270
    157  CG        11.5980   22.7760    2.8540 C.3    96  LEU96       0.0019
    158  CD1       10.8340   22.3080    4.0780 C.3    96  LEU96       0.0001
    159  CD2       11.0080   24.0810    2.3360 C.3    96  LEU96       0.0001
    160  N         20.1210   29.2930    1.2990 N.3   113  HIS113     -0.1226
    161  CA        20.9250   30.0430    2.2640 C.3   113  HIS113      0.1752
    162  C         20.1260   31.2180    2.7240 C.2   113  HIS113      0.2596
    163  O         19.2590   31.7030    2.0110 O.2   113  HIS113     -0.2718
    164  CB        22.2110   30.5390    1.6050 C.3   113  HIS113      0.0759
    165  CG        21.9660   31.2120    0.2890 C.ar  113  HIS113      0.0818
    166  ND1       21.9070   32.5870    0.1860 N.ar  113  HIS113     -0.2268
    167  CD2       21.7140   30.6710   -0.9290 C.ar  113  HIS113      0.1154
    168  CE1       21.6650   32.8390   -1.0950 C.ar  113  HIS113      0.1986
    169  NE2       21.5410   31.7170   -1.8000 N.ar  113  HIS113     -0.2212
    170  N         20.4090   31.6900    3.9370 N.am  114  ASP114     -0.1974
    171  CA        19.7200   32.8900    4.3710 C.3   114  ASP114      0.1709
    172  C         20.5250   33.5660    5.4340 C.2   114  ASP114      0.2293
    173  O         21.1440   32.8960    6.2520 O.2   114  ASP114     -0.2864
    174  CB        18.3680   32.5590    4.9550 C.3   114  ASP114      0.1436
    175  CG        17.3870   33.6900    4.8190 C.2   114  ASP114      0.3671
    176  OD1       17.7650   34.7720    4.2380 O.co2 114  ASP114     -0.2456
    177  OD2       16.2670   33.5280    5.2870 O.co2 114  ASP114     -0.2456
@<TRIPOS>BOND
     1   169   168   ar
     2   169   167   ar
     3   168   166   ar
     4   167   165   ar
     5    16    14    1
     6   166   165   ar
     7   165   164    1
     8    15    14    1
     9   151   149   ar
    10   151   150   ar
    11    14    13    1
    12   149   147   ar
    13   160   161    1
    14   164   161    1
    15   150   148   ar
    16   155   154    2
    17    13    10    1
    18   163   162    2
    19   161   162    1
    20   159   157    1
    21   147   146   ar
    22   147   145   ar
    23    10    11    1
    24    10     9    1
    25    12    11    2
    26   162   170   am
    27   148   145   ar
    28   157   156    1
    29   157   158    1
    30   146   144   ar
    31   141   140    2
    32   154   153    1
    33   156   153    1
    34    11    17   am
    35   145   143   ar
    36   152   153    1
    37   170   171    1
    38   109   108    2
    39   144   143   ar
    40   140   139    1
    41   176   175   ar
    42   143   142    1
    43   171   174    1
    44   171   172    1
    45    17    18    1
    46   138   139    1
    47   175   174    1
    48   175   177   ar
    49   115   116    1
    50   115   112    1
    51   110   107    1
    52   139   142    1
    53    18    19    1
    54   108   107    1
    55     8     6   am
    56   107   106    1
    57   172   173    2
    58     6     7    2
    59     6     5    1
    60   112   111    1
    61   112   113    1
    62     3     4    2
    63     3     2    1
    64   122   121    1
    65    19    20    2
    66    19    21   am
    67     5     2    1
    68   104   103    1
    69    21    22    1
    70   123   121    1
    71     2     1    1
    72    26    25    1
    73   103   102    2
    74   103   105    1
    75   113   114    2
    76    89    87   ar
    77    89    90   ar
    78    87    86   ar
    79   121   118    1
    80   102   101    1
    81   118   117    1
    82   118   119    1
    83   132   130   ar
    84   132   133   ar
    85    86    85    1
    86    86    88   ar
    87   101   100    1
    88    90    92   ar
    89    90    88   ar
    90    25    22    1
    91    92    94   ar
    92    85    82    1
    93    22    23    1
    94   100    99    1
    95    62    60   ar
    96   130   129   ar
    97    88    91   ar
    98    52    49    1
    99    52    53    1
   100    38    37    1
   101   135   133   ar
   102   135   137   ar
   103   133   131   ar
   104    99    96    1
   105    94    93   ar
   106   119   120    2
   107    91    93   ar
   108    84    83    2
   109    49    50    1
   110    49    48    1
   111   129   131   ar
   112   129   128    1
   113    24    23    2
   114    60    61   ar
   115    60    59    1
   116    96    97    1
   117    96    95    1
   118    80    79    1
   119   137   136   ar
   120   131   134   ar
   121    35    37   ar
   122    35    33   ar
   123   125   124    1
   124   125   128    1
   125   125   126    1
   126    37    36   ar
   127    97    98    2
   128    82    83    1
   129    82    81    1
   130    50    51    2
   131    67    64    1
   132    67    68    1
   133    59    58    2
   134   136   134   ar
   135    48    41   am
   136   126   127    2
   137    79    77   ar
   138    79    78   ar
   139    42    41    2
   140    77    75   ar
   141    33    32   ar
   142    36    34   ar
   143    64    63    1
   144    64    65    1
   145    57    56    2
   146    41    40    1
   147    58    55    1
   148    78    76   ar
   149    56    63   am
   150    56    55    1
   151    66    65    2
   152    75    74   ar
   153    34    32   ar
   154    32    31    1
   155    76    74   ar
   156    55    54    1
   157    40    39    1
   158    40    43    1
   159    74    73    1
   160    39    29   am
   161    31    28    1
   162    43    44    1
   163    29    30    2
   164    29    28    1
   165    73    70    1
   166    44    45    1
   167    28    27    1
   168    69    70    1
   169    70    71    1
   170    45    47   ar
   171    45    46   ar
   172    71    72    2
