@<TRIPOS>MOLECULE
tmp/6avoS00.pdb
 117 116 0 0 0
SMALL
GASTEIGER

@<TRIPOS>ATOM
      1  N        131.8300  170.3730  159.2520 N.3   100  ARG100     -0.1245
      2  CA       133.0150  170.1570  160.0780 C.3   100  ARG100      0.1563
      3  C        133.9380  169.0910  159.5170 C.2   100  ARG100      0.2260
      4  O        135.1120  169.0190  159.8920 O.2   100  ARG100     -0.2867
      5  CB       132.5770  169.7930  161.4940 C.3   100  ARG100      0.0307
      6  CG       133.6720  169.3160  162.4220 C.3   100  ARG100      0.0489
      7  CD       134.7550  170.3320  162.6230 C.3   100  ARG100      0.2205
      8  NE       135.7000  169.8670  163.6260 N.pl3 100  ARG100     -0.0865
      9  CZ       136.6870  169.0140  163.3880 C.cat 100  ARG100      0.5346
     10  NH1      136.8510  168.4980  162.1820 N.pl3 100  ARG100      0.1354
     11  NH2      137.4970  168.6570  164.3700 N.pl3 100  ARG100      0.1354
     12  N        135.8520  170.8640  155.2900 N.3   103  PRO103     -0.2116
     13  CA       135.5580  172.2440  155.6720 C.3   103  PRO103      0.1372
     14  C        135.3950  173.1850  154.4930 C.2   103  PRO103      0.2244
     15  O        135.9070  172.9500  153.3990 O.2   103  PRO103     -0.2868
     16  CB       136.7800  172.6370  156.5050 C.3   103  PRO103      0.0268
     17  CG       137.3450  171.3690  156.9680 C.3   103  PRO103      0.0207
     18  CD       137.1230  170.4060  155.8630 C.3   103  PRO103      0.0892
     19  N        137.0640  176.1930  153.4640 N.3   105  TYR105     -0.1241
     20  CA       138.4210  176.6060  153.8040 C.3   105  TYR105      0.1605
     21  C        138.5600  178.1060  153.5470 C.2   105  TYR105      0.2264
     22  O        139.3640  178.5640  152.7370 O.2   105  TYR105     -0.2867
     23  CB       139.4080  175.7790  152.9990 C.3   105  TYR105      0.0534
     24  CG       140.8520  175.9890  153.3170 C.ar  105  TYR105     -0.0201
     25  CD1      141.4110  175.4520  154.4520 C.ar  105  TYR105     -0.0009
     26  CD2      141.6680  176.6890  152.4520 C.ar  105  TYR105     -0.0009
     27  CE1      142.7400  175.6310  154.7300 C.ar  105  TYR105      0.0417
     28  CE2      142.9940  176.8730  152.7190 C.ar  105  TYR105      0.0417
     29  CZ       143.5280  176.3440  153.8560 C.ar  105  TYR105      0.1957
     30  OH       144.8630  176.5350  154.1160 O.3   105  TYR105     -0.2866
     31  N        138.7020  181.8480  155.4810 N.3   107  TYR107     -0.1241
     32  CA       138.8560  182.6990  156.6530 C.3   107  TYR107      0.1605
     33  C        137.9470  183.9110  156.5310 C.2   107  TYR107      0.2264
     34  O        138.3150  184.8990  155.8950 O.2   107  TYR107     -0.2867
     35  CB       140.2980  183.1750  156.7930 C.3   107  TYR107      0.0534
     36  CG       141.2890  182.0910  157.0780 C.ar  107  TYR107     -0.0201
     37  CD1      141.4850  181.6270  158.3600 C.ar  107  TYR107     -0.0009
     38  CD2      142.0310  181.5300  156.0620 C.ar  107  TYR107     -0.0009
     39  CE1      142.3950  180.6340  158.6240 C.ar  107  TYR107      0.0417
     40  CE2      142.9430  180.5380  156.3120 C.ar  107  TYR107      0.0417
     41  CZ       143.1220  180.0910  157.5950 C.ar  107  TYR107      0.1957
     42  OH       144.0330  179.0950  157.8500 O.3   107  TYR107     -0.2866
     43  N        135.9560  187.6120  163.8090 N.3   123  SER123     -0.1202
     44  CA       136.8990  186.8550  163.0060 C.3   123  SER123      0.2020
     45  C        136.6320  185.3740  163.1980 C.2   123  SER123      0.2619
     46  O        136.3360  184.9280  164.3060 O.2   123  SER123     -0.2717
     47  CB       138.3320  187.1840  163.3750 C.3   123  SER123      0.2103
     48  OG       138.6230  186.7890  164.6950 O.3   123  SER123     -0.2182
     49  N        136.6880  184.6160  162.1050 N.am  124  PHE124     -0.1961
     50  CA       136.3310  183.2080  162.1510 C.3   124  PHE124      0.1771
     51  C        137.5390  182.3680  161.7910 C.2   124  PHE124      0.2620
     52  O        138.6360  182.8810  161.5700 O.2   124  PHE124     -0.2715
     53  CB       135.2100  182.8130  161.1870 C.3   124  PHE124      0.0574
     54  CG       133.8950  183.4690  161.4590 C.ar  124  PHE124     -0.0200
     55  CD1      133.6920  184.2420  162.5650 C.ar  124  PHE124     -0.0042
     56  CD2      132.8350  183.2520  160.6310 C.ar  124  PHE124     -0.0042
     57  CE1      132.4870  184.8480  162.7950 C.ar  124  PHE124     -0.0003
     58  CE2      131.6310  183.8440  160.8880 C.ar  124  PHE124     -0.0003
     59  CZ       131.4610  184.6380  161.9680 C.ar  124  PHE124     -0.0000
     60  N        137.3200  181.0700  161.7560 N.am  125  ASP125     -0.1958
     61  CA       138.2500  180.1240  161.1690 C.3   125  ASP125      0.1825
     62  C        137.4820  179.1670  160.2750 C.2   125  ASP125      0.2464
     63  O        136.2550  179.2020  160.2210 O.2   125  ASP125     -0.2730
     64  CB       139.0260  179.4070  162.2740 C.3   125  ASP125      0.1450
     65  CG       138.1550  178.5200  163.1590 C.2   125  ASP125      0.3671
     66  OD1      136.9340  178.4270  162.9550 O.co2 125  ASP125     -0.2456
     67  OD2      138.7080  177.9110  164.0980 O.co2 125  ASP125     -0.2456
     68  N        138.1700  178.2820  159.5590 N.am  126  PRO126     -0.2715
     69  CA       137.4740  177.4730  158.5540 C.3   126  PRO126      0.1536
     70  C        136.4600  176.4930  159.1060 C.2   126  PRO126      0.2598
     71  O        135.6670  175.9630  158.3240 O.2   126  PRO126     -0.2715
     72  CB       138.6190  176.7420  157.8550 C.3   126  PRO126      0.0310
     73  CG       139.7850  177.6000  158.0710 C.3   126  PRO126      0.0237
     74  CD       139.6270  178.1690  159.4220 C.3   126  PRO126      0.0939
     75  N        136.4350  176.2250  160.4080 N.am  127  VAL127     -0.1978
     76  CA       135.5140  175.2220  160.9310 C.3   127  VAL127      0.1596
     77  C        134.5810  175.8060  161.9800 C.2   127  VAL127      0.2287
     78  O        134.0830  175.0750  162.8370 O.2   127  VAL127     -0.2864
     79  CB       136.2670  174.0110  161.5000 C.3   127  VAL127      0.0276
     80  CG1      137.1160  173.3820  160.4290 C.3   127  VAL127      0.0022
     81  CG2      137.1040  174.4150  162.6820 C.3   127  VAL127      0.0022
     82  N        134.0130  178.4270  165.1340 N.3   129  SER129     -0.1202
     83  CA       134.9530  178.9550  166.1220 C.3   129  SER129      0.2020
     84  C        135.1430  180.4660  166.0250 C.2   129  SER129      0.2619
     85  O        136.2120  180.9450  165.6630 O.2   129  SER129     -0.2717
     86  CB       136.3050  178.2690  165.9650 C.3   129  SER129      0.2103
     87  OG       137.2220  178.8170  166.8780 O.3   129  SER129     -0.2182
     88  N        134.0990  181.2180  166.3280 N.am  130  TYR130     -0.1961
     89  CA       134.1880  182.6500  166.1230 C.3   130  TYR130      0.1771
     90  C        134.5090  183.3420  167.4310 C.2   130  TYR130      0.2619
     91  O        134.7070  182.7100  168.4660 O.2   130  TYR130     -0.2715
     92  CB       132.8970  183.2130  165.5520 C.3   130  TYR130      0.0574
     93  CG       131.7370  183.2590  166.4940 C.ar  130  TYR130     -0.0198
     94  CD1      130.8900  182.1870  166.6300 C.ar  130  TYR130     -0.0009
     95  CD2      131.4510  184.4060  167.2040 C.ar  130  TYR130     -0.0009
     96  CE1      129.8120  182.2440  167.4830 C.ar  130  TYR130      0.0417
     97  CE2      130.3890  184.4730  168.0550 C.ar  130  TYR130      0.0417
     98  CZ       129.5650  183.3960  168.1940 C.ar  130  TYR130      0.1957
     99  OH       128.4940  183.4850  169.0530 O.3   130  TYR130     -0.2866
    100  N        134.5340  184.6640  167.3690 N.am  131  GLN131     -0.1977
    101  CA       134.7190  185.5000  168.5420 C.3   131  GLN131      0.1601
    102  C        134.5080  186.9400  168.1200 C.2   131  GLN131      0.2287
    103  O        134.4920  187.2480  166.9290 O.2   131  GLN131     -0.2864
    104  CB       136.1130  185.3460  169.1130 C.3   131  GLN131      0.0394
    105  CG       137.0990  185.8520  168.1330 C.3   131  GLN131      0.0908
    106  CD       138.4970  185.7230  168.6070 C.2   131  GLN131      0.2608
    107  OE1      138.7500  185.3000  169.7290 O.2   131  GLN131     -0.2717
    108  NE2      139.4300  186.0920  167.7540 N.am  131  GLN131     -0.0878
    109  N        141.2630  192.8770  163.3710 N.3   136  LYS136     -0.1245
    110  CA       141.6480  191.5400  162.9610 C.3   136  LYS136      0.1561
    111  C        142.1190  191.5690  161.5220 C.2   136  LYS136      0.2260
    112  O        141.5680  192.3050  160.7050 O.2   136  LYS136     -0.2867
    113  CB       140.4680  190.5830  163.1050 C.3   136  LYS136      0.0271
    114  CG       140.7810  189.1500  162.7810 C.3   136  LYS136      0.0035
    115  CD       141.6310  188.4960  163.8580 C.3   136  LYS136      0.0206
    116  CE       141.7980  187.0090  163.5790 C.3   136  LYS136      0.1093
    117  NZ       142.6850  186.3430  164.5580 N.3   136  LYS136     -0.1314
@<TRIPOS>BOND
     1    26    28   ar
     2    26    24   ar
     3    28    29   ar
     4    22    21    2
     5    23    24    1
     6    23    20    1
     7    24    25   ar
     8    15    14    2
     9    19    20    1
    10    21    20    1
    11    29    30    1
    12    29    27   ar
    13    25    27   ar
    14    14    13    1
    15    12    13    1
    16    12    18    1
    17    31    32    1
    18    13    16    1
    19    18    17    1
    20    34    33    2
    21    38    40   ar
    22    38    36   ar
    23    40    41   ar
    24    16    17    1
    25    33    32    1
    26    32    35    1
    27    35    36    1
    28    36    37   ar
    29    41    42    1
    30    41    39   ar
    31    72    73    1
    32    72    69    1
    33    73    74    1
    34    71    70    2
    35    37    39   ar
    36    69    70    1
    37    69    68    1
    38    70    75   am
    39     1     2    1
    40    74    68    1
    41     3     4    2
    42     3     2    1
    43    68    62   am
    44     2     5    1
    45    63    62    2
    46    62    61    1
    47    75    76    1
    48    80    79    1
    49    56    58   ar
    50    56    54   ar
    51   112   111    2
    52    58    59   ar
    53    76    79    1
    54    76    77    1
    55    61    60    1
    56    61    64    1
    57    53    54    1
    58    53    50    1
    59    54    55   ar
    60     5     6    1
    61    79    81    1
    62   111   110    1
    63    52    51    2
    64    60    51   am
    65    51    50    1
    66    59    57   ar
    67    77    78    2
    68    49    50    1
    69    49    45   am
    70    10     9    1
    71    64    65    1
    72     6     7    1
    73    55    57   ar
    74     7     8    1
    75   114   113    1
    76   114   115    1
    77    66    65   ar
    78   110   113    1
    79   110   109    1
    80    44    45    1
    81    44    47    1
    82    44    43    1
    83    65    67   ar
    84    45    46    2
    85    47    48    1
    86     9     8    2
    87     9    11    1
    88   116   115    1
    89   116   117    1
    90    82    83    1
    91    92    89    1
    92    92    93    1
    93    85    84    2
    94    86    83    1
    95    86    87    1
    96    84    83    1
    97    84    88   am
    98    89    88    1
    99    89    90    1
   100    93    94   ar
   101    93    95   ar
   102    94    96   ar
   103   103   102    2
   104    95    97   ar
   105   100    90   am
   106   100   101    1
   107    90    91    2
   108    96    98   ar
   109   108   106   am
   110    97    98   ar
   111   102   101    1
   112   105   106    1
   113   105   104    1
   114    98    99    1
   115   101   104    1
   116   106   107    2
