@<TRIPOS>MOLECULE
tmp/6avoD00.pdb
 111 105 0 0 0
SMALL
GASTEIGER

@<TRIPOS>ATOM
      1  N        146.5160  176.6990  175.5580 N.3     1  THR1       -0.1218
      2  CA       145.4080  176.7230  176.5000 C.3     1  THR1        0.1862
      3  C        145.6370  175.8070  177.6910 C.2     1  THR1        0.2287
      4  O        146.0750  174.6670  177.5440 O.2     1  THR1       -0.2866
      5  CB       144.0990  176.3320  175.8170 C.3     1  THR1        0.1770
      6  OG1      143.7450  177.3450  174.8710 O.3     1  THR1       -0.2211
      7  CG2      142.9870  176.1740  176.8350 C.3     1  THR1        0.0375
      8  N        144.1990  181.8490  172.1620 N.3    20  ALA20      -0.1231
      9  CA       143.7770  180.8330  171.2110 C.3    20  ALA20       0.1694
     10  C        144.7130  180.8640  170.0170 C.2    20  ALA20       0.2593
     11  O        144.7330  181.8410  169.2650 O.2    20  ALA20      -0.2718
     12  CB       142.3390  181.0580  170.7640 C.3    20  ALA20       0.0304
     13  N        145.4740  179.7930  169.8370 N.am   21  SER21      -0.1938
     14  CA       146.6020  179.7890  168.9210 C.3    21  SER21       0.2055
     15  C        146.3740  178.7920  167.7980 C.2    21  SER21       0.2643
     16  O        146.2870  177.5850  168.0400 O.2    21  SER21      -0.2714
     17  CB       147.8950  179.4540  169.6650 C.3    21  SER21       0.2130
     18  OG       147.8590  178.1340  170.1740 O.3    21  SER21      -0.2179
     19  N        146.3100  179.2970  166.5740 N.am   22  ALA22      -0.1963
     20  CA       146.2250  178.4730  165.3750 C.3    22  ALA22       0.1728
     21  C        147.6300  177.9800  165.0730 C.2    22  ALA22       0.2616
     22  O        148.4150  178.6790  164.4300 O.2    22  ALA22      -0.2715
     23  CB       145.6550  179.2650  164.2060 C.3    22  ALA22       0.0334
     24  N        147.9460  176.7800  165.5400 N.am   23  GLY23      -0.1955
     25  CA       149.2760  176.2420  165.3490 C.3    23  GLY23       0.1869
     26  C        150.3420  177.0730  166.0300 C.2    23  GLY23       0.2309
     27  O        150.3340  177.2130  167.2550 O.2    23  GLY23      -0.2863
     28  N        146.1040  183.5540  167.2000 N.3    27  SER27      -0.1202
     29  CA       144.9680  184.1250  166.4910 C.3    27  SER27       0.2020
     30  C        144.3400  185.2610  167.2820 C.2    27  SER27       0.2618
     31  O        144.2230  186.3830  166.7850 O.2    27  SER27      -0.2717
     32  CB       143.9350  183.0420  166.1990 C.3    27  SER27       0.2103
     33  OG       144.4540  182.0650  165.3180 O.3    27  SER27      -0.2182
     34  N        143.9270  184.9930  168.5060 N.am   28  ALA28      -0.1979
     35  CA       143.3990  186.0280  169.3740 C.3    28  ALA28       0.1597
     36  C        143.8490  185.7500  170.7880 C.2    28  ALA28       0.2287
     37  O        143.9700  184.5900  171.1870 O.2    28  ALA28      -0.2864
     38  CB       141.8940  186.0860  169.3370 C.3    28  ALA28       0.0319
     39  N        140.4640  185.8480  174.2820 N.3    31  VAL31      -0.1231
     40  CA       139.3310  184.9570  174.0650 C.3    31  VAL31       0.1692
     41  C        138.6360  184.6460  175.3810 C.2    31  VAL31       0.2592
     42  O        139.2930  184.4750  176.4130 O.2    31  VAL31      -0.2718
     43  CB       139.8030  183.6620  173.4000 C.3    31  VAL31       0.0266
     44  CG1      138.7620  182.6110  173.5580 C.3    31  VAL31       0.0020
     45  CG2      140.0870  183.9090  171.9540 C.3    31  VAL31       0.0020
     46  N        137.3080  184.5450  175.3440 N.am   32  ASN32      -0.1960
     47  CA       136.5410  184.0310  176.4720 C.3    32  ASN32       0.1819
     48  C        136.3280  182.5300  176.3080 C.2    32  ASN32       0.2621
     49  O        135.6080  182.1010  175.4020 O.2    32  ASN32      -0.2715
     50  CB       135.2010  184.7480  176.5660 C.3    32  ASN32       0.1195
     51  CG       134.4810  184.4440  177.8440 C.2    32  ASN32       0.2630
     52  OD1      134.9800  183.7000  178.6830 O.2    32  ASN32      -0.2716
     53  ND2      133.2970  185.0140  178.0060 N.am   32  ASN32      -0.0877
     54  N        136.9210  181.7320  177.1980 N.am   33  LYS33      -0.1977
     55  CA       136.9380  180.2800  177.0510 C.3    33  LYS33       0.1596
     56  C        135.8660  179.5510  177.8500 C.2    33  LYS33       0.2287
     57  O        135.7040  178.3420  177.6700 O.2    33  LYS33      -0.2864
     58  CB       138.3010  179.7170  177.4450 C.3    33  LYS33       0.0298
     59  CG       139.4010  180.0030  176.4690 C.3    33  LYS33       0.0038
     60  CD       140.6870  179.3510  176.9170 C.3    33  LYS33       0.0206
     61  CE       141.8380  179.7470  176.0140 C.3    33  LYS33       0.1093
     62  NZ       143.1470  179.2200  176.4700 N.3    33  LYS33      -0.1314
     63  N        136.3170  175.1300  178.0560 N.3    45  MET45      -0.1230
     64  CA       136.6050  174.6170  176.7240 C.3    45  MET45       0.1702
     65  C        138.1000  174.4620  176.4880 C.2    45  MET45       0.2593
     66  O        138.9140  175.0910  177.1630 O.2    45  MET45      -0.2718
     67  CB       135.9980  175.5310  175.6570 C.3    45  MET45       0.0401
     68  CG       134.8570  176.4010  176.1610 C.3    45  MET45       0.0596
     69  SD       134.4230  177.7170  175.0080 S.3    45  MET45      -0.1393
     70  CE       133.0860  178.5150  175.8930 C.3    45  MET45       0.0692
     71  N        138.4530  173.6200  175.5250 N.am   46  SER46      -0.1938
     72  CA       139.8530  173.3950  175.1920 C.3    46  SER46       0.2055
     73  C        139.9530  172.6050  173.9000 C.2    46  SER46       0.2644
     74  O        138.9550  172.0680  173.4170 O.2    46  SER46      -0.2714
     75  CB       140.5860  172.6520  176.2980 C.3    46  SER46       0.2130
     76  OG       141.9320  172.4490  175.9260 O.3    46  SER46      -0.2179
     77  N        141.1540  172.5390  173.3450 N.am   47  GLY47      -0.1939
     78  CA       141.3530  171.8000  172.1190 C.3    47  GLY47       0.2014
     79  C        140.9220  172.6160  170.9250 C.2    47  GLY47       0.2639
     80  O        141.0260  173.8450  170.9430 O.2    47  GLY47      -0.2714
     81  N        140.4420  171.9560  169.8790 N.am   48  CYS48      -0.1953
     82  CA       139.8930  172.6770  168.7420 C.3    48  CYS48       0.1843
     83  C        138.6870  173.4760  169.2120 C.2    48  CYS48       0.2625
     84  O        137.8160  172.9450  169.9040 O.2    48  CYS48      -0.2714
     85  CB       139.5140  171.7070  167.6290 C.3    48  CYS48       0.0997
     86  SG       138.9710  172.5010  166.1100 S.3    48  CYS48      -0.0797
     87  N        138.6510  174.7580  168.8650 N.am   49  ALA49      -0.1963
     88  CA       137.6940  175.6570  169.4940 C.3    49  ALA49       0.1728
     89  C        136.2780  175.3800  169.0260 C.2    49  ALA49       0.2616
     90  O        135.3500  175.3040  169.8400 O.2    49  ALA49      -0.2715
     91  CB       138.0690  177.1020  169.2050 C.3    49  ALA49       0.0334
     92  N        136.0890  175.2370  167.7130 N.am   50  ALA50      -0.1977
     93  CA       134.7410  175.1620  167.1580 C.3    50  ALA50       0.1597
     94  C        133.9580  173.9970  167.7270 C.2    50  ALA50       0.2287
     95  O        132.7300  174.0670  167.8380 O.2    50  ALA50      -0.2864
     96  CB       134.8020  175.0480  165.6410 C.3    50  ALA50       0.0319
     97  N        134.2090  172.8940  170.8860 N.3    52  CYS52      -0.1221
     98  CA       133.7310  173.3060  172.1980 C.3    52  CYS52       0.1808
     99  C        132.6040  174.3180  172.0800 C.2    52  CYS52       0.2601
    100  O        131.5990  174.2230  172.7910 O.2    52  CYS52      -0.2717
    101  CB       134.8740  173.8660  173.0370 C.3    52  CYS52       0.0970
    102  SG       136.0180  172.6230  173.6210 S.3    52  CYS52      -0.0800
    103  N        132.7470  175.3010  171.1890 N.am   53  GLN53      -0.1979
    104  CA       131.6820  176.2860  171.0230 C.3    53  GLN53       0.1601
    105  C        130.3830  175.6390  170.5670 C.2    53  GLN53       0.2287
    106  O        129.3210  175.8650  171.1550 O.2    53  GLN53      -0.2864
    107  CB       132.0810  177.3670  170.0290 C.3    53  GLN53       0.0394
    108  CG       132.9810  178.4420  170.5430 C.3    53  GLN53       0.0908
    109  CD       133.1230  179.5140  169.5030 C.2    53  GLN53       0.2608
    110  OE1      132.6660  179.3450  168.3790 O.2    53  GLN53      -0.2717
    111  NE2      133.6950  180.6390  169.8720 N.am   53  GLN53      -0.0878
@<TRIPOS>BOND
     1    23    20    1
     2    22    21    2
     3    21    20    1
     4    21    24   am
     5    33    32    1
     6    25    24    1
     7    25    26    1
     8    20    19    1
     9    96    93    1
    10    26    27    2
    11    86    85    1
    12    32    29    1
    13    29    28    1
    14    29    30    1
    15    19    15   am
    16    31    30    2
    17    93    92    1
    18    93    94    1
    19    30    34   am
    20    85    82    1
    21    92    89   am
    22    94    95    2
    23    15    16    2
    24    15    14    1
    25   110   109    2
    26    34    35    1
    27    82    83    1
    28    82    81    1
    29    87    83   am
    30    87    88    1
    31    14    17    1
    32    14    13    1
    33    89    88    1
    34    89    90    2
    35    91    88    1
    36    83    84    2
    37    11    10    2
    38    38    35    1
    39    35    36    1
    40   109   111   am
    41   109   108    1
    42    17    18    1
    43    13    10   am
    44    81    79   am
    45    10     9    1
    46   107   108    1
    47   107   104    1
    48   105   104    1
    49   105   106    2
    50    12     9    1
    51    36    37    2
    52    97    98    1
    53    79    80    2
    54    79    78    1
    55   104   103    1
    56   103    99   am
    57     9     8    1
    58    45    43    1
    59    99    98    1
    60    99   100    2
    61    78    77    1
    62    98   101    1
    63   101   102    1
    64    77    73   am
    65    43    44    1
    66    43    40    1
    67    74    73    2
    68    73    72    1
    69    40    39    1
    70    40    41    1
    71     6     5    1
    72    69    70    1
    73    69    68    1
    74    72    71    1
    75    72    75    1
    76    46    41   am
    77    46    47    1
    78    41    42    2
    79    49    48    2
    80    71    65   am
    81     1     2    1
    82    67    68    1
    83    67    64    1
    84     5     2    1
    85     5     7    1
    86    76    75    1
    87    61    62    1
    88    61    60    1
    89    48    47    1
    90    48    54   am
    91    59    60    1
    92    59    58    1
    93    47    50    1
    94    65    64    1
    95    65    66    2
    96     2     3    1
    97    50    51    1
    98    64    63    1
    99    55    54    1
   100    55    58    1
   101    55    56    1
   102     4     3    2
   103    57    56    2
   104    51    53   am
   105    51    52    2
