@<TRIPOS>MOLECULE
tmp/6avpC02.pdb
 112 104 0 0 0
SMALL
GASTEIGER

@<TRIPOS>ATOM
      1  N         28.7830  -21.2040   -5.8640 N.3     4  ASP4       -0.1239
      2  CA        28.4170  -20.3320   -4.7540 C.3     4  ASP4        0.1674
      3  C         28.0650  -21.2510   -3.5920 C.2     4  ASP4        0.2266
      4  O         26.9600  -21.7790   -3.5250 O.2     4  ASP4       -0.2867
      5  CB        27.2370  -19.4240   -5.1260 C.3     4  ASP4        0.1410
      6  CG        26.8450  -18.4620   -4.0020 C.2     4  ASP4        0.3668
      7  OD1       27.0720  -18.7800   -2.8190 O.co2   4  ASP4       -0.2456
      8  OD2       26.2970  -17.3820   -4.3010 O.co2   4  ASP4       -0.2456
      9  N         26.9700  -21.5940   -0.2550 N.3     6  GLY6       -0.1210
     10  CA        26.3070  -20.7950    0.7620 C.3     6  GLY6        0.1956
     11  C         26.2350  -21.4670    2.1130 C.2     6  GLY6        0.2612
     12  O         26.7780  -22.5550    2.3320 O.2     6  GLY6       -0.2717
     13  N         25.5520  -20.8050    3.0340 N.am    7  GLY7       -0.1956
     14  CA        25.2840  -21.3780    4.3310 C.3     7  GLY7        0.1869
     15  C         24.4540  -22.6500    4.2980 C.2     7  GLY7        0.2309
     16  O         24.5860  -23.4800    5.1820 O.2     7  GLY7       -0.2863
     17  N         25.4440  -24.0670   -4.9370 N.3    11  LYS11      -0.1245
     18  CA        24.8820  -23.8660   -6.2610 C.3    11  LYS11       0.1561
     19  C         26.0390  -23.9790   -7.2280 C.2    11  LYS11       0.2260
     20  O         27.0420  -23.2920   -7.0690 O.2    11  LYS11      -0.2867
     21  CB        24.2190  -22.4740   -6.3740 C.3    11  LYS11       0.0271
     22  CG        22.8490  -22.3440   -5.7000 C.3    11  LYS11       0.0035
     23  CD        22.9040  -22.2810   -4.1760 C.3    11  LYS11       0.0206
     24  CE        23.1230  -20.8790   -3.6720 C.3    11  LYS11       0.1093
     25  NZ        23.3200  -20.8580   -2.2040 N.3    11  LYS11      -0.1314
     26  N         30.2760  -18.3700    1.5570 N.3    46  GLY46      -0.1225
     27  CA        30.8730  -18.6030    2.8730 C.3    46  GLY46       0.1811
     28  C         31.7720  -19.8170    2.9720 C.2    46  GLY46       0.2280
     29  O         32.7960  -19.7860    3.6680 O.2    46  GLY46      -0.2866
     30  N         31.0510  -12.6820   -2.6060 N.3    64  GLU64      -0.1231
     31  CA        29.6960  -13.0750   -3.0610 C.3    64  GLU64       0.1699
     32  C         28.7720  -11.9260   -3.4810 C.2    64  GLU64       0.2592
     33  O         27.9670  -12.0870   -4.3870 O.2    64  GLU64      -0.2718
     34  CB        28.9940  -13.9910   -2.0400 C.3    64  GLU64       0.0402
     35  CG        28.7010  -13.3760   -0.6820 C.3    64  GLU64       0.1161
     36  CD        27.6290  -14.1330    0.0860 C.2    64  GLU64       0.3649
     37  OE1       26.4330  -14.0070   -0.2730 O.co2  64  GLU64      -0.2457
     38  OE2       27.9800  -14.8330    1.0590 O.co2  64  GLU64      -0.2457
     39  N         28.9230  -10.7720   -2.8480 N.am   65  PHE65      -0.1976
     40  CA        28.1440   -9.5880   -3.2000 C.3    65  PHE65       0.1639
     41  C         28.4190   -9.1100   -4.6240 C.2    65  PHE65       0.2290
     42  O         27.4860   -8.8350   -5.3840 O.2    65  PHE65      -0.2864
     43  CB        28.4330   -8.4560   -2.2110 C.3    65  PHE65       0.0560
     44  CG        28.1920   -8.8190   -0.7610 C.ar   65  PHE65      -0.0200
     45  CD1       27.1220   -9.6280   -0.3870 C.ar   65  PHE65      -0.0042
     46  CD2       29.0210   -8.3240    0.2330 C.ar   65  PHE65      -0.0042
     47  CE1       26.8910   -9.9430    0.9420 C.ar   65  PHE65      -0.0003
     48  CE2       28.8020   -8.6360    1.5650 C.ar   65  PHE65      -0.0003
     49  CZ        27.7360   -9.4490    1.9230 C.ar   65  PHE65      -0.0000
     50  N         18.8420  -10.4340   -1.8050 N.3    90  ASN90      -0.1240
     51  CA        19.3060  -11.8020   -1.8730 C.3    90  ASN90       0.1653
     52  C         18.7570  -12.4940   -0.6520 C.2    90  ASN90       0.2266
     53  O         19.3180  -12.3700    0.4260 O.2    90  ASN90      -0.2867
     54  CB        20.8430  -11.8150   -1.9060 C.3    90  ASN90       0.1155
     55  CG        21.4160  -13.1330   -2.3750 C.2    90  ASN90       0.2627
     56  OD1       20.7830  -14.1770   -2.2630 O.2    90  ASN90      -0.2716
     57  ND2       22.6360  -13.0910   -2.8930 N.am   90  ASN90      -0.0877
     58  N         18.5950  -15.4820    1.1410 N.3    92  GLY92      -0.1210
     59  CA        19.2410  -16.7740    1.3390 C.3    92  GLY92       0.1956
     60  C         18.9720  -17.3300    2.7090 C.2    92  GLY92       0.2613
     61  O         17.8360  -17.2550    3.2010 O.2    92  GLY92      -0.2717
     62  N         20.0120  -17.9040    3.3220 N.am   93  THR93      -0.1938
     63  CA        19.9060  -18.4160    4.7100 C.3    93  THR93       0.2028
     64  C         19.5350  -17.2190    5.5780 C.2    93  THR93       0.2643
     65  O         18.6600  -17.3120    6.4490 O.2    93  THR93      -0.2714
     66  CB        21.2170  -19.0560    5.2220 C.3    93  THR93       0.1808
     67  OG1       21.6520  -20.0800    4.3110 O.3    93  THR93      -0.2208
     68  CG2       21.0230  -19.6680    6.6030 C.3    93  THR93       0.0379
     69  N         20.2170  -16.1080    5.2990 N.am   94  GLY94      -0.1939
     70  CA        19.8570  -14.7820    5.7620 C.3    94  GLY94       0.2014
     71  C         19.6930  -13.8990    4.5530 C.2    94  GLY94       0.2640
     72  O         19.6130  -14.3720    3.4370 O.2    94  GLY94      -0.2714
     73  N         19.6780  -12.5960    4.7610 N.am   95  THR95      -0.1936
     74  CA        19.3070  -11.6790    3.6940 C.3    95  THR95       0.2028
     75  C         20.2210  -10.4570    3.6220 C.2    95  THR95       0.2642
     76  O         20.5420   -9.8380    4.6440 O.2    95  THR95      -0.2714
     77  CB        17.8340  -11.2330    3.8560 C.3    95  THR95       0.1808
     78  OG1       16.9910  -12.3880    3.8740 O.3    95  THR95      -0.2208
     79  CG2       17.3850  -10.3390    2.7140 C.3    95  THR95       0.0379
     80  N         20.5630  -10.0990    2.3860 N.am   96  SER96      -0.1949
     81  CA        21.5170   -9.0550    2.0650 C.3    96  SER96       0.1924
     82  C         20.8640   -8.1730    1.0130 C.2    96  SER96       0.2314
     83  O         20.3740   -8.6870   -0.0030 O.2    96  SER96      -0.2863
     84  CB        22.8050   -9.7000    1.5050 C.3    96  SER96       0.2116
     85  OG        23.7960   -8.7380    1.1780 O.3    96  SER96      -0.2180
     86  N         26.2580   -2.7100   -0.9560 N.3   107  ARG107     -0.1245
     87  CA        25.4180   -3.2780    0.0820 C.3   107  ARG107      0.1563
     88  C         24.8380   -2.1370    0.8980 C.2   107  ARG107      0.2260
     89  O         25.5710   -1.3040    1.4250 O.2   107  ARG107     -0.2867
     90  CB        26.1950   -4.2310    0.9820 C.3   107  ARG107      0.0307
     91  CG        25.3020   -5.0520    1.9130 C.3   107  ARG107      0.0489
     92  CD        26.0470   -6.2610    2.4550 C.3   107  ARG107      0.2205
     93  NE        25.2210   -7.1700    3.2520 N.pl3 107  ARG107     -0.0865
     94  CZ        24.8720   -6.9850    4.5240 C.cat 107  ARG107      0.5346
     95  NH1       25.2350   -5.8940    5.1830 N.pl3 107  ARG107      0.1354
     96  NH2       24.1310   -7.8950    5.1450 N.pl3 107  ARG107      0.1354
     97  N         21.1420   -5.4960    5.5090 N.3   110  GLY110     -0.1210
     98  CA        20.7700   -6.8940    5.5550 C.3   110  GLY110      0.1956
     99  C         20.0460   -7.1960    6.8490 C.2   110  GLY110      0.2612
    100  O         20.0580   -6.3910    7.7660 O.2   110  GLY110     -0.2717
    101  N         19.4180   -8.3580    6.9140 N.am  111  ILE111     -0.1965
    102  CA        18.6270   -8.7540    8.0780 C.3   111  ILE111      0.1727
    103  C         18.6240  -10.2750    8.1060 C.2   111  ILE111      0.2616
    104  O         18.6260  -10.9220    7.0630 O.2   111  ILE111     -0.2715
    105  CB        17.1780   -8.1440    8.0330 C.3   111  ILE111      0.0290
    106  CG1       16.3250   -8.4980    9.2660 C.3   111  ILE111      0.0022
    107  CG2       16.4240   -8.5980    6.7990 C.3   111  ILE111      0.0023
    108  CD1       16.8120   -7.9720   10.6060 C.3   111  ILE111      0.0001
    109  N         18.6190  -10.8470    9.2980 N.am  112  GLY112     -0.1955
    110  CA        18.5810  -12.3020    9.4490 C.3   112  GLY112      0.1869
    111  C         17.2080  -12.9500    9.3370 C.2   112  GLY112      0.2309
    112  O         17.0370  -14.0740    9.8110 O.2   112  GLY112     -0.2863
@<TRIPOS>BOND
     1    19    20    2
     2    19    18    1
     3    21    18    1
     4    21    22    1
     5    18    17    1
     6     1     2    1
     7    22    23    1
     8    42    41    2
     9     5     2    1
    10     5     6    1
    11     2     3    1
    12    41    40    1
    13    33    32    2
    14     8     6   ar
    15    23    24    1
    16     6     7   ar
    17    24    25    1
    18     3     4    2
    19    32    31    1
    20    32    39   am
    21    40    39    1
    22    40    43    1
    23    31    30    1
    24    31    34    1
    25    57    55   am
    26    55    56    2
    27    55    54    1
    28    43    44    1
    29    34    35    1
    30    54    51    1
    31    51    50    1
    32    51    52    1
    33    86    87    1
    34    44    45   ar
    35    44    46   ar
    36    35    36    1
    37    52    53    2
    38    45    47   ar
    39    37    36   ar
    40     9    10    1
    41    83    82    2
    42    87    88    1
    43    87    90    1
    44    36    38   ar
    45    46    48   ar
    46    10    11    1
    47    88    89    2
    48    47    49   ar
    49    90    91    1
    50    82    81    1
    51    58    59    1
    52    85    84    1
    53    59    60    1
    54    84    81    1
    55    26    27    1
    56    48    49   ar
    57    91    92    1
    58    81    80    1
    59    11    12    2
    60    11    13   am
    61    80    75   am
    62    92    93    1
    63    60    61    2
    64    60    62   am
    65    79    77    1
    66    27    28    1
    67    28    29    2
    68    13    14    1
    69    93    94    2
    70    62    63    1
    71    72    71    2
    72    75    74    1
    73    75    76    2
    74    74    77    1
    75    74    73    1
    76    77    78    1
    77    15    14    1
    78    15    16    2
    79    67    66    1
    80    94    96    1
    81    94    95    1
    82    71    73   am
    83    71    70    1
    84    63    66    1
    85    63    64    1
    86    66    68    1
    87    69    64   am
    88    69    70    1
    89    97    98    1
    90    98    99    1
    91    64    65    2
    92   107   105    1
    93    99   101   am
    94    99   100    2
    95   101   102    1
    96   104   103    2
    97   105   102    1
    98   105   106    1
    99   102   103    1
   100   103   109   am
   101   106   108    1
   102   109   110    1
   103   111   110    1
   104   111   112    2
