@<TRIPOS>MOLECULE
tmp/6avpC00.pdb
 126 120 0 0 0
SMALL
GASTEIGER

@<TRIPOS>ATOM
      1  N         -3.8690  -17.3140    8.0170 N.3   143  ARG143     -0.1245
      2  CA        -3.2080  -16.4900    9.0210 C.3   143  ARG143      0.1563
      3  C         -4.1950  -15.7280    9.9080 C.2   143  ARG143      0.2260
      4  O         -3.7770  -15.1550   10.9070 O.2   143  ARG143     -0.2867
      5  CB        -2.2050  -15.5520    8.3410 C.3   143  ARG143      0.0307
      6  CG        -0.9770  -16.2970    7.8270 C.3   143  ARG143      0.0489
      7  CD        -0.2400  -15.5210    6.7500 C.3   143  ARG143      0.2205
      8  NE         0.4850  -14.3580    7.2670 N.pl3 143  ARG143     -0.0865
      9  CZ         0.8380  -13.2860    6.5470 C.cat 143  ARG143      0.5346
     10  NH1        0.5620  -13.1960    5.2440 N.pl3 143  ARG143      0.1354
     11  NH2        1.4920  -12.2860    7.1420 N.pl3 143  ARG143      0.1354
     12  N         -4.2750   -7.4140   12.1240 N.3   149  LYS149     -0.1231
     13  CA        -4.2860   -6.3080   11.1720 C.3   149  LYS149      0.1693
     14  C         -4.5240   -4.9650   11.8370 C.2   149  LYS149      0.2591
     15  O         -4.8750   -4.8840   13.0200 O.2   149  LYS149     -0.2718
     16  CB        -5.3330   -6.5550   10.0820 C.3   149  LYS149      0.0285
     17  CG        -5.1610   -7.8790    9.3530 C.3   149  LYS149      0.0035
     18  CD        -6.1740   -8.0450    8.2410 C.3   149  LYS149      0.0206
     19  CE        -5.7520   -9.1250    7.2710 C.3   149  LYS149      0.1093
     20  NZ        -4.8340   -8.5270    6.2800 N.3   149  LYS149     -0.1314
     21  N         -4.3160   -3.9100   11.0530 N.am  150  VAL150     -0.1980
     22  CA        -4.4770   -2.5290   11.5170 C.3   150  VAL150      0.1595
     23  C         -5.9480   -2.2770   11.8560 C.2   150  VAL150      0.2287
     24  O         -6.2570   -1.6610   12.8710 O.2   150  VAL150     -0.2864
     25  CB        -3.9310   -1.5280   10.4810 C.3   150  VAL150      0.0276
     26  CG1       -4.3150   -0.0910   10.8110 C.3   150  VAL150      0.0022
     27  CG2       -2.4180   -1.6610   10.3750 C.3   150  VAL150      0.0022
     28  N         -6.9210   -3.4360   15.5170 N.3   153  ILE153     -0.1231
     29  CA        -6.5620   -2.4670   16.5610 C.3   153  ILE153      0.1692
     30  C         -7.5180   -1.2770   16.5070 C.2   153  ILE153      0.2592
     31  O         -7.9170   -0.7740   17.5340 O.2   153  ILE153     -0.2718
     32  CB        -5.0870   -1.9900   16.4200 C.3   153  ILE153      0.0266
     33  CG1       -4.1440   -3.1080   16.8530 C.3   153  ILE153      0.0019
     34  CG2       -4.8080   -0.7460   17.2580 C.3   153  ILE153      0.0020
     35  CD1       -2.6780   -2.8420   16.5700 C.3   153  ILE153      0.0001
     36  N         -7.8730   -0.8500   15.2980 N.am  154  TYR154     -0.1976
     37  CA        -8.6940    0.3420   15.0710 C.3   154  TYR154      0.1639
     38  C        -10.1520    0.0000   14.8160 C.2   154  TYR154      0.2290
     39  O        -10.7070    0.2860   13.7520 O.2   154  TYR154     -0.2864
     40  CB        -8.1500    1.1250   13.8810 C.3   154  TYR154      0.0560
     41  CG        -7.0860    2.0880   14.2670 C.ar  154  TYR154     -0.0198
     42  CD1       -5.7680    1.6820   14.3690 C.ar  154  TYR154     -0.0009
     43  CD2       -7.3980    3.4140   14.5270 C.ar  154  TYR154     -0.0009
     44  CE1       -4.7860    2.5740   14.7320 C.ar  154  TYR154      0.0417
     45  CE2       -6.4240    4.3150   14.8840 C.ar  154  TYR154      0.0417
     46  CZ        -5.1220    3.8820   14.9890 C.ar  154  TYR154      0.1957
     47  OH        -4.1450    4.7570   15.3410 O.3   154  TYR154     -0.2866
     48  N         -5.1490    5.7150   10.6020 N.3   160  PRO160     -0.2102
     49  CA        -4.2980    6.6340    9.8450 C.3   160  PRO160      0.1504
     50  C         -3.4210    5.9680    8.7690 C.2   160  PRO160      0.2575
     51  O         -2.7190    6.6670    8.0310 O.2   160  PRO160     -0.2718
     52  CB        -3.4270    7.2730   10.9370 C.3   160  PRO160      0.0282
     53  CG        -3.2900    6.2290   11.9730 C.3   160  PRO160      0.0208
     54  CD        -4.4930    5.3180   11.8690 C.3   160  PRO160      0.0893
     55  N         -3.4420    4.6400    8.6980 N.am  161  ILE161     -0.1980
     56  CA        -2.8220    3.8780    7.6020 C.3   161  ILE161      0.1595
     57  C         -3.8150    2.7800    7.1770 C.2   161  ILE161      0.2287
     58  O         -4.7450    2.4710    7.9490 O.2   161  ILE161     -0.2864
     59  CB        -1.4530    3.2810    8.0260 C.3   161  ILE161      0.0276
     60  CG1       -1.5800    2.4300    9.3060 C.3   161  ILE161      0.0022
     61  CG2       -0.4420    4.4100    8.2140 C.3   161  ILE161      0.0022
     62  CD1       -0.3590    1.6120    9.6580 C.3   161  ILE161      0.0001
     63  N         -6.0160   -2.9860    6.1350 N.3   164  ASP164     -0.1225
     64  CA        -5.6060   -4.3040    5.7160 C.3   164  ASP164      0.1805
     65  C         -4.1310   -4.6150    5.9970 C.2   164  ASP164      0.2598
     66  O         -3.7350   -5.7800    5.9210 O.2   164  ASP164     -0.2718
     67  CB        -5.8920   -4.5080    4.2330 C.3   164  ASP164      0.1424
     68  CG        -5.7680   -5.9610    3.8280 C.2   164  ASP164      0.3668
     69  OD1       -6.6170   -6.7830    4.2560 O.co2 164  ASP164     -0.2456
     70  OD2       -4.7900   -6.3010    3.1290 O.co2 164  ASP164     -0.2456
     71  N         -3.3070   -3.6040    6.2950 N.am  165  LEU165     -0.1966
     72  CA        -1.9090   -3.8660    6.6460 C.3   165  LEU165      0.1728
     73  C         -1.8360   -4.8250    7.8350 C.2   165  LEU165      0.2617
     74  O         -2.7520   -4.8500    8.6690 O.2   165  LEU165     -0.2715
     75  CB        -1.1560   -2.5800    6.9920 C.3   165  LEU165      0.0311
     76  CG        -0.7820   -1.6440    5.8500 C.3   165  LEU165      0.0022
     77  CD1       -0.3630   -0.2680    6.3660 C.3   165  LEU165      0.0001
     78  CD2        0.3440   -2.2440    5.0220 C.3   165  LEU165      0.0001
     79  N         -0.7880   -5.6540    7.8610 N.am  166  THR166     -0.1937
     80  CA        -0.4270   -6.4080    9.0460 C.3   166  THR166      0.2028
     81  C          0.0880   -5.3740   10.0430 C.2   166  THR166      0.2642
     82  O          0.8950   -4.5110    9.6900 O.2   166  THR166     -0.2714
     83  CB         0.6700   -7.4820    8.7830 C.3   166  THR166      0.1808
     84  OG1        0.2520   -8.4020    7.7650 O.3   166  THR166     -0.2208
     85  CG2        0.9790   -8.2790   10.0220 C.3   166  THR166      0.0379
     86  N         -0.3960   -5.4690   11.2740 N.am  167  ALA167     -0.1977
     87  CA        -0.0070   -4.5980   12.3830 C.3   167  ALA167      0.1597
     88  C          0.9900   -5.2750   13.2790 C.2   167  ALA167      0.2287
     89  O          1.9670   -4.6640   13.6690 O.2   167  ALA167     -0.2864
     90  CB        -1.2320   -4.2140   13.2080 C.3   167  ALA167      0.0319
     91  N          7.3060  -10.2000    4.8470 N.3   196  GLU196     -0.1245
     92  CA         6.9850   -8.8270    5.1320 C.3   196  GLU196      0.1567
     93  C          8.2010   -8.0330    5.5790 C.2   196  GLU196      0.2260
     94  O          8.3250   -6.8630    5.2430 O.2   196  GLU196     -0.2867
     95  CB         5.8730   -8.7470    6.1770 C.3   196  GLU196      0.0388
     96  CG         4.5060   -9.1730    5.6370 C.3   196  GLU196      0.1160
     97  CD         3.3840   -9.1540    6.6890 C.2   196  GLU196      0.3649
     98  OE1        3.5390   -8.5460    7.7830 O.co2 196  GLU196     -0.2457
     99  OE2        2.3230   -9.7460    6.4160 O.co2 196  GLU196     -0.2457
    100  N          9.6860   -4.8930    3.4580 N.3   200  THR200     -0.1218
    101  CA         9.8090   -3.6020    4.1140 C.3   200  THR200      0.1862
    102  C         11.2390   -3.0650    3.9930 C.2   200  THR200      0.2287
    103  O         11.4520   -1.8910    3.6450 O.2   200  THR200     -0.2866
    104  CB         9.3990   -3.6900    5.5790 C.3   200  THR200      0.1770
    105  OG1        8.0700   -4.2130    5.6580 O.3   200  THR200     -0.2211
    106  CG2        9.4100   -2.3420    6.2170 C.3   200  THR200      0.0375
    107  N          2.8170   -6.9910   -1.5070 N.3   234  TYR234     -0.1241
    108  CA         3.2060   -5.8600   -0.7150 C.3   234  TYR234      0.1605
    109  C          4.2320   -4.9570   -1.4080 C.2   234  TYR234      0.2264
    110  O          4.1990   -3.7630   -1.1770 O.2   234  TYR234     -0.2867
    111  CB         3.6980   -6.2970    0.6720 C.3   234  TYR234      0.0534
    112  CG         3.8430   -5.1340    1.6190 C.ar  234  TYR234     -0.0201
    113  CD1        2.7900   -4.2330    1.8150 C.ar  234  TYR234     -0.0009
    114  CD2        5.0170   -4.9140    2.3120 C.ar  234  TYR234     -0.0009
    115  CE1        2.9160   -3.1510    2.6560 C.ar  234  TYR234      0.0417
    116  CE2        5.1550   -3.8180    3.1690 C.ar  234  TYR234      0.0417
    117  CZ         4.1010   -2.9420    3.3310 C.ar  234  TYR234      0.1957
    118  OH         4.2050   -1.8740    4.1920 O.3   234  TYR234     -0.2866
    119  N          2.0810   -2.9520   -3.5340 N.3   237  LEU237     -0.1245
    120  CA         1.3020   -2.0690   -2.6340 C.3   237  LEU237      0.1561
    121  C          2.0910   -0.7960   -2.2490 C.2   237  LEU237      0.2260
    122  O          1.5160    0.2910   -2.1120 O.2   237  LEU237     -0.2867
    123  CB         0.8600   -2.8230   -1.3650 C.3   237  LEU237      0.0270
    124  CG        -0.6020   -2.7210   -0.9350 C.3   237  LEU237      0.0019
    125  CD1       -1.5060   -3.4340   -1.9240 C.3   237  LEU237      0.0001
    126  CD2       -0.7900   -3.3350    0.4380 C.3   237  LEU237      0.0001
@<TRIPOS>BOND
     1   119   120    1
     2   120   121    1
     3   120   123    1
     4   121   122    2
     5   125   124    1
     6   107   108    1
     7   109   110    2
     8   109   108    1
     9   123   124    1
    10   124   126    1
    11   108   111    1
    12   111   112    1
    13   112   113   ar
    14   112   114   ar
    15   113   115   ar
    16   114   116   ar
    17   115   117   ar
    18    70    68   ar
    19   116   117   ar
    20   117   118    1
    21   100   101    1
    22   103   102    2
    23    68    67    1
    24    68    69   ar
    25   102   101    1
    26   101   104    1
    27    67    64    1
    28    91    92    1
    29    78    76    1
    30    92    93    1
    31    92    95    1
    32    94    93    2
    33    10     9    1
    34   104   105    1
    35   104   106    1
    36    96    95    1
    37    96    97    1
    38    64    65    1
    39    64    63    1
    40    76    77    1
    41    76    75    1
    42    66    65    2
    43    65    71   am
    44    20    19    1
    45    71    72    1
    46    99    97   ar
    47     9    11    1
    48     9     8    2
    49    72    75    1
    50    72    73    1
    51    97    98   ar
    52     7     8    1
    53     7     6    1
    54    57    56    1
    55    57    58    2
    56    19    18    1
    57    56    59    1
    58    56    55    1
    59    84    83    1
    60     6     5    1
    61    73    79   am
    62    73    74    2
    63    79    80    1
    64     1     2    1
    65    59    61    1
    66    59    60    1
    67    51    50    2
    68    18    17    1
    69     5     2    1
    70    55    50   am
    71    50    49    1
    72    83    80    1
    73    83    85    1
    74     2     3    1
    75    80    81    1
    76    60    62    1
    77    17    16    1
    78    82    81    2
    79    49    48    1
    80    49    52    1
    81     3     4    2
    82    81    86   am
    83    16    13    1
    84    27    25    1
    85    25    26    1
    86    25    22    1
    87    48    54    1
    88    52    53    1
    89    21    22    1
    90    21    14   am
    91    13    14    1
    92    13    12    1
    93    86    87    1
    94    22    23    1
    95    14    15    2
    96    23    24    2
    97    54    53    1
    98    87    90    1
    99    87    88    1
   100    88    89    2
   101    39    38    2
   102    40    41    1
   103    40    37    1
   104    41    42   ar
   105    41    43   ar
   106    42    44   ar
   107    43    45   ar
   108    44    46   ar
   109    38    37    1
   110    45    46   ar
   111    46    47    1
   112    37    36    1
   113    36    30   am
   114    28    29    1
   115    32    29    1
   116    32    33    1
   117    32    34    1
   118    30    29    1
   119    30    31    2
   120    35    33    1
