@<TRIPOS>MOLECULE
tmp/6avsA00.pdb
 148 147 0 0 0
SMALL
GASTEIGER

@<TRIPOS>ATOM
      1  N         -2.0480   70.3310   20.5400 N.3    58  GLU58      -0.1245
      2  CA        -2.5320   70.7740   21.8270 C.3    58  GLU58       0.1567
      3  C         -3.7450   71.6430   21.6070 C.2    58  GLU58       0.2260
      4  O         -3.6860   72.5650   20.8670 O.2    58  GLU58      -0.2867
      5  CB        -1.4560   71.5440   22.5910 C.3    58  GLU58       0.0388
      6  CG        -0.1260   70.8410   22.6970 C.3    58  GLU58       0.1160
      7  CD         1.0150   71.6650   23.2930 C.2    58  GLU58       0.3649
      8  OE1        0.8520   72.8770   23.5800 O.co2  58  GLU58      -0.2457
      9  OE2        2.0980   71.0640   23.5060 O.co2  58  GLU58      -0.2457
     10  N         -1.3190   75.7920   28.1740 N.3    63  TYR63      -0.1241
     11  CA        -1.1300   74.4580   28.7510 C.3    63  TYR63       0.1605
     12  C         -1.2540   74.3040   30.2480 C.2    63  TYR63       0.2264
     13  O         -1.2220   73.2200   30.7890 O.2    63  TYR63      -0.2867
     14  CB         0.1500   73.8010   28.2450 C.3    63  TYR63       0.0534
     15  CG         1.4550   74.2510   28.8420 C.ar   63  TYR63      -0.0201
     16  CD1        1.8780   73.8160   30.0850 C.ar   63  TYR63      -0.0009
     17  CD2        2.3140   75.0410   28.1180 C.ar   63  TYR63      -0.0009
     18  CE1        3.0870   74.2120   30.6040 C.ar   63  TYR63       0.0417
     19  CE2        3.5140   75.4180   28.6090 C.ar   63  TYR63       0.0417
     20  CZ         3.9150   74.9990   29.8500 C.ar   63  TYR63       0.1957
     21  OH         5.1110   75.4060   30.2960 O.3    63  TYR63      -0.2866
     22  N         -7.1120   72.1580   29.1050 N.3    68  TRP68      -0.1241
     23  CA        -6.1990   71.9180   28.0170 C.3    68  TRP68       0.1605
     24  C         -6.0590   70.4240   27.7780 C.2    68  TRP68       0.2264
     25  O         -6.0860   69.6400   28.7090 O.2    68  TRP68      -0.2867
     26  CB        -4.8710   72.5180   28.4100 C.3    68  TRP68       0.0550
     27  CG        -3.7800   72.3730   27.4860 C.ar   68  TRP68       0.0003
     28  CD1       -3.4230   73.2420   26.5420 C.ar   68  TRP68       0.0946
     29  CD2       -2.8600   71.3150   27.4220 C.ar   68  TRP68       0.0152
     30  NE1       -2.3220   72.8270   25.9050 N.ar   68  TRP68      -0.2442
     31  CE2       -1.9520   71.6280   26.4210 C.ar   68  TRP68       0.0810
     32  CE3       -2.7160   70.1260   28.1070 C.ar   68  TRP68       0.0012
     33  CZ2       -0.9300   70.7930   26.0730 C.ar   68  TRP68       0.0191
     34  CZ3       -1.7090   69.3250   27.7890 C.ar   68  TRP68       0.0001
     35  CH2       -0.8210   69.6420   26.7680 C.ar   68  TRP68       0.0015
     36  N         -2.6690   74.0390   18.5990 N.3    92  TYR92      -0.1241
     37  CA        -1.2700   74.2610   18.4000 C.3    92  TYR92       0.1605
     38  C         -0.4890   72.9880   18.1920 C.2    92  TYR92       0.2264
     39  O         -0.5560   72.1070   18.9650 O.2    92  TYR92      -0.2867
     40  CB        -0.7350   74.9640   19.6410 C.3    92  TYR92       0.0534
     41  CG         0.5290   75.7770   19.5260 C.ar   92  TYR92      -0.0201
     42  CD1        1.0720   76.0840   18.3230 C.ar   92  TYR92      -0.0009
     43  CD2        1.1510   76.2590   20.6530 C.ar   92  TYR92      -0.0009
     44  CE1        2.2000   76.8170   18.2370 C.ar   92  TYR92       0.0417
     45  CE2        2.2850   76.9940   20.5750 C.ar   92  TYR92       0.0417
     46  CZ         2.8110   77.2800   19.3680 C.ar   92  TYR92       0.1957
     47  OH         3.9530   78.0060   19.2610 O.3    92  TYR92      -0.2866
     48  N          2.6420   71.8520   18.6460 N.3    94  ALA94      -0.1231
     49  CA         3.7650   72.3220   19.3740 C.3    94  ALA94       0.1694
     50  C          4.7170   71.2700   19.8040 C.2    94  ALA94       0.2591
     51  O          4.3430   70.1560   20.0590 O.2    94  ALA94      -0.2718
     52  CB         3.2700   73.0710   20.5880 C.3    94  ALA94       0.0304
     53  N          5.9530   71.6930   19.8940 N.am   95  GLN95      -0.1979
     54  CA         7.0300   70.8900   20.3650 C.3    95  GLN95       0.1601
     55  C          7.0840   69.5140   19.7460 C.2    95  GLN95       0.2287
     56  O          7.1780   68.5520   20.4100 O.2    95  GLN95      -0.2864
     57  CB         6.8990   70.8370   21.8650 C.3    95  GLN95       0.0394
     58  CG         8.0910   70.4820   22.7060 C.3    95  GLN95       0.0908
     59  CD         7.8290   70.7760   24.1510 C.2    95  GLN95       0.2608
     60  OE1        6.7830   71.2400   24.5170 O.2    95  GLN95      -0.2717
     61  NE2        8.7730   70.4580   24.9860 N.am   95  GLN95      -0.0878
     62  N          6.9350   74.3000   15.6390 N.3   130  TRP130     -0.1241
     63  CA         5.9400   75.0450   16.3830 C.3   130  TRP130      0.1605
     64  C          5.0810   75.7340   15.3720 C.2   130  TRP130      0.2264
     65  O          5.4830   76.6810   14.7550 O.2   130  TRP130     -0.2867
     66  CB         6.5440   76.0420   17.3660 C.3   130  TRP130      0.0550
     67  CG         7.5550   75.5010   18.2970 C.ar  130  TRP130      0.0003
     68  CD1        8.8390   75.2780   18.0280 C.ar  130  TRP130      0.0946
     69  CD2        7.3620   75.1000   19.6460 C.ar  130  TRP130      0.0152
     70  NE1        9.4640   74.7710   19.0890 N.ar  130  TRP130     -0.2442
     71  CE2        8.5850   74.6600   20.1130 C.ar  130  TRP130      0.0810
     72  CE3        6.2760   75.0880   20.5040 C.ar  130  TRP130      0.0012
     73  CZ2        8.7560   74.2040   21.3820 C.ar  130  TRP130      0.0191
     74  CZ3        6.4480   74.6680   21.7530 C.ar  130  TRP130      0.0001
     75  CH2        7.6770   74.2190   22.1960 C.ar  130  TRP130      0.0015
     76  N         -0.6030   80.6180   22.8560 N.3   137  ILE137     -0.1231
     77  CA         0.2230   81.0580   23.9360 C.3   137  ILE137      0.1692
     78  C          1.0330   79.9540   24.5580 C.2   137  ILE137      0.2592
     79  O          0.5420   78.9090   24.7780 O.2   137  ILE137     -0.2718
     80  CB        -0.5960   81.6670   25.0800 C.3   137  ILE137      0.0266
     81  CG1       -1.6610   82.6030   24.5620 C.3   137  ILE137      0.0019
     82  CG2        0.2670   82.4060   26.0290 C.3   137  ILE137      0.0020
     83  CD1       -1.1790   83.9470   24.1580 C.3   137  ILE137      0.0001
     84  N          2.3040   80.2070   24.7790 N.am  138  SER138     -0.1952
     85  CA         3.1730   79.3330   25.5080 C.3   138  SER138      0.1924
     86  C          3.5070   80.1200   26.7790 C.2   138  SER138      0.2314
     87  O          4.1820   81.1180   26.7550 O.2   138  SER138     -0.2863
     88  CB         4.4520   78.9970   24.7660 C.3   138  SER138      0.2116
     89  OG         4.2780   78.0570   23.7810 O.3   138  SER138     -0.2180
     90  N          7.8970   79.8220   30.9630 N.3   141  HIS141     -0.1226
     91  CA         8.6230   78.6320   31.3550 C.3   141  HIS141      0.1752
     92  C         10.1120   78.6970   31.0870 C.2   141  HIS141      0.2596
     93  O         10.5680   79.5400   30.3870 O.2   141  HIS141     -0.2718
     94  CB         8.0270   77.4270   30.6430 C.3   141  HIS141      0.0759
     95  CG         8.4200   77.2930   29.2180 C.ar  141  HIS141      0.0818
     96  ND1        7.8210   77.9980   28.2120 N.ar  141  HIS141     -0.2268
     97  CD2        9.3610   76.5330   28.6210 C.ar  141  HIS141      0.1154
     98  CE1        8.3490   77.6680   27.0600 C.ar  141  HIS141      0.1986
     99  NE2        9.3110   76.7990   27.2730 N.ar  141  HIS141     -0.2212
    100  N         10.8380   77.7590   31.6510 N.am  142  GLN142     -0.1965
    101  CA        12.2710   77.6060   31.4070 C.3   142  GLN142      0.1733
    102  C         12.5970   76.1990   30.8910 C.2   142  GLN142      0.2616
    103  O         11.9160   75.2910   31.2090 O.2   142  GLN142     -0.2715
    104  CB        13.1150   77.9900   32.6020 C.3   142  GLN142      0.0408
    105  CG        12.9760   77.0640   33.7430 C.3   142  GLN142      0.0908
    106  CD        13.7320   77.5150   34.9390 C.2   142  GLN142      0.2608
    107  OE1       14.4410   78.4950   34.8960 O.2   142  GLN142     -0.2717
    108  NE2       13.5960   76.7930   36.0070 N.am  142  GLN142     -0.0878
    109  N         13.6200   76.1170   30.0530 N.am  143  ASP143     -0.1971
    110  CA        14.1160   74.8800   29.4820 C.3   143  ASP143      0.1709
    111  C         15.5090   74.5140   29.9940 C.2   143  ASP143      0.2293
    112  O         16.2360   75.3270   30.4720 O.2   143  ASP143     -0.2864
    113  CB        14.1110   74.9160   27.9790 C.3   143  ASP143      0.1436
    114  CG        12.7500   75.0590   27.4200 C.2   143  ASP143      0.3671
    115  OD1       11.8690   74.2670   27.7580 O.co2 143  ASP143     -0.2456
    116  OD2       12.5830   75.9930   26.6500 O.co2 143  ASP143     -0.2456
    117  N          9.3190   73.9600   36.1890 N.3   179  ASN179     -0.1240
    118  CA         9.8790   74.8310   35.1860 C.3   179  ASN179      0.1653
    119  C          8.8830   75.8200   34.5610 C.2   179  ASN179      0.2266
    120  O          9.2180   76.4190   33.5860 O.2   179  ASN179     -0.2867
    121  CB        10.4150   73.9580   34.0590 C.3   179  ASN179      0.1155
    122  CG         9.4080   72.9120   33.6380 C.2   179  ASN179      0.2627
    123  OD1        8.2750   73.2150   33.3070 O.2   179  ASN179     -0.2716
    124  ND2        9.8090   71.6690   33.6950 N.am  179  ASN179     -0.0877
    125  N         11.0130   82.2540   29.3290 N.3   220  HIS220     -0.1241
    126  CA        10.4230   82.7880   28.1240 C.3   220  HIS220      0.1621
    127  C          8.9080   82.4930   27.9440 C.2   220  HIS220      0.2264
    128  O          8.4630   81.4310   28.2040 O.2   220  HIS220     -0.2867
    129  CB        11.1750   82.2960   26.9010 C.3   220  HIS220      0.0745
    130  CG        11.2640   80.8120   26.7810 C.ar  220  HIS220      0.0817
    131  ND1       12.1400   80.0680   27.5240 N.ar  220  HIS220     -0.2268
    132  CD2       10.6110   79.9380   25.9880 C.ar  220  HIS220      0.1154
    133  CE1       12.0150   78.7980   27.2030 C.ar  220  HIS220      0.1986
    134  NE2       11.0960   78.6920   26.2660 N.ar  220  HIS220     -0.2212
    135  N         17.3530   72.8230   20.2840 N.3   234  TRP234     -0.1241
    136  CA        17.7810   72.7430   21.6370 C.3   234  TRP234      0.1605
    137  C         19.1340   72.0730   21.5870 C.2   234  TRP234      0.2264
    138  O         19.2970   71.0610   20.9540 O.2   234  TRP234     -0.2867
    139  CB        16.7960   71.9430   22.4500 C.3   234  TRP234      0.0550
    140  CG        15.4990   72.5610   22.7430 C.ar  234  TRP234      0.0003
    141  CD1       15.1240   73.8550   22.5360 C.ar  234  TRP234      0.0946
    142  CD2       14.4040   71.9400   23.3660 C.ar  234  TRP234      0.0152
    143  NE1       13.8590   74.0460   22.9410 N.ar  234  TRP234     -0.2442
    144  CE2       13.3960   72.8810   23.4650 C.ar  234  TRP234      0.0810
    145  CE3       14.1690   70.6680   23.8390 C.ar  234  TRP234      0.0012
    146  CZ2       12.1810   72.5850   24.0240 C.ar  234  TRP234      0.0191
    147  CZ3       12.9680   70.3830   24.3680 C.ar  234  TRP234      0.0001
    148  CH2       11.9860   71.3340   24.4650 C.ar  234  TRP234      0.0015
@<TRIPOS>BOND
     1    65    64    2
     2    64    63    1
     3    62    63    1
     4    63    66    1
     5    66    67    1
     6    68    67   ar
     7    68    70   ar
     8    38    37    1
     9    38    39    2
    10    44    42   ar
    11    44    46   ar
    12    67    69   ar
    13    42    41   ar
    14    37    36    1
    15    37    40    1
    16    48    49    1
    17    70    71   ar
    18    47    46    1
    19    46    45   ar
    20    49    50    1
    21    49    52    1
    22    41    40    1
    23    41    43   ar
    24    69    71   ar
    25    69    72   ar
    26    55    54    1
    27    55    56    2
    28    50    53   am
    29    50    51    2
    30    53    54    1
    31    71    73   ar
    32   135   136    1
    33    54    57    1
    34    72    74   ar
    35     1     2    1
    36    45    43   ar
    37     4     3    2
    38   138   137    2
    39    73    75   ar
    40   137   136    1
    41     3     2    1
    42   136   139    1
    43    74    75   ar
    44     2     5    1
    45    57    58    1
    46   139   140    1
    47   141   140   ar
    48   141   143   ar
    49     5     6    1
    50     6     7    1
    51    58    59    1
    52   140   142   ar
    53    76    77    1
    54   143   144   ar
    55     7     9   ar
    56     7     8   ar
    57   142   144   ar
    58   142   145   ar
    59   144   146   ar
    60    89    88    1
    61   145   147   ar
    62    77    78    1
    63    77    80    1
    64   146   148   ar
    65    59    60    2
    66    59    61   am
    67    83    81    1
    68   147   148   ar
    69    78    79    2
    70    78    84   am
    71    81    80    1
    72    88    85    1
    73    84    85    1
    74    80    82    1
    75    85    86    1
    76    30    31   ar
    77    30    28   ar
    78   132   134   ar
    79   132   130   ar
    80    33    31   ar
    81    33    35   ar
    82   134   133   ar
    83    31    29   ar
    84    28    27   ar
    85   116   114   ar
    86    87    86    2
    87    35    34   ar
    88   130   129    1
    89   130   131   ar
    90   129   126    1
    91    98    99   ar
    92    98    96   ar
    93   133   131   ar
    94    99    97   ar
    95   114   115   ar
    96   114   113    1
    97    29    27   ar
    98    29    32   ar
    99    27    26    1
   100    24    23    1
   101    24    25    2
   102    34    32   ar
   103   127   126    1
   104   127   128    2
   105   113   110    1
   106    23    26    1
   107    23    22    1
   108    17    19   ar
   109    17    15   ar
   110   126   125    1
   111    10    11    1
   112    96    95   ar
   113    14    11    1
   114    14    15    1
   115    19    20   ar
   116    97    95   ar
   117    11    12    1
   118    15    16   ar
   119    95    94    1
   120   110   111    1
   121   110   109    1
   122    20    21    1
   123    20    18   ar
   124   111   112    2
   125   109   102   am
   126    16    18   ar
   127    12    13    2
   128    93    92    2
   129    94    91    1
   130   102   103    2
   131   102   101    1
   132    90    91    1
   133    92    91    1
   134    92   100   am
   135   101   100    1
   136   101   104    1
   137   104   105    1
   138   123   122    2
   139   120   119    2
   140   122   124   am
   141   122   121    1
   142   105   106    1
   143   121   118    1
   144   119   118    1
   145   107   106    2
   146   106   108   am
   147   118   117    1
