@<TRIPOS>MOLECULE
tmp/6aw4A00.pdb
 103 100 0 0 0
SMALL
GASTEIGER

@<TRIPOS>ATOM
      1  N         69.1490    6.7710   19.2110 N.3    27  ILE27      -0.1245
      2  CA        68.7930    7.4440   20.4570 C.3    27  ILE27       0.1561
      3  C         68.5550    6.4170   21.5530 C.2    27  ILE27       0.2260
      4  O         69.0480    6.5640   22.6730 O.2    27  ILE27      -0.2867
      5  CB        67.5450    8.3300   20.2630 C.3    27  ILE27       0.0252
      6  CG1       67.8230    9.4840   19.2890 C.3    27  ILE27       0.0019
      7  CG2       67.0620    8.8570   21.6150 C.3    27  ILE27       0.0019
      8  CD1       66.5610   10.1740   18.7780 C.3    27  ILE27       0.0001
      9  N         70.7520    6.0010   24.9270 N.3    31  CYS31      -0.1235
     10  CA        70.1570    6.3550   26.2120 C.3    31  CYS31       0.1677
     11  C         70.0640    5.1440   27.1300 C.2    31  CYS31       0.2270
     12  O         70.2110    5.2720   28.3520 O.2    31  CYS31      -0.2867
     13  CB        68.7720    6.9730   26.0070 C.3    31  CYS31       0.0956
     14  SG        68.8200    8.6380   25.3090 S.3    31  CYS31      -0.0801
     15  N         70.0390    6.6350   30.8960 N.3    36  TRP36      -0.1227
     16  CA        69.2480    7.8580   30.9900 C.3    36  TRP36       0.1737
     17  C         67.7730    7.6090   30.7000 C.2    36  TRP36       0.2595
     18  O         66.9120    8.3040   31.2500 O.2    36  TRP36      -0.2718
     19  CB        69.7890    8.9180   30.0260 C.3    36  TRP36       0.0564
     20  CG        71.2020    9.3710   30.3130 C.ar   36  TRP36       0.0003
     21  CD1       71.9070    9.1880   31.4700 C.ar   36  TRP36       0.0946
     22  CD2       72.0810   10.0770   29.4180 C.ar   36  TRP36       0.0152
     23  NE1       73.1640    9.7370   31.3500 N.ar   36  TRP36      -0.2442
     24  CE2       73.2950   10.2890   30.1030 C.ar   36  TRP36       0.0810
     25  CE3       71.9550   10.5520   28.1060 C.ar   36  TRP36       0.0012
     26  CZ2       74.3760   10.9520   29.5230 C.ar   36  TRP36       0.0191
     27  CZ3       73.0270   11.2140   27.5340 C.ar   36  TRP36       0.0001
     28  CH2       74.2230   11.4070   28.2400 C.ar   36  TRP36       0.0015
     29  N         67.4680    6.6310   29.8530 N.am   37  ALA37      -0.1980
     30  CA        66.0900    6.2490   29.5520 C.3    37  ALA37       0.1597
     31  C         66.1480    4.8440   28.9830 C.2    37  ALA37       0.2287
     32  O         66.8800    4.6000   28.0200 O.2    37  ALA37      -0.2864
     33  CB        65.4410    7.2180   28.5650 C.3    37  ALA37       0.0319
     34  N         63.2110    2.9970   25.3190 N.3    40  VAL40      -0.1245
     35  CA        62.0230    3.8150   25.0650 C.3    40  VAL40       0.1561
     36  C         61.1830    3.2650   23.9260 C.2    40  VAL40       0.2260
     37  O         59.9620    3.4590   23.9050 O.2    40  VAL40      -0.2867
     38  CB        62.4060    5.2850   24.8020 C.3    40  VAL40       0.0252
     39  CG1       62.9430    5.9190   26.0560 C.3    40  VAL40       0.0019
     40  CG2       63.3800    5.4150   23.6330 C.3    40  VAL40       0.0019
     41  N         57.5270    3.1100   25.4210 N.3    44  LYS44      -0.1245
     42  CA        56.4880    4.0330   24.9650 C.3    44  LYS44       0.1561
     43  C         56.3510    4.1330   23.4580 C.2    44  LYS44       0.2260
     44  O         55.2570    4.4440   22.9850 O.2    44  LYS44      -0.2867
     45  CB        56.7220    5.4340   25.5170 C.3    44  LYS44       0.0271
     46  CG        57.9280    6.1450   24.9500 C.3    44  LYS44       0.0035
     47  CD        58.0470    7.5600   25.4890 C.3    44  LYS44       0.0206
     48  CE        59.3690    8.1570   25.1030 C.3    44  LYS44       0.1093
     49  NZ        59.6170    9.4430   25.8150 N.3    44  LYS44      -0.1314
     50  N         62.5040   17.2680   24.2050 N.3    66  TYR66      -0.1227
     51  CA        63.8140   17.2720   24.8430 C.3    66  TYR66       0.1736
     52  C         64.8990   17.0190   23.8070 C.2    66  TYR66       0.2595
     53  O         65.6330   17.9470   23.4510 O.2    66  TYR66      -0.2718
     54  CB        63.8420   16.2410   25.9800 C.3    66  TYR66       0.0548
     55  CG        65.1980   16.0610   26.6230 C.ar   66  TYR66      -0.0200
     56  CD1       65.7960   17.0930   27.3140 C.ar   66  TYR66      -0.0009
     57  CD2       65.8500   14.8480   26.5490 C.ar   66  TYR66      -0.0009
     58  CE1       67.0440   16.9130   27.9170 C.ar   66  TYR66       0.0417
     59  CE2       67.0870   14.6610   27.1380 C.ar   66  TYR66       0.0417
     60  CZ        67.6710   15.6990   27.8110 C.ar   66  TYR66       0.1957
     61  OH        68.9040   15.5040   28.4070 O.3    66  TYR66      -0.2866
     62  N         64.9930   15.8060   23.2550 N.am   67  CYS67      -0.1970
     63  CA        65.9780   15.5320   22.2160 C.3    67  CYS67       0.1712
     64  C         65.3570   15.2240   20.8610 C.2    67  CYS67       0.2296
     65  O         66.0950   15.0630   19.8830 O.2    67  CYS67      -0.2864
     66  CB        66.9150   14.3790   22.6150 C.3    67  CYS67       0.0983
     67  SG        66.1810   12.7390   22.5730 S.3    67  CYS67      -0.0798
     68  N         63.2250   12.5560   20.1320 N.3    69  TYR69      -0.1227
     69  CA        62.8180   11.1740   19.9170 C.3    69  TYR69       0.1736
     70  C         61.3300   11.0920   19.6000 C.2    69  TYR69       0.2596
     71  O         60.9160   10.4620   18.6190 O.2    69  TYR69      -0.2718
     72  CB        63.1410   10.3240   21.1560 C.3    69  TYR69       0.0548
     73  CG        62.7430    8.8720   20.9630 C.ar   69  TYR69      -0.0200
     74  CD1       61.4610    8.4290   21.2580 C.ar   69  TYR69      -0.0009
     75  CD2       63.6340    7.9560   20.4230 C.ar   69  TYR69      -0.0009
     76  CE1       61.0810    7.1310   21.0330 C.ar   69  TYR69       0.0417
     77  CE2       63.2550    6.6380   20.2090 C.ar   69  TYR69       0.0417
     78  CZ        61.9820    6.2300   20.5250 C.ar   69  TYR69       0.1957
     79  OH        61.5740    4.9260   20.3010 O.3    69  TYR69      -0.2866
     80  N         60.5100   11.7170   20.4380 N.am   70  SER70      -0.1952
     81  CA        59.0660   11.6040   20.2590 C.3    70  SER70       0.1924
     82  C         58.6150   12.2440   18.9570 C.2    70  SER70       0.2314
     83  O         57.7220   11.7280   18.2760 O.2    70  SER70      -0.2863
     84  CB        58.3420   12.2410   21.4390 C.3    70  SER70       0.2116
     85  OG        58.6460   11.5860   22.6750 O.3    70  SER70      -0.2180
     86  N         54.2640   15.3800   26.5050 N.3   138  ASP138     -0.1225
     87  CA        55.5760   14.8000   26.6620 C.3   138  ASP138      0.1805
     88  C         56.2620   15.3200   27.9280 C.2   138  ASP138      0.2597
     89  O         56.3050   16.5350   28.1990 O.2   138  ASP138     -0.2718
     90  CB        56.4240   15.1090   25.4400 C.3   138  ASP138      0.1424
     91  CG        57.7570   14.4360   25.4930 C.2   138  ASP138      0.3668
     92  OD1       57.8200   13.2280   25.8620 O.co2 138  ASP138     -0.2456
     93  OD2       58.7380   15.1460   25.2300 O.co2 138  ASP138     -0.2456
     94  N         56.7820   14.3700   28.6560 N.am  139  HIS139     -0.1975
     95  CA        57.5760   14.3990   29.8580 C.3   139  HIS139      0.1656
     96  C         57.0400   15.1930   31.0330 C.2   139  HIS139      0.2291
     97  O         56.9030   14.6060   32.1110 O.2   139  HIS139     -0.2864
     98  CB        58.9810   14.8810   29.5720 C.3   139  HIS139      0.0771
     99  CG        59.9040   14.5560   30.7020 C.ar  139  HIS139      0.0820
    100  ND1       60.1740   13.2540   31.0690 N.ar  139  HIS139     -0.2267
    101  CD2       60.5200   15.3430   31.6140 C.ar  139  HIS139      0.1154
    102  CE1       60.9660   13.2570   32.1250 C.ar  139  HIS139      0.1986
    103  NE2       61.1900   14.5110   32.4770 N.ar  139  HIS139     -0.2212
@<TRIPOS>BOND
     1    83    82    2
     2    71    70    2
     3     8     6    1
     4    82    81    1
     5     1     2    1
     6     6     5    1
     7    70    69    1
     8    70    80   am
     9    65    64    2
    10    69    68    1
    11    69    72    1
    12    77    75   ar
    13    77    78   ar
    14    81    80    1
    15    81    84    1
    16     5     2    1
    17     5     7    1
    18    79    78    1
    19    75    73   ar
    20     2     3    1
    21    78    76   ar
    22    64    63    1
    23    73    72    1
    24    73    74   ar
    25    76    74   ar
    26    84    85    1
    27     3     4    2
    28    63    66    1
    29    63    62    1
    30    67    66    1
    31    44    43    2
    32    62    52   am
    33    53    52    2
    34    43    42    1
    35    40    38    1
    36    52    51    1
    37    37    36    2
    38    36    35    1
    39    50    51    1
    40    38    35    1
    41    38    39    1
    42    51    54    1
    43     9    10    1
    44    46    47    1
    45    46    45    1
    46    42    41    1
    47    42    45    1
    48    35    34    1
    49    48    47    1
    50    48    49    1
    51    93    91   ar
    52    14    13    1
    53    90    91    1
    54    90    87    1
    55    91    92   ar
    56    54    55    1
    57    13    10    1
    58    10    11    1
    59    86    87    1
    60    57    55   ar
    61    57    59   ar
    62    55    56   ar
    63    87    88    1
    64    11    12    2
    65    59    60   ar
    66    56    58   ar
    67    27    25   ar
    68    27    28   ar
    69    60    58   ar
    70    60    61    1
    71    88    89    2
    72    88    94   am
    73    32    31    2
    74    25    22   ar
    75    28    26   ar
    76    33    30    1
    77    94    95    1
    78    31    30    1
    79    22    24   ar
    80    22    20   ar
    81    26    24   ar
    82    30    29    1
    83    98    95    1
    84    98    99    1
    85    29    17   am
    86    95    96    1
    87    19    20    1
    88    19    16    1
    89    24    23   ar
    90    20    21   ar
    91    17    16    1
    92    17    18    2
    93    99   100   ar
    94    99   101   ar
    95    15    16    1
    96    96    97    2
    97   100   102   ar
    98    23    21   ar
    99   101   103   ar
   100   102   103   ar
