@<TRIPOS>MOLECULE
tmp/6awaB00.pdb
 120 115 0 0 0
SMALL
GASTEIGER

@<TRIPOS>ATOM
      1  N          9.7790   22.8540  -58.3880 N.3   158  ILE158     -0.1245
      2  CA         9.9360   22.5610  -59.8100 C.3   158  ILE158      0.1561
      3  C          8.7630   23.1160  -60.6300 C.2   158  ILE158      0.2260
      4  O          7.6170   23.0410  -60.1910 O.2   158  ILE158     -0.2867
      5  CB        10.1060   21.0440  -60.0440 C.3   158  ILE158      0.0252
      6  CG1        8.8960   20.2530  -59.5210 C.3   158  ILE158      0.0019
      7  CG2       11.3820   20.5530  -59.3670 C.3   158  ILE158      0.0019
      8  CD1        8.9540   18.7810  -59.8240 C.3   158  ILE158      0.0001
      9  N          6.9250   22.0340  -63.1230 N.3   160  PRO160     -0.2116
     10  CA         5.7560   21.1750  -63.3780 C.3   160  PRO160      0.1372
     11  C          4.7020   21.1130  -62.2710 C.2   160  PRO160      0.2244
     12  O          3.5530   20.7770  -62.5580 O.2   160  PRO160     -0.2868
     13  CB         6.3830   19.7830  -63.5450 C.3   160  PRO160      0.0268
     14  CG         7.7390   20.0600  -64.0690 C.3   160  PRO160      0.0207
     15  CD         8.1800   21.2790  -63.3100 C.3   160  PRO160      0.0892
     16  N          5.5830   13.3460  -55.1090 N.3   187  ILE187     -0.1231
     17  CA         6.6010   13.3700  -56.1590 C.3   187  ILE187      0.1692
     18  C          7.9470   13.1860  -55.4540 C.2   187  ILE187      0.2593
     19  O          8.3630   14.0280  -54.6230 O.2   187  ILE187     -0.2718
     20  CB         6.6350   14.6930  -56.9520 C.3   187  ILE187      0.0266
     21  CG1        5.2270   15.1030  -57.3980 C.3   187  ILE187      0.0019
     22  CG2        7.5650   14.5540  -58.1590 C.3   187  ILE187      0.0020
     23  CD1        5.1900   16.3840  -58.2250 C.3   187  ILE187      0.0001
     24  N          8.6050   12.0700  -55.7590 N.am  188  GLY188     -0.1942
     25  CA         9.8890   11.7270  -55.1670 C.3   188  GLY188      0.2014
     26  C          9.7640   10.6060  -54.1610 C.2   188  GLY188      0.2639
     27  O          9.0310   10.7270  -53.1770 O.2   188  GLY188     -0.2714
     28  N         10.5050    9.5200  -54.3940 N.am  189  ALA189     -0.1963
     29  CA        10.5220    8.3640  -53.4910 C.3   189  ALA189      0.1728
     30  C         11.7710    8.3650  -52.6030 C.2   189  ALA189      0.2617
     31  O         12.3330    7.3010  -52.2950 O.2   189  ALA189     -0.2715
     32  CB        10.4350    7.0680  -54.2900 C.3   189  ALA189      0.0334
     33  N         12.2210    9.5540  -52.2090 N.am  190  GLY190     -0.1940
     34  CA        13.3570    9.6640  -51.2980 C.3   190  GLY190      0.2014
     35  C         12.8800    9.4920  -49.8660 C.2   190  GLY190      0.2639
     36  O         11.6890    9.2530  -49.6180 O.2   190  GLY190     -0.2714
     37  N         13.8010    9.6470  -48.9190 N.am  191  VAL191     -0.1963
     38  CA        13.4760    9.4760  -47.5020 C.3   191  VAL191      0.1727
     39  C         12.2720   10.3400  -47.0680 C.2   191  VAL191      0.2616
     40  O         11.3330    9.8520  -46.4430 O.2   191  VAL191     -0.2715
     41  CB        14.6940    9.8130  -46.6310 C.3   191  VAL191      0.0290
     42  CG1       14.3190    9.7570  -45.1500 C.3   191  VAL191      0.0023
     43  CG2       15.8680    8.8790  -46.9730 C.3   191  VAL191      0.0023
     44  N         12.3050   11.6190  -47.4140 N.am  192  ILE192     -0.1977
     45  CA        11.2240   12.5250  -47.0300 C.3   192  ILE192      0.1596
     46  C          9.8760   12.1140  -47.6400 C.2   192  ILE192      0.2287
     47  O          8.8600   12.0810  -46.9420 O.2   192  ILE192     -0.2864
     48  CB        11.6080   13.9730  -47.3530 C.3   192  ILE192      0.0276
     49  CG1       12.7290   14.3900  -46.3910 C.3   192  ILE192      0.0022
     50  CG2       10.3960   14.8990  -47.2310 C.3   192  ILE192      0.0022
     51  CD1       13.3340   15.7440  -46.6940 C.3   192  ILE192      0.0001
     52  N          5.2140    9.0220  -57.1280 N.3   210  LEU210     -0.1231
     53  CA         5.7600    9.1440  -58.4820 C.3   210  LEU210      0.1693
     54  C          7.2560    9.4680  -58.4050 C.2   210  LEU210      0.2592
     55  O          7.6460   10.5380  -57.9290 O.2   210  LEU210     -0.2718
     56  CB         4.9990   10.2410  -59.2230 C.3   210  LEU210      0.0284
     57  CG         3.4840   10.0120  -59.3260 C.3   210  LEU210      0.0019
     58  CD1        2.7660   11.2500  -59.8450 C.3   210  LEU210      0.0001
     59  CD2        3.1670    8.8040  -60.2090 C.3   210  LEU210      0.0001
     60  N          8.0880    8.5160  -58.8330 N.am  211  GLU211     -0.1966
     61  CA         9.5510    8.6410  -58.7990 C.3   211  GLU211      0.1733
     62  C         10.1230    8.5520  -60.2060 C.2   211  GLU211      0.2616
     63  O          9.9440    7.5430  -60.8840 O.2   211  GLU211     -0.2715
     64  CB        10.1360    7.5520  -57.9080 C.3   211  GLU211      0.0429
     65  CG        11.6480    7.3810  -57.9740 C.3   211  GLU211      0.1163
     66  CD        12.4070    8.6520  -57.6520 C.2   211  GLU211      0.3649
     67  OE1       13.3010    9.0300  -58.4470 O.co2 211  GLU211     -0.2457
     68  OE2       12.0810    9.2930  -56.6330 O.co2 211  GLU211     -0.2457
     69  N         10.8270    9.5970  -60.6320 N.am  212  ALA212     -0.1963
     70  CA        11.3830    9.6540  -61.9990 C.3   212  ALA212      0.1728
     71  C         12.4280    8.5900  -62.3210 C.2   212  ALA212      0.2616
     72  O         12.4660    8.0940  -63.4370 O.2   212  ALA212     -0.2715
     73  CB        11.9690   11.0210  -62.2730 C.3   212  ALA212      0.0334
     74  N         13.2890    8.2720  -61.3580 N.am  213  LEU213     -0.1977
     75  CA        14.3450    7.2790  -61.5740 C.3   213  LEU213      0.1596
     76  C         13.8120    5.8470  -61.5560 C.2   213  LEU213      0.2287
     77  O         12.7260    5.5730  -61.0100 O.2   213  LEU213     -0.2864
     78  CB        15.4100    7.3980  -60.4740 C.3   213  LEU213      0.0297
     79  CG        16.1310    8.7390  -60.3060 C.3   213  LEU213      0.0022
     80  CD1       16.9670    8.7180  -59.0360 C.3   213  LEU213      0.0001
     81  CD2       16.9860    9.0790  -61.5210 C.3   213  LEU213      0.0001
     82  N          8.5070    7.1480  -63.3780 N.3   243  ALA243     -0.1231
     83  CA         7.3330    8.0010  -63.5230 C.3   243  ALA243      0.1694
     84  C          7.7300    9.4550  -63.2730 C.2   243  ALA243      0.2592
     85  O          7.7430    9.9150  -62.1170 O.2   243  ALA243     -0.2718
     86  CB         6.2600    7.5670  -62.5290 C.3   243  ALA243      0.0304
     87  N          8.0570   10.1660  -64.3470 N.am  244  ARG244     -0.1966
     88  CA         8.4890   11.5640  -64.2630 C.3   244  ARG244      0.1729
     89  C          7.3140   12.5190  -64.4330 C.2   244  ARG244      0.2616
     90  O          6.6540   12.4940  -65.4640 O.2   244  ARG244     -0.2715
     91  CB         9.5490   11.8260  -65.3370 C.3   244  ARG244      0.0348
     92  CG        10.2400   13.1820  -65.2710 C.3   244  ARG244      0.0492
     93  CD        11.4510   13.1790  -66.1980 C.3   244  ARG244      0.2205
     94  NE        12.1670   14.4560  -66.2260 N.pl3 244  ARG244     -0.0865
     95  CZ        13.2710   14.6970  -66.9470 C.cat 244  ARG244      0.5346
     96  NH1       13.8440   15.9000  -66.9100 N.pl3 244  ARG244      0.1354
     97  NH2       13.8130   13.7440  -67.7070 N.pl3 244  ARG244      0.1354
     98  N          7.0500   13.3480  -63.4120 N.am  245  VAL245     -0.1977
     99  CA         5.9630   14.3250  -63.4750 C.3   245  VAL245      0.1596
    100  C          6.3740   15.4320  -64.4310 C.2   245  VAL245      0.2287
    101  O          7.4350   16.0260  -64.2720 O.2   245  VAL245     -0.2864
    102  CB         5.6270   14.9270  -62.0910 C.3   245  VAL245      0.0276
    103  CG1        4.5970   16.0520  -62.2190 C.3   245  VAL245      0.0022
    104  CG2        5.1210   13.8390  -61.1530 C.3   245  VAL245      0.0022
    105  N          8.4060   16.4060  -53.0300 N.3   276  ALA276     -0.1231
    106  CA         9.5430   16.0310  -52.2000 C.3   276  ALA276      0.1694
    107  C         10.6670   15.5740  -53.1050 C.2   276  ALA276      0.2592
    108  O         11.1410   14.4350  -53.0180 O.2   276  ALA276     -0.2718
    109  CB         9.1370   14.9190  -51.2440 C.3   276  ALA276      0.0304
    110  N         11.1210   16.4960  -53.9420 N.am  277  VAL277     -0.1966
    111  CA        12.1480   16.1880  -54.9470 C.3   277  VAL277      0.1727
    112  C         13.5500   16.6720  -54.5860 C.2   277  VAL277      0.2616
    113  O         14.3740   16.9440  -55.4690 O.2   277  VAL277     -0.2715
    114  CB        11.7410   16.7460  -56.3260 C.3   277  VAL277      0.0290
    115  CG1       10.4440   16.1060  -56.7860 C.3   277  VAL277      0.0023
    116  CG2       11.5950   18.2620  -56.2920 C.3   277  VAL277      0.0023
    117  N         13.8160   16.7960  -53.2940 N.am  278  GLY278     -0.1955
    118  CA        15.1250   17.2040  -52.8400 C.3   278  GLY278      0.1869
    119  C         15.1480   18.5600  -52.1890 C.2   278  GLY278      0.2309
    120  O         14.1470   19.2860  -52.1500 O.2   278  GLY278     -0.2863
@<TRIPOS>BOND
     1    97    95    1
     2    95    96    1
     3    95    94    2
     4    94    93    1
     5    93    92    1
     6    90    89    2
     7    91    92    1
     8    91    88    1
     9    89    88    1
    10    89    98   am
    11   100   101    2
    12   100    99    1
    13    87    88    1
    14    87    84   am
    15    14    13    1
    16    14    15    1
    17    13    10    1
    18    83    82    1
    19    83    84    1
    20    83    86    1
    21    99    98    1
    22    99   102    1
    23    72    71    2
    24    10     9    1
    25    10    11    1
    26    15     9    1
    27    84    85    2
    28    12    11    2
    29    71    70    1
    30    71    74   am
    31    73    70    1
    32   103   102    1
    33   102   104    1
    34    70    69    1
    35    75    76    1
    36    75    74    1
    37    75    78    1
    38    76    77    2
    39    81    79    1
    40    63    62    2
    41    69    62   am
    42     3     4    2
    43     3     2    1
    44    78    79    1
    45    79    80    1
    46    59    57    1
    47    62    61    1
    48     5     2    1
    49     5     6    1
    50     5     7    1
    51    58    57    1
    52     8     6    1
    53     2     1    1
    54    57    56    1
    55    56    53    1
    56    60    61    1
    57    60    54   am
    58    61    64    1
    59    53    54    1
    60    53    52    1
    61    67    66   ar
    62    54    55    2
    63    23    21    1
    64    22    20    1
    65    65    64    1
    66    65    66    1
    67    66    68   ar
    68    21    20    1
    69    20    17    1
    70   115   114    1
    71   114   116    1
    72   114   111    1
    73    17    18    1
    74    17    16    1
    75    24    18   am
    76    24    25    1
    77   113   112    2
    78    18    19    2
    79    25    26    1
    80   111   112    1
    81   111   110    1
    82   112   117   am
    83    28    26   am
    84    28    29    1
    85    32    29    1
    86    26    27    2
    87   110   107   am
    88    29    30    1
    89   117   118    1
    90   107   108    2
    91   107   106    1
    92   105   106    1
    93   118   119    1
    94    30    31    2
    95    30    33   am
    96    33    34    1
    97   106   109    1
    98   119   120    2
    99    34    35    1
   100    35    36    2
   101    35    37   am
   102    37    38    1
   103    46    45    1
   104    46    47    2
   105    38    39    1
   106    38    41    1
   107    44    39   am
   108    44    45    1
   109    48    50    1
   110    48    45    1
   111    48    49    1
   112    39    40    2
   113    43    41    1
   114    51    49    1
   115    41    42    1
