@<TRIPOS>MOLECULE
tmp/6aweA00.pdb
 139 131 0 0 0
SMALL
GASTEIGER

@<TRIPOS>ATOM
      1  N          0.7890   23.0360   50.4360 N.3   113  LEU113     -0.1231
      2  CA        -0.5500   23.5730   50.6630 C.3   113  LEU113      0.1693
      3  C         -0.4550   25.0160   51.1400 C.2   113  LEU113      0.2592
      4  O          0.3900   25.3400   51.9880 O.2   113  LEU113     -0.2718
      5  CB        -1.2980   22.7330   51.6920 C.3   113  LEU113      0.0284
      6  CG        -2.0420   21.4120   51.3130 C.3   113  LEU113      0.0019
      7  CD1       -3.3720   21.7660   50.6450 C.3   113  LEU113      0.0001
      8  CD2       -1.2550   20.5570   50.4080 C.3   113  LEU113      0.0001
      9  N         -1.3560   25.8740   50.6420 N.am  114  ALA114     -0.1966
     10  CA        -1.2660   27.3040   50.8960 C.3   114  ALA114      0.1728
     11  C         -2.6440   27.9440   50.9650 C.2   114  ALA114      0.2616
     12  O         -3.6300   27.4200   50.4200 O.2   114  ALA114     -0.2715
     13  CB        -0.4320   28.0260   49.8220 C.3   114  ALA114      0.0334
     14  N         -2.6930   29.1060   51.6160 N.am  115  GLY115     -0.1955
     15  CA        -3.9000   29.9440   51.6000 C.3   115  GLY115      0.1869
     16  C         -3.9170   30.9110   50.4260 C.2   115  GLY115      0.2309
     17  O         -2.8880   31.4630   50.0490 O.2   115  GLY115     -0.2863
     18  N          5.0100   32.8330   55.5560 N.3   192  ASN192     -0.1240
     19  CA         4.6370   33.0270   56.9640 C.3   192  ASN192      0.1653
     20  C          5.3380   31.9400   57.7690 C.2   192  ASN192      0.2266
     21  O          5.0470   30.7530   57.5810 O.2   192  ASN192     -0.2867
     22  CB         3.1050   32.9050   57.0880 C.3   192  ASN192      0.1155
     23  CG         2.6270   32.7300   58.5040 C.2   192  ASN192      0.2627
     24  OD1        3.2200   33.2320   59.4510 O.2   192  ASN192     -0.2716
     25  ND2        1.5350   31.9670   58.6580 N.am  192  ASN192     -0.0877
     26  N         -1.8840   29.8200   61.4120 N.3   197  TYR197     -0.1227
     27  CA        -2.3630   30.3500   60.1460 C.3   197  TYR197      0.1736
     28  C         -2.2720   31.8850   60.2510 C.2   197  TYR197      0.2595
     29  O         -2.4630   32.4570   61.3310 O.2   197  TYR197     -0.2718
     30  CB        -3.8000   29.8740   59.8740 C.3   197  TYR197      0.0548
     31  CG        -3.9410   28.3640   59.6320 C.ar  197  TYR197     -0.0200
     32  CD1       -3.4370   27.7890   58.4820 C.ar  197  TYR197     -0.0009
     33  CD2       -4.5260   27.5210   60.5710 C.ar  197  TYR197     -0.0009
     34  CE1       -3.5250   26.4220   58.2560 C.ar  197  TYR197      0.0417
     35  CE2       -4.6250   26.1280   60.3330 C.ar  197  TYR197      0.0417
     36  CZ        -4.1130   25.6130   59.2080 C.ar  197  TYR197      0.1957
     37  OH        -4.1760   24.2520   59.0090 O.3   197  TYR197     -0.2866
     38  N         -2.0450   32.5860   59.1340 N.am  198  GLU198     -0.1965
     39  CA        -2.0150   34.0420   59.2820 C.3   198  GLU198      0.1733
     40  C         -3.4060   34.5920   59.6760 C.2   198  GLU198      0.2617
     41  O         -4.4600   34.0060   59.3680 O.2   198  GLU198     -0.2715
     42  CB        -1.4470   34.6780   58.0000 C.3   198  GLU198      0.0429
     43  CG        -2.4810   35.0500   56.9360 C.3   198  GLU198      0.1163
     44  CD        -2.9740   33.8670   56.0950 C.2   198  GLU198      0.3649
     45  OE1       -2.5170   32.6810   56.2930 O.co2 198  GLU198     -0.2457
     46  OE2       -3.8620   34.1330   55.2070 O.co2 198  GLU198     -0.2457
     47  N         -3.3930   35.6520   60.5010 N.am  199  SER199     -0.1936
     48  CA        -4.6130   36.2630   61.0260 C.3   199  SER199      0.2040
     49  C         -5.3660   36.9850   59.9150 C.2   199  SER199      0.2485
     50  O         -4.7980   37.2860   58.8590 O.2   199  SER199     -0.2729
     51  CB        -4.2810   37.2640   62.1240 C.3   199  SER199      0.2129
     52  OG        -3.6970   38.4360   61.5480 O.3   199  SER199     -0.2179
     53  N         -6.6620   37.2750   60.1300 N.am  200  PRO200     -0.2726
     54  CA        -7.4360   37.9500   59.0770 C.3   200  PRO200      0.1402
     55  C         -6.8450   39.2950   58.7040 C.2   200  PRO200      0.2269
     56  O         -6.8120   39.6600   57.5120 O.2   200  PRO200     -0.2865
     57  CB        -8.8320   38.0950   59.7160 C.3   200  PRO200      0.0296
     58  CG        -8.9630   36.8950   60.6170 C.3   200  PRO200      0.0237
     59  CD        -7.5330   36.6340   61.1450 C.3   200  PRO200      0.0939
     60  N         -3.8210   38.6860   56.5200 N.3   203  SER203     -0.1217
     61  CA        -4.1900   38.3910   55.1380 C.3   203  SER203      0.1889
     62  C         -4.4760   39.6730   54.3830 C.2   203  SER203      0.2288
     63  O         -4.1360   39.8020   53.2060 O.2   203  SER203     -0.2866
     64  CB        -5.4320   37.4970   55.0780 C.3   203  SER203      0.2089
     65  OG        -5.2880   36.2850   55.8130 O.3   203  SER203     -0.2183
     66  N         -0.1770   32.3620   50.4950 N.3   214  VAL214     -0.1231
     67  CA         0.6100   32.3730   51.7540 C.3   214  VAL214      0.1692
     68  C          0.7690   30.9440   52.2860 C.2   214  VAL214      0.2593
     69  O         -0.1790   30.1440   52.3090 O.2   214  VAL214     -0.2718
     70  CB        -0.0320   33.2970   52.8250 C.3   214  VAL214      0.0266
     71  CG1       -1.4710   32.8750   53.1300 C.3   214  VAL214      0.0020
     72  CG2        0.7930   33.2990   54.1180 C.3   214  VAL214      0.0020
     73  N          1.9960   30.6050   52.7140 N.am  215  GLY215     -0.1942
     74  CA         2.2400   29.3150   53.3320 C.3   215  GLY215      0.2014
     75  C          3.4310   29.3360   54.2720 C.2   215  GLY215      0.2638
     76  O          4.1080   30.3650   54.3950 O.2   215  GLY215     -0.2714
     77  N          3.7430   28.1270   54.8460 N.am  216  MET216     -0.1976
     78  CA         4.7100   27.9840   55.9560 C.3   216  MET216      0.1605
     79  C          5.9360   27.1530   55.5910 C.2   216  MET216      0.2287
     80  O          6.6100   26.6280   56.4900 O.2   216  MET216     -0.2864
     81  CB         4.0450   27.3820   57.2040 C.3   216  MET216      0.0413
     82  CG         2.8170   28.0590   57.5960 C.3   216  MET216      0.0598
     83  SD         2.0670   27.1700   59.0550 S.3   216  MET216     -0.1393
     84  CE         0.4440   27.9290   59.0250 C.3   216  MET216      0.0692
     85  N         -5.8760   25.7450   49.6400 N.3   239  ALA239     -0.1231
     86  CA        -6.8450   25.1430   50.5670 C.3   239  ALA239      0.1694
     87  C         -8.1520   25.9390   50.6640 C.2   239  ALA239      0.2592
     88  O         -9.2210   25.3610   50.8680 O.2   239  ALA239     -0.2718
     89  CB        -6.2120   25.0450   51.9590 C.3   239  ALA239      0.0304
     90  N         -8.0570   27.2680   50.5550 N.am  240  ASN240     -0.1974
     91  CA        -9.1260   28.2100   50.8630 C.3   240  ASN240      0.1688
     92  C         -8.7090   29.5800   50.3480 C.2   240  ASN240      0.2292
     93  O         -7.5390   29.7940   50.0170 O.2   240  ASN240     -0.2864
     94  CB        -9.3840   28.2580   52.3590 C.3   240  ASN240      0.1181
     95  CG        -8.2530   28.9350   53.1270 C.2   240  ASN240      0.2629
     96  OD1       -7.0950   28.5520   53.0060 O.2   240  ASN240     -0.2716
     97  ND2       -8.5780   29.9770   53.8850 N.am  240  ASN240     -0.0877
     98  N         -8.3380   33.0710   51.9730 N.3   242  SER242     -0.1217
     99  CA        -8.2540   33.7280   53.2760 C.3   242  SER242      0.1889
    100  C         -9.0210   35.0380   53.3160 C.2   242  SER242      0.2288
    101  O         -9.5680   35.3970   54.3620 O.2   242  SER242     -0.2866
    102  CB        -6.7870   34.0070   53.6370 C.3   242  SER242      0.2089
    103  OG        -6.0200   32.8260   53.7320 O.3   242  SER242     -0.2183
    104  N        -12.7580   34.2810   53.4180 N.3   245  ASP245     -0.1239
    105  CA       -13.1190   33.7220   54.7230 C.3   245  ASP245      0.1674
    106  C        -13.1220   34.8160   55.8050 C.2   245  ASP245      0.2266
    107  O        -13.9660   34.7720   56.7160 O.2   245  ASP245     -0.2867
    108  CB       -12.1650   32.5670   55.1180 C.3   245  ASP245      0.1410
    109  CG       -12.3260   31.2970   54.2560 C.2   245  ASP245      0.3668
    110  OD1      -13.3360   31.1610   53.5320 O.co2 245  ASP245     -0.2456
    111  OD2      -11.4700   30.3920   54.3700 O.co2 245  ASP245     -0.2456
    112  N        -15.4030   32.8800   58.4470 N.3   250  VAL250     -0.1231
    113  CA       -15.2960   31.4250   58.3380 C.3   250  VAL250      0.1692
    114  C        -13.9280   30.9820   58.8690 C.2   250  VAL250      0.2593
    115  O        -12.8940   31.5690   58.5290 O.2   250  VAL250     -0.2718
    116  CB       -15.4890   30.9770   56.8710 C.3   250  VAL250      0.0266
    117  CG1      -14.9760   29.5400   56.6140 C.3   250  VAL250      0.0020
    118  CG2      -16.9480   31.0540   56.5200 C.3   250  VAL250      0.0020
    119  N        -13.9190   29.9140   59.6710 N.am  251  SER251     -0.1938
    120  CA       -12.6880   29.4090   60.2780 C.3   251  SER251      0.2055
    121  C        -11.9840   28.3970   59.3750 C.2   251  SER251      0.2642
    122  O        -12.4930   27.9800   58.3230 O.2   251  SER251     -0.2714
    123  CB       -12.9860   28.7180   61.5860 C.3   251  SER251      0.2130
    124  OG       -13.7120   27.5470   61.2870 O.3   251  SER251     -0.2179
    125  N        -10.7860   27.9680   59.8020 N.am  252  ILE252     -0.1977
    126  CA       -10.0160   26.9610   59.0780 C.3   252  ILE252      0.1596
    127  C         -9.3400   26.0550   60.0930 C.2   252  ILE252      0.2287
    128  O         -9.1310   26.4310   61.2440 O.2   252  ILE252     -0.2864
    129  CB        -8.9680   27.5500   58.1310 C.3   252  ILE252      0.0276
    130  CG1       -8.4490   26.4300   57.2000 C.3   252  ILE252      0.0022
    131  CG2       -7.8050   28.2370   58.9300 C.3   252  ILE252      0.0022
    132  CD1       -7.4780   26.8790   56.1740 C.3   252  ILE252      0.0001
    133  N         -7.8460   21.4300   55.4750 N.3   257  VAL257     -0.1245
    134  CA        -6.7190   21.4810   54.5410 C.3   257  VAL257      0.1561
    135  C         -6.4580   20.1040   53.9440 C.2   257  VAL257      0.2260
    136  O         -6.2920   19.9650   52.7300 O.2   257  VAL257     -0.2867
    137  CB        -5.4740   22.0480   55.2430 C.3   257  VAL257      0.0252
    138  CG1       -4.2480   22.0140   54.3230 C.3   257  VAL257      0.0019
    139  CG2       -5.7630   23.5180   55.6900 C.3   257  VAL257      0.0019
@<TRIPOS>BOND
     1    85    86    1
     2    13    10    1
     3    93    92    2
     4    17    16    2
     5    92    91    1
     6     8     6    1
     7    12    11    2
     8    16    15    1
     9     1     2    1
    10    66    67    1
    11    90    87   am
    12    90    91    1
    13    86    87    1
    14    86    89    1
    15     9    10    1
    16     9     3   am
    17     7     6    1
    18     2     3    1
    19     2     5    1
    20    87    88    2
    21    91    94    1
    22    10    11    1
    23    11    14   am
    24     3     4    2
    25     6     5    1
    26    15    14    1
    27    67    68    1
    28    67    70    1
    29    98    99    1
    30    68    69    2
    31    68    73   am
    32    94    95    1
    33    73    74    1
    34   136   135    2
    35    70    71    1
    36    70    72    1
    37    96    95    2
    38    95    97   am
    39    63    62    2
    40    99   100    1
    41    99   102    1
    42   100   101    2
    43    74    75    1
    44   104   105    1
    45   110   109   ar
    46   102   103    1
    47   135   134    1
    48   109   111   ar
    49   109   108    1
    50    75    76    2
    51    75    77   am
    52   138   137    1
    53    62    61    1
    54   134   137    1
    55   134   133    1
    56   105   108    1
    57   105   106    1
    58    77    78    1
    59    64    61    1
    60    64    65    1
    61    61    60    1
    62    46    44   ar
    63   137   139    1
    64    18    19    1
    65    79    78    1
    66    79    80    2
    67   106   107    2
    68    78    81    1
    69    44    45   ar
    70    44    43    1
    71   132   130    1
    72   118   116    1
    73   117   116    1
    74   116   113    1
    75    43    42    1
    76    19    22    1
    77    19    20    1
    78    22    23    1
    79   130   129    1
    80    81    82    1
    81    56    55    2
    82    21    20    2
    83    82    83    1
    84    42    39    1
    85   129   131    1
    86   129   126    1
    87    34    32   ar
    88    34    36   ar
    89   122   121    2
    90   113   112    1
    91   113   114    1
    92    32    31   ar
    93    23    25   am
    94    23    24    2
    95   115   114    2
    96    55    54    1
    97    50    49    2
    98   114   119   am
    99    37    36    1
   100    84    83    1
   101    54    57    1
   102    54    53    1
   103   126   125    1
   104   126   127    1
   105    38    39    1
   106    38    28   am
   107    36    35   ar
   108    39    40    1
   109    41    40    2
   110   121   125   am
   111   121   120    1
   112    31    30    1
   113    31    33   ar
   114   119   120    1
   115    40    47   am
   116    57    58    1
   117    30    27    1
   118    49    53   am
   119    49    48    1
   120   127   128    2
   121    53    59    1
   122    27    28    1
   123    27    26    1
   124    28    29    2
   125   120   123    1
   126    35    33   ar
   127    47    48    1
   128    58    59    1
   129    48    51    1
   130   124   123    1
   131    52    51    1
