@<TRIPOS>MOLECULE
tmp/6awgA02.pdb
 75 71 0 0 0
SMALL
GASTEIGER

@<TRIPOS>ATOM
      1  N         -6.2210    2.7190   18.8260 N.3    52  GLY52      -0.1225
      2  CA        -7.1470    1.9380   18.0270 C.3    52  GLY52       0.1811
      3  C         -8.5120    1.6880   18.6380 C.2    52  GLY52       0.2280
      4  O         -9.4840    1.5110   17.8950 O.2    52  GLY52      -0.2866
      5  N         -3.0660    8.5700   16.5330 N.3    70  GLU70      -0.1231
      6  CA        -2.0260    8.1240   17.4680 C.3    70  GLU70       0.1699
      7  C         -0.5920    8.4470   17.0710 C.2    70  GLU70       0.2592
      8  O          0.2750    8.5180   17.9510 O.2    70  GLU70      -0.2718
      9  CB        -2.1530    6.6250   17.7630 C.3    70  GLU70       0.0402
     10  CG        -1.8720    5.7030   16.5790 C.3    70  GLU70       0.1161
     11  CD        -1.7240    4.2400   17.0060 C.2    70  GLU70       0.3649
     12  OE1       -0.6380    3.8760   17.5300 O.co2  70  GLU70      -0.2457
     13  OE2       -2.6840    3.4590   16.8190 O.co2  70  GLU70      -0.2457
     14  N         -0.3370    8.6230   15.7730 N.am   71  PHE71      -0.1976
     15  CA         1.0130    8.9790   15.2780 C.3    71  PHE71       0.1639
     16  C          1.3420   10.4100   15.6850 C.2    71  PHE71       0.2290
     17  O          2.4500   10.7270   16.0640 O.2    71  PHE71      -0.2864
     18  CB         1.1560    8.8200   13.7450 C.3    71  PHE71       0.0560
     19  CG         0.7450    7.4630   13.2090 C.ar   71  PHE71      -0.0200
     20  CD1        1.0260    6.2760   13.9150 C.ar   71  PHE71      -0.0042
     21  CD2        0.1520    7.3600   11.9420 C.ar   71  PHE71      -0.0042
     22  CE1        0.6800    5.0270   13.4080 C.ar   71  PHE71      -0.0003
     23  CE2       -0.1820    6.1100   11.4240 C.ar   71  PHE71      -0.0003
     24  CZ         0.0620    4.9460   12.1740 C.ar   71  PHE71      -0.0000
     25  N          1.9980   -3.5110   20.2680 N.3    99  THR99      -0.1203
     26  CA         1.5280   -4.8110   19.8060 C.3    99  THR99       0.1994
     27  C          2.1810   -5.1100   18.4480 C.2    99  THR99       0.2618
     28  O          2.6570   -6.2290   18.2160 O.2    99  THR99      -0.2717
     29  CB         0.0110   -4.7980   19.6930 C.3    99  THR99       0.1784
     30  OG1       -0.5500   -4.5010   21.0000 O.3    99  THR99      -0.2211
     31  CG2       -0.4930   -6.1450   19.1780 C.3    99  THR99       0.0376
     32  N          2.1660   -4.1030   17.5760 N.am  100  GLY100     -0.1942
     33  CA         2.9830   -4.0220   16.3870 C.3   100  GLY100      0.2014
     34  C          3.9310   -2.8190   16.5340 C.2   100  GLY100      0.2640
     35  O          3.8380   -2.0780   17.5150 O.2   100  GLY100     -0.2714
     36  N          4.8220   -2.6370   15.5530 N.am  101  THR101     -0.1936
     37  CA         5.8420   -1.6260   15.5480 C.3   101  THR101      0.2028
     38  C          5.6830   -0.6690   14.3880 C.2   101  THR101      0.2642
     39  O          5.6580   -1.0790   13.2610 O.2   101  THR101     -0.2714
     40  CB         7.2120   -2.2660   15.4330 C.3   101  THR101      0.1808
     41  OG1        7.3350   -3.2290   16.4750 O.3   101  THR101     -0.2208
     42  CG2        8.2960   -1.2410   15.6290 C.3   101  THR101      0.0379
     43  N          5.6130    0.6150   14.6990 N.am  102  SER102     -0.1949
     44  CA         5.5060    1.6880   13.7490 C.3   102  SER102      0.1924
     45  C          6.7450    2.5960   13.8450 C.2   102  SER102      0.2314
     46  O          7.2500    2.8620   14.9180 O.2   102  SER102     -0.2863
     47  CB         4.2760    2.5070   14.1150 C.3   102  SER102      0.2116
     48  OG         3.9050    3.3750   13.0670 O.3   102  SER102     -0.2180
     49  N          5.3410    9.0690    9.4050 N.3   113  ARG113     -0.1245
     50  CA         5.5240    7.6070    9.4370 C.3   113  ARG113      0.1563
     51  C          6.3250    7.0780    8.1830 C.2   113  ARG113      0.2260
     52  O          5.9350    7.2970    7.0460 O.2   113  ARG113     -0.2867
     53  CB         4.1630    6.9170    9.5080 C.3   113  ARG113      0.0307
     54  CG         4.2480    5.4090    9.7810 C.3   113  ARG113      0.0489
     55  CD         2.8710    4.8490   10.1340 C.3   113  ARG113      0.2205
     56  NE         2.9040    3.4500   10.6110 N.pl3 113  ARG113     -0.0865
     57  CZ         3.1210    2.3620    9.8590 C.cat 113  ARG113      0.5346
     58  NH1        3.3420    2.4530    8.5830 N.pl3 113  ARG113      0.1354
     59  NH2        3.1020    1.1600   10.3910 N.pl3 113  ARG113      0.1354
     60  N          6.9590    0.3360    9.0310 N.3   116  GLY116     -0.1210
     61  CA         6.2270   -0.4160   10.0220 C.3   116  GLY116      0.1956
     62  C          6.4720   -1.8600    9.8120 C.2   116  GLY116      0.2612
     63  O          6.7570   -2.2850    8.7230 O.2   116  GLY116     -0.2717
     64  N          6.3660   -2.6100   10.8690 N.am  117  ILE117     -0.1965
     65  CA         6.5550   -4.0040   10.7940 C.3   117  ILE117      0.1727
     66  C          5.7280   -4.6520   11.8870 C.2   117  ILE117      0.2616
     67  O          5.4890   -4.0500   12.9310 O.2   117  ILE117     -0.2715
     68  CB         8.0570   -4.2890   10.8220 C.3   117  ILE117      0.0290
     69  CG1        8.3480   -5.7780   10.7270 C.3   117  ILE117      0.0022
     70  CG2        8.7510   -3.5890   11.9920 C.3   117  ILE117      0.0023
     71  CD1        8.1420   -6.3250    9.3270 C.3   117  ILE117      0.0001
     72  N          5.2710   -5.8690   11.6100 N.am  118  GLY118     -0.1955
     73  CA         4.4550   -6.6730   12.5300 C.3   118  GLY118      0.1869
     74  C          5.2340   -7.4670   13.5920 C.2   118  GLY118      0.2309
     75  O          4.6480   -8.2820   14.3120 O.2   118  GLY118     -0.2863
@<TRIPOS>BOND
     1    52    51    2
     2    51    50    1
     3    58    57    1
     4    63    62    2
     5    60    61    1
     6    71    69    1
     7    49    50    1
     8    50    53    1
     9    53    54    1
    10    54    55    1
    11    62    61    1
    12    62    64   am
    13    57    59    1
    14    57    56    2
    15    55    56    1
    16    69    68    1
    17    65    68    1
    18    65    64    1
    19    65    66    1
    20    68    70    1
    21    23    21   ar
    22    23    24   ar
    23    72    66   am
    24    72    73    1
    25    66    67    2
    26    21    19   ar
    27    24    22   ar
    28    73    74    1
    29    48    47    1
    30    19    18    1
    31    19    20   ar
    32    39    38    2
    33    22    20   ar
    34    74    75    2
    35    18    15    1
    36    44    45    1
    37    44    47    1
    38    44    43    1
    39    45    46    2
    40    38    43   am
    41    38    37    1
    42    15    16    1
    43    15    14    1
    44    40    37    1
    45    40    42    1
    46    40    41    1
    47    37    36    1
    48    36    34   am
    49    16    17    2
    50    14     7   am
    51    33    34    1
    52    33    32    1
    53     5     6    1
    54    34    35    2
    55    10    11    1
    56    10     9    1
    57    13    11   ar
    58    11    12   ar
    59     7     6    1
    60     7     8    2
    61     6     9    1
    62    32    27   am
    63     4     3    2
    64     2     3    1
    65     2     1    1
    66    28    27    2
    67    27    26    1
    68    31    29    1
    69    29    26    1
    70    29    30    1
    71    26    25    1
