@<TRIPOS>MOLECULE
tmp/6awgA01.pdb
 129 123 0 0 0
SMALL
GASTEIGER

@<TRIPOS>ATOM
      1  N         27.3710  -15.4360   11.7410 N.3   156  VAL156     -0.1245
      2  CA        28.1340  -15.2960   10.5390 C.3   156  VAL156      0.1561
      3  C         29.4020  -16.1800   10.5340 C.2   156  VAL156      0.2260
      4  O         29.7610  -16.7180    9.5390 O.2   156  VAL156     -0.2867
      5  CB        28.4450  -13.8070   10.3120 C.3   156  VAL156      0.0252
      6  CG1       29.4410  -13.5890    9.2260 C.3   156  VAL156      0.0019
      7  CG2       27.1880  -13.0310   10.0550 C.3   156  VAL156      0.0019
      8  N         28.7600  -19.8110    9.5340 N.3   159  ILE159     -0.1231
      9  CA        28.6290  -19.9570    8.1270 C.3   159  ILE159      0.1692
     10  C         29.9790  -19.8510    7.4410 C.2   159  ILE159      0.2592
     11  O         30.2900  -20.6570    6.6440 O.2   159  ILE159     -0.2718
     12  CB        27.6460  -18.9340    7.5450 C.3   159  ILE159      0.0266
     13  CG1       26.2310  -19.1480    8.0670 C.3   159  ILE159      0.0019
     14  CG2       27.7070  -18.9320    6.0380 C.3   159  ILE159      0.0020
     15  CD1       25.1690  -18.3090    7.4080 C.3   159  ILE159      0.0001
     16  N         30.7750  -18.8650    7.8060 N.am  160  TYR160     -0.1976
     17  CA        32.1040  -18.6410    7.2140 C.3   160  TYR160      0.1639
     18  C         33.2120  -19.4720    7.8230 C.2   160  TYR160      0.2290
     19  O         34.2760  -19.5020    7.2890 O.2   160  TYR160     -0.2864
     20  CB        32.4490  -17.1500    7.1960 C.3   160  TYR160      0.0560
     21  CG        31.9650  -16.5290    5.9170 C.ar  160  TYR160     -0.0198
     22  CD1       30.6210  -16.2130    5.7390 C.ar  160  TYR160     -0.0009
     23  CD2       32.8260  -16.3410    4.8430 C.ar  160  TYR160     -0.0009
     24  CE1       30.1580  -15.7130    4.5380 C.ar  160  TYR160      0.0417
     25  CE2       32.3600  -15.8440    3.6300 C.ar  160  TYR160      0.0417
     26  CZ        31.0130  -15.5350    3.4900 C.ar  160  TYR160      0.1957
     27  OH        30.5530  -15.0020    2.3120 O.3   160  TYR160     -0.2866
     28  N         32.5990  -11.4190    5.2730 N.3   166  PRO166     -0.2102
     29  CA        32.3820  -10.1010    4.6810 C.3   166  PRO166      0.1504
     30  C         31.6640   -9.0950    5.6030 C.2   166  PRO166      0.2575
     31  O         31.5410   -7.9000    5.2440 O.2   166  PRO166     -0.2718
     32  CB        31.5190  -10.4200    3.4660 C.3   166  PRO166      0.0282
     33  CG        30.6760  -11.5520    3.9420 C.3   166  PRO166      0.0208
     34  CD        31.5530  -12.3710    4.8570 C.3   166  PRO166      0.0893
     35  N         31.1380   -9.5840    6.7280 N.am  167  ILE167     -0.1980
     36  CA        30.6260   -8.7440    7.8130 C.3   167  ILE167      0.1595
     37  C         31.0430   -9.3890    9.1230 C.2   167  ILE167      0.2287
     38  O         31.3020  -10.5760    9.1580 O.2   167  ILE167     -0.2864
     39  CB        29.0900   -8.5460    7.7430 C.3   167  ILE167      0.0276
     40  CG1       28.3230   -9.8690    7.7800 C.3   167  ILE167      0.0022
     41  CG2       28.7170   -7.8290    6.4540 C.3   167  ILE167      0.0022
     42  CD1       26.8660   -9.6820    8.1500 C.3   167  ILE167      0.0001
     43  N         30.5770  -12.2750   14.6620 N.3   170  ASP170     -0.1225
     44  CA        29.6730  -12.4260   15.8280 C.3   170  ASP170      0.1805
     45  C         28.1830  -12.0330   15.5180 C.2   170  ASP170      0.2598
     46  O         27.2930  -12.3280   16.2940 O.2   170  ASP170     -0.2718
     47  CB        30.2070  -11.6230   17.0070 C.3   170  ASP170      0.1424
     48  CG        29.5210  -11.9730   18.3140 C.2   170  ASP170      0.3668
     49  OD1       29.3500  -13.1730   18.6000 O.co2 170  ASP170     -0.2456
     50  OD2       29.1450  -11.0470   19.0740 O.co2 170  ASP170     -0.2456
     51  N         27.9270  -11.4230   14.3600 N.am  171  LEU171     -0.1966
     52  CA        26.5860  -10.9910   14.0080 C.3   171  LEU171      0.1728
     53  C         25.6860  -12.2030   13.7830 C.2   171  LEU171      0.2617
     54  O         26.1750  -13.2960   13.4710 O.2   171  LEU171     -0.2715
     55  CB        26.6060  -10.0980   12.7670 C.3   171  LEU171      0.0311
     56  CG        27.3550   -8.7690   12.9220 C.3   171  LEU171      0.0022
     57  CD1       27.4910   -8.0600   11.5740 C.3   171  LEU171      0.0001
     58  CD2       26.7180   -7.8430   13.9380 C.3   171  LEU171      0.0001
     59  N         24.3910  -12.0090   13.9990 N.am  172  THR172     -0.1937
     60  CA        23.3760  -13.0340   13.7060 C.3   172  THR172      0.2028
     61  C         23.2400  -13.1250   12.2070 C.2   172  THR172      0.2642
     62  O         22.9790  -12.1350   11.5400 O.2   172  THR172     -0.2714
     63  CB        21.9870  -12.6730   14.2600 C.3   172  THR172      0.1808
     64  OG1       22.0870  -12.4190   15.6640 O.3   172  THR172     -0.2208
     65  CG2       21.0140  -13.8320   14.0440 C.3   172  THR172      0.0379
     66  N         23.4910  -14.3050   11.6780 N.am  173  ALA173     -0.1963
     67  CA        23.2970  -14.5460   10.2810 C.3   173  ALA173      0.1728
     68  C         21.8790  -14.9970   10.0150 C.2   173  ALA173      0.2612
     69  O         21.3250  -14.6510    8.9810 O.2   173  ALA173     -0.2715
     70  CB        24.2430  -15.6130    9.8120 C.3   173  ALA173      0.0334
     71  N         21.3140  -15.7750   10.9430 N.am  174  ALA174     -0.2031
     72  CA        20.0390  -16.4750   10.7340 C.3   174  ALA174      0.1283
     73  C         19.3930  -16.8340   12.0690 C.3   174  ALA174      0.2036
     74  O         19.8140  -17.8040   12.8000 O.3   174  ALA174     -0.2185
     75  CB        20.2490  -17.7340    9.9020 C.3   174  ALA174      0.0262
     76  N         15.9780   -7.5720   16.8700 N.3   202  GLU202     -0.1245
     77  CA        16.9030   -7.3790   15.7390 C.3   202  GLU202      0.1567
     78  C         16.1690   -6.8070   14.5470 C.2   202  GLU202      0.2260
     79  O         16.6900   -5.9370   13.8560 O.2   202  GLU202     -0.2867
     80  CB        17.5990   -8.6890   15.3470 C.3   202  GLU202      0.0388
     81  CG        18.5220   -9.2320   16.4340 C.3   202  GLU202      0.1160
     82  CD        19.3420  -10.4690   16.0450 C.2   202  GLU202      0.3649
     83  OE1       19.2090  -11.0590   14.9490 O.co2 202  GLU202     -0.2457
     84  OE2       20.1650  -10.8550   16.8750 O.co2 202  GLU202     -0.2457
     85  N         16.9650   -3.1890   13.1150 N.3   206  THR206     -0.1218
     86  CA        17.4120   -3.1580   11.6930 C.3   206  THR206      0.1862
     87  C         16.6390   -2.1460   10.8380 C.2   206  THR206      0.2287
     88  O         17.2110   -1.3640   10.0880 O.2   206  THR206     -0.2866
     89  CB        17.2790   -4.5360   11.0130 C.3   206  THR206      0.1770
     90  OG1       18.0690   -5.4940   11.7260 O.3   206  THR206     -0.2211
     91  CG2       17.7570   -4.4600    9.5450 C.3   206  THR206      0.0375
     92  N         19.0540   -6.1390   23.5150 N.3   236  VAL236     -0.1245
     93  CA        19.1870   -6.5130   22.0950 C.3   236  VAL236      0.1561
     94  C         19.1350   -5.2650   21.2120 C.2   236  VAL236      0.2260
     95  O         19.9920   -5.0440   20.3430 O.2   236  VAL236     -0.2867
     96  CB        18.0760   -7.5300   21.6900 C.3   236  VAL236      0.0252
     97  CG1       17.9930   -7.6890   20.1890 C.3   236  VAL236      0.0019
     98  CG2       18.2930   -8.9000   22.3680 C.3   236  VAL236      0.0019
     99  N         22.7130   -3.4610   19.3930 N.3   240  TYR240     -0.1241
    100  CA        22.7960   -3.3840   17.9490 C.3   240  TYR240      0.1605
    101  C         22.6360   -1.9510   17.4000 C.2   240  TYR240      0.2264
    102  O         23.1830   -1.6320   16.3200 O.2   240  TYR240     -0.2867
    103  CB        21.8050   -4.3370   17.3050 C.3   240  TYR240      0.0534
    104  CG        22.0930   -4.5420   15.8520 C.ar  240  TYR240     -0.0201
    105  CD1       23.2570   -5.1970   15.4410 C.ar  240  TYR240     -0.0009
    106  CD2       21.2410   -4.0610   14.8780 C.ar  240  TYR240     -0.0009
    107  CE1       23.5260   -5.4020   14.0980 C.ar  240  TYR240      0.0417
    108  CE2       21.4990   -4.2490   13.5300 C.ar  240  TYR240      0.0417
    109  CZ        22.6420   -4.9400   13.1580 C.ar  240  TYR240      0.1957
    110  OH        22.9220   -5.1290   11.8300 O.3   240  TYR240     -0.2866
    111  N         26.1030   -0.6940   17.8970 N.3   243  LEU243     -0.1231
    112  CA        27.0080   -1.4170   16.9970 C.3   243  LEU243      0.1693
    113  C         27.0020   -0.8420   15.5770 C.2   243  LEU243      0.2591
    114  O         28.0460   -0.7590   14.9350 O.2   243  LEU243     -0.2718
    115  CB        26.6560   -2.8860   16.9990 C.3   243  LEU243      0.0284
    116  CG        27.6070   -3.8780   16.3150 C.3   243  LEU243      0.0019
    117  CD1       27.5710   -5.2410   16.9960 C.3   243  LEU243      0.0001
    118  CD2       27.2760   -4.0560   14.8450 C.3   243  LEU243      0.0001
    119  N         25.8340   -0.3880   15.1140 N.am  244  ARG244     -0.1980
    120  CA        25.6840    0.2410   13.7940 C.3   244  ARG244      0.1597
    121  C         25.8500    1.7710   13.7580 C.2   244  ARG244      0.2287
    122  O         25.5700    2.3990   12.7340 O.2   244  ARG244     -0.2864
    123  CB        24.3360   -0.1590   13.1990 C.3   244  ARG244      0.0334
    124  CG        24.1730   -1.6490   12.9680 C.3   244  ARG244      0.0492
    125  CD        25.0940   -2.1950   11.8900 C.3   244  ARG244      0.2205
    126  NE        24.7990   -1.5790   10.5960 N.pl3 244  ARG244     -0.0865
    127  CZ        23.7980   -1.9320    9.7750 C.cat 244  ARG244      0.5346
    128  NH1       22.9530   -2.9140   10.0970 N.pl3 244  ARG244      0.1354
    129  NH2       23.6280   -1.2960    8.6100 N.pl3 244  ARG244      0.1354
@<TRIPOS>BOND
     1    27    26    1
     2    32    33    1
     3    32    29    1
     4    26    25   ar
     5    26    24   ar
     6    25    23   ar
     7    33    34    1
     8    24    22   ar
     9    29    28    1
    10    29    30    1
    11    23    21   ar
    12    34    28    1
    13    31    30    2
    14    30    35   am
    15    22    21   ar
    16    21    20    1
    17    14    12    1
    18    41    39    1
    19    11    10    2
    20    35    36    1
    21    20    17    1
    22    17    16    1
    23    17    18    1
    24    19    18    2
    25    15    13    1
    26    10    16   am
    27    10     9    1
    28    12    13    1
    29    12     9    1
    30    39    40    1
    31    39    36    1
    32    40    42    1
    33    36    37    1
    34     9     8    1
    35   129   127    1
    36    69    68    2
    37    37    38    2
    38     6     5    1
    39     4     3    2
    40    91    89    1
    41   127   128    1
    42   127   126    2
    43    70    67    1
    44    75    72    1
    45    68    67    1
    46    68    71   am
    47     7     5    1
    48    88    87    2
    49    67    66    1
    50     5     2    1
    51     3     2    1
    52     2     1    1
    53   126   125    1
    54    72    71    1
    55    72    73    1
    56    87    86    1
    57    89    86    1
    58    89    90    1
    59    62    61    2
    60    57    56    1
    61    66    61   am
    62    86    85    1
    63   110   109    1
    64   125   124    1
    65    73    74    1
    66    61    60    1
    67   122   121    2
    68    55    56    1
    69    55    52    1
    70    56    58    1
    71   124   123    1
    72   109   108   ar
    73   109   107   ar
    74   123   120    1
    75    54    53    2
    76   108   106   ar
    77    60    59    1
    78    60    63    1
    79   121   120    1
    80    53    59   am
    81    53    52    1
    82   120   119    1
    83    79    78    2
    84    52    51    1
    85    65    63    1
    86   107   105   ar
    87    63    64    1
    88    51    45   am
    89    78    77    1
    90    43    44    1
    91   118   116    1
    92   106   104   ar
    93   114   113    2
    94    83    82   ar
    95   119   113   am
    96    80    77    1
    97    80    81    1
    98   105   104   ar
    99    45    44    1
   100    45    46    2
   101   113   112    1
   102    77    76    1
   103    44    47    1
   104   104   103    1
   105    82    81    1
   106    82    84   ar
   107   116   117    1
   108   116   115    1
   109   102   101    2
   110   112   115    1
   111   112   111    1
   112    47    48    1
   113   103   100    1
   114   101   100    1
   115   100    99    1
   116    48    49   ar
   117    48    50   ar
   118    97    96    1
   119    95    94    2
   120    94    93    1
   121    96    93    1
   122    96    98    1
   123    93    92    1
