@<TRIPOS>MOLECULE
tmp/6awgA00.pdb
 159 146 0 0 0
SMALL
GASTEIGER

@<TRIPOS>ATOM
      1  N         -4.6420    6.4790   25.5270 N.3     6  ASP6       -0.1239
      2  CA        -4.1550    5.8360   24.3160 C.3     6  ASP6        0.1674
      3  C         -4.5790    4.3940   24.5040 C.2     6  ASP6        0.2266
      4  O         -4.0140    3.6690   25.3240 O.2     6  ASP6       -0.2867
      5  CB        -2.6370    5.9610   24.1800 C.3     6  ASP6        0.1410
      6  CG        -2.0900    5.3370   22.8530 C.2     6  ASP6        0.3668
      7  OD1       -2.9350    4.8650   22.0350 O.co2   6  ASP6       -0.2456
      8  OD2       -0.8220    5.3170   22.6320 O.co2   6  ASP6       -0.2456
      9  N         -4.7770    1.0280   23.0950 N.3     8  GLY8       -0.1210
     10  CA        -4.0900    0.2600   22.0940 C.3     8  GLY8        0.1956
     11  C         -4.7180   -1.1010   21.9400 C.2     8  GLY8        0.2612
     12  O         -5.7900   -1.3800   22.5050 O.2     8  GLY8       -0.2717
     13  N         -4.0390   -1.9440   21.1790 N.am    9  GLY9       -0.1942
     14  CA        -4.5180   -3.2800   20.9060 C.3     9  GLY9        0.2014
     15  C         -4.4650   -4.1550   22.1340 C.2     9  GLY9        0.2640
     16  O         -5.2650   -5.0770   22.2830 O.2     9  GLY9       -0.2714
     17  N         -3.5240   -3.8490   23.0230 N.am   10  THR10      -0.1936
     18  CA        -3.2190   -4.7060   24.1920 C.3    10  THR10       0.2028
     19  C         -3.3590   -3.9510   25.5390 C.2    10  THR10       0.2642
     20  O         -4.0180   -4.4360   26.4750 O.2    10  THR10      -0.2714
     21  CB        -1.8030   -5.3180   24.0210 C.3    10  THR10       0.1808
     22  OG1       -1.7380   -5.9690   22.7400 O.3    10  THR10      -0.2208
     23  CG2       -1.4920   -6.3200   25.1130 C.3    10  THR10       0.0379
     24  N         -2.7450   -2.7760   25.6300 N.am   11  LEU11      -0.1977
     25  CA        -2.7890   -1.9560   26.8410 C.3    11  LEU11       0.1596
     26  C         -3.5250   -0.6370   26.6040 C.2    11  LEU11       0.2287
     27  O         -3.4580   -0.0530   25.5180 O.2    11  LEU11      -0.2864
     28  CB        -1.3980   -1.7110   27.3570 C.3    11  LEU11       0.0297
     29  CG        -0.7020   -3.0090   27.7490 C.3    11  LEU11       0.0022
     30  CD1        0.7620   -2.7210   28.0670 C.3    11  LEU11       0.0001
     31  CD2       -1.3650   -3.7720   28.9120 C.3    11  LEU11       0.0001
     32  N         -3.4790    2.9980   28.0630 N.3    13  LYS13      -0.1245
     33  CA        -2.5820    3.8320   28.8810 C.3    13  LYS13       0.1561
     34  C         -3.3400    5.0680   29.2900 C.2    13  LYS13       0.2260
     35  O         -3.8890    5.7450   28.4580 O.2    13  LYS13      -0.2867
     36  CB        -1.2930    4.2060   28.1260 C.3    13  LYS13       0.0271
     37  CG        -0.2140    3.1140   28.1240 C.3    13  LYS13       0.0035
     38  CD        -0.5860    1.9110   27.2550 C.3    13  LYS13       0.0206
     39  CE        -0.6320    2.2510   25.7550 C.3    13  LYS13       0.1093
     40  NZ        -0.9180    1.1080   24.8860 N.3    13  LYS13      -0.1314
     41  N         -1.9280    1.9570   33.7600 N.3    26  THR26      -0.1218
     42  CA        -2.1250    1.0440   32.6260 C.3    26  THR26       0.1862
     43  C         -3.2260    0.0580   32.9640 C.2    26  THR26       0.2287
     44  O         -3.4490   -0.2990   34.1210 O.2    26  THR26      -0.2866
     45  CB        -0.8520    0.3070   32.1280 C.3    26  THR26       0.1770
     46  OG1       -0.9930   -1.1250   32.3020 O.3    26  THR26      -0.2211
     47  CG2        0.4080    0.8340   32.7780 C.3    26  THR26       0.0375
     48  N         -5.5330   -3.3890   30.9330 N.3    28  LEU28      -0.1245
     49  CA        -5.7180   -4.2410   29.7840 C.3    28  LEU28       0.1561
     50  C         -6.8670   -3.7870   28.8840 C.2    28  LEU28       0.2260
     51  O         -7.9610   -3.4660   29.3720 O.2    28  LEU28      -0.2867
     52  CB        -5.9670   -5.6860   30.2300 C.3    28  LEU28       0.0270
     53  CG        -4.8870   -6.3990   31.0580 C.3    28  LEU28       0.0019
     54  CD1       -5.1180   -7.9120   31.0230 C.3    28  LEU28       0.0001
     55  CD2       -3.4860   -6.0790   30.5570 C.3    28  LEU28       0.0001
     56  N         -6.2210    2.7190   18.8260 N.3    52  GLY52      -0.1225
     57  CA        -7.1470    1.9380   18.0270 C.3    52  GLY52       0.1811
     58  C         -8.5120    1.6880   18.6380 C.2    52  GLY52       0.2280
     59  O         -9.4840    1.5110   17.8950 O.2    52  GLY52      -0.2866
     60  N         -3.0660    8.5700   16.5330 N.3    70  GLU70      -0.1245
     61  CA        -2.0260    8.1240   17.4680 C.3    70  GLU70       0.1567
     62  C         -0.5920    8.4470   17.0710 C.2    70  GLU70       0.2260
     63  O          0.2750    8.5180   17.9510 O.2    70  GLU70      -0.2867
     64  CB        -2.1530    6.6250   17.7630 C.3    70  GLU70       0.0388
     65  CG        -1.8720    5.7030   16.5790 C.3    70  GLU70       0.1160
     66  CD        -1.7240    4.2400   17.0060 C.2    70  GLU70       0.3649
     67  OE1       -0.6380    3.8760   17.5300 O.co2  70  GLU70      -0.2457
     68  OE2       -2.6840    3.4590   16.8190 O.co2  70  GLU70      -0.2457
     69  N          7.8100    2.9210   17.8380 N.3    96  ASN96      -0.1240
     70  CA         6.7830    2.6780   18.8440 C.3    96  ASN96       0.1653
     71  C          6.5370    1.1640   18.7970 C.2    96  ASN96       0.2266
     72  O          5.7920    0.6490   17.9340 O.2    96  ASN96      -0.2867
     73  CB         5.5240    3.4880   18.5240 C.3    96  ASN96       0.1155
     74  CG         4.4880    3.4330   19.6320 C.2    96  ASN96       0.2627
     75  OD1        4.5950    2.6420   20.5520 O.2    96  ASN96      -0.2716
     76  ND2        3.4710    4.2730   19.5470 N.am   96  ASN96      -0.0877
     77  N          4.8500   -1.4990   20.0350 N.3    98  GLY98      -0.1210
     78  CA         3.6680   -1.8920   20.7360 C.3    98  GLY98       0.1956
     79  C          3.2830   -3.2810   20.4220 C.2    98  GLY98       0.2613
     80  O          4.1080   -4.1550   20.3460 O.2    98  GLY98      -0.2717
     81  N          1.9980   -3.5110   20.2680 N.am   99  THR99      -0.1938
     82  CA         1.5280   -4.8110   19.8060 C.3    99  THR99       0.2028
     83  C          2.1810   -5.1100   18.4480 C.2    99  THR99       0.2642
     84  O          2.6570   -6.2290   18.2160 O.2    99  THR99      -0.2714
     85  CB         0.0110   -4.7980   19.6930 C.3    99  THR99       0.1808
     86  OG1       -0.5500   -4.5010   21.0000 O.3    99  THR99      -0.2208
     87  CG2       -0.4930   -6.1450   19.1780 C.3    99  THR99       0.0379
     88  N          2.1660   -4.1030   17.5760 N.am  100  GLY100     -0.1954
     89  CA         2.9830   -4.0220   16.3870 C.3   100  GLY100      0.1869
     90  C          3.9310   -2.8190   16.5340 C.2   100  GLY100      0.2309
     91  O          3.8380   -2.0780   17.5150 O.2   100  GLY100     -0.2863
     92  N          5.5570   -6.5270   20.4260 N.3   121  GLY121     -0.1210
     93  CA         5.1270   -7.2740   21.6290 C.3   121  GLY121      0.1956
     94  C          4.0730   -8.3600   21.4160 C.2   121  GLY121      0.2612
     95  O          4.0550   -9.3730   22.1370 O.2   121  GLY121     -0.2717
     96  N          3.2000   -8.1660   20.4310 N.am  122  GLY122     -0.1956
     97  CA         2.1870   -9.1590   20.0690 C.3   122  GLY122      0.1869
     98  C          2.8670  -10.4240   19.6500 C.2   122  GLY122      0.2309
     99  O          2.4740  -11.5100   20.0320 O.2   122  GLY122     -0.2863
    100  N          5.7900  -11.3810   20.6290 N.3   124  ILE124     -0.1231
    101  CA         6.4840  -11.9250   21.8030 C.3   124  ILE124      0.1692
    102  C          5.5220  -12.7650   22.6200 C.2   124  ILE124      0.2591
    103  O          5.8380  -13.8790   23.0400 O.2   124  ILE124     -0.2718
    104  CB         7.1100  -10.8100   22.6370 C.3   124  ILE124      0.0266
    105  CG1        8.2290  -10.1350   21.8220 C.3   124  ILE124      0.0019
    106  CG2        7.7000  -11.3580   23.9350 C.3   124  ILE124      0.0020
    107  CD1        8.8270   -8.8730   22.3770 C.3   124  ILE124      0.0001
    108  N          4.3430  -12.2050   22.8100 N.am  125  GLN125     -0.1979
    109  CA         3.2330  -12.9070   23.4640 C.3   125  GLN125      0.1601
    110  C          2.6900  -14.0900   22.6900 C.2   125  GLN125      0.2287
    111  O          2.4650  -15.1440   23.2570 O.2   125  GLN125     -0.2864
    112  CB         2.0870  -11.9380   23.7200 C.3   125  GLN125      0.0394
    113  CG         2.4560  -10.8220   24.6600 C.3   125  GLN125      0.0908
    114  CD         1.2330  -10.0920   25.1510 C.2   125  GLN125      0.2608
    115  OE1        0.8090   -9.0690   24.5690 O.2   125  GLN125     -0.2717
    116  NE2        0.6200  -10.6410   26.1940 N.am  125  GLN125     -0.0878
    117  N          2.0480  -12.5650   30.9460 N.3   137  TYR137     -0.1241
    118  CA         3.1340  -11.7420   30.3740 C.3   137  TYR137      0.1605
    119  C          4.4050  -11.6670   31.2540 C.2   137  TYR137      0.2264
    120  O          5.5360  -11.7220   30.7450 O.2   137  TYR137     -0.2867
    121  CB         2.6450  -10.3210   30.0630 C.3   137  TYR137      0.0534
    122  CG         3.7500   -9.3990   29.5210 C.ar  137  TYR137     -0.0201
    123  CD1        4.1480   -9.4620   28.1900 C.ar  137  TYR137     -0.0009
    124  CD2        4.4230   -8.4870   30.3550 C.ar  137  TYR137     -0.0009
    125  CE1        5.1320   -8.6200   27.7020 C.ar  137  TYR137      0.0417
    126  CE2        5.4330   -7.6600   29.8710 C.ar  137  TYR137      0.0417
    127  CZ         5.7880   -7.7290   28.5380 C.ar  137  TYR137      0.1957
    128  OH         6.8000   -6.9210   28.0160 O.3   137  TYR137     -0.2866
    129  N          7.1160    2.2930   23.7100 N.3   224  GLY224     -0.1210
    130  CA         6.1320    1.2230   23.7200 C.3   224  GLY224      0.1956
    131  C          6.3440    0.4000   24.9850 C.2   224  GLY224      0.2613
    132  O          7.4310    0.4070   25.5900 O.2   224  GLY224     -0.2717
    133  N          5.3060   -0.3220   25.3730 N.am  225  SER225     -0.1938
    134  CA         5.3140   -1.0630   26.5760 C.3   225  SER225      0.2055
    135  C          6.0980   -2.3570   26.4500 C.2   225  SER225      0.2643
    136  O          6.4010   -2.9730   27.4480 O.2   225  SER225     -0.2714
    137  CB         3.8850   -1.3890   26.9810 C.3   225  SER225      0.2130
    138  OG         3.1380   -0.1950   27.0210 O.3   225  SER225     -0.2179
    139  N          6.4140   -2.7680   25.2320 N.am  226  SER226     -0.1949
    140  CA         7.1230   -4.0190   24.9580 C.3   226  SER226      0.1924
    141  C          8.4530   -4.1340   25.6900 C.2   226  SER226      0.2314
    142  O          8.9530   -5.2480   25.8550 O.2   226  SER226     -0.2863
    143  CB         7.3570   -4.1820   23.4450 C.3   226  SER226      0.2116
    144  OG         6.1310   -4.3670   22.7630 O.3   226  SER226     -0.2180
    145  N          8.8370   -3.0040   28.9080 N.3   228  HIS228     -0.1241
    146  CA         8.5380   -3.0890   30.3410 C.3   228  HIS228      0.1621
    147  C          8.6830   -4.4970   30.7770 C.2   228  HIS228      0.2264
    148  O          8.0790   -5.3980   30.1710 O.2   228  HIS228     -0.2867
    149  CB         7.1180   -2.6500   30.6660 C.3   228  HIS228      0.0745
    150  CG         6.8380   -1.2090   30.3510 C.ar  228  HIS228      0.0817
    151  ND1        5.5580   -0.6850   30.3500 N.ar  228  HIS228     -0.2268
    152  CD2        7.6690   -0.1880   30.0020 C.ar  228  HIS228      0.1154
    153  CE1        5.6180    0.6010   30.0420 C.ar  228  HIS228      0.1986
    154  NE2        6.8830    0.9260   29.8160 N.ar  228  HIS228     -0.2212
    155  N          6.0590    4.5790   27.0960 N.3   255  ALA255     -0.1245
    156  CA         4.7840    3.9650   26.7420 C.3   255  ALA255      0.1562
    157  C          3.5140    4.8150   26.8660 C.2   255  ALA255      0.2260
    158  O          2.4690    4.4410   26.3500 O.2   255  ALA255     -0.2867
    159  CB         4.6200    2.6930   27.5540 C.3   255  ALA255      0.0290
@<TRIPOS>BOND
     1    89    90    1
     2    89    88    1
     3    60    61    1
     4    90    91    2
     5    65    66    1
     6    65    64    1
     7    68    66   ar
     8    66    67   ar
     9    62    61    1
    10    62    63    2
    11    61    64    1
    12    88    83   am
    13    69    70    1
    14    59    58    2
    15    72    71    2
    16    57    58    1
    17    57    56    1
    18    84    83    2
    19    83    82    1
    20    73    70    1
    21    73    74    1
    22    71    70    1
    23    87    85    1
    24    76    74   am
    25    74    75    2
    26    98    99    2
    27    98    97    1
    28    85    82    1
    29    85    86    1
    30    82    81    1
    31    77    78    1
    32    97    96    1
    33    81    79   am
    34    80    79    2
    35    79    78    1
    36    92    93    1
    37    96    94   am
    38   100   101    1
    39    14    13    1
    40    14    15    1
    41    13    11   am
    42    94    93    1
    43    94    95    2
    44   101   102    1
    45   101   104    1
    46   105   107    1
    47   105   104    1
    48    11    10    1
    49    11    12    2
    50     7     6   ar
    51    10     9    1
    52    15    16    2
    53    15    17   am
    54   102   108   am
    55   102   103    2
    56     8     6   ar
    57   104   106    1
    58   110   111    2
    59   110   109    1
    60    22    21    1
    61   144   143    1
    62   108   109    1
    63     6     5    1
    64    17    18    1
    65   143   140    1
    66   109   112    1
    67   129   130    1
    68   130   131    1
    69   112   113    1
    70    21    18    1
    71    21    23    1
    72     5     2    1
    73    18    19    1
    74     2     3    1
    75     2     1    1
    76     3     4    2
    77   115   114    2
    78   113   114    1
    79    40    39    1
    80   140   139    1
    81   140   141    1
    82   131   133   am
    83   131   132    2
    84   114   116   am
    85   139   135   am
    86   133   134    1
    87    27    26    2
    88    19    24   am
    89    19    20    2
    90    24    25    1
    91   141   142    2
    92    39    38    1
    93   158   157    2
    94   135   134    1
    95   135   136    2
    96   134   137    1
    97    26    25    1
    98   156   157    1
    99   156   155    1
   100   156   159    1
   101    25    28    1
   102   137   138    1
   103    38    37    1
   104    28    29    1
   105   125   123   ar
   106   125   127   ar
   107    29    30    1
   108    29    31    1
   109   128   127    1
   110    32    33    1
   111    37    36    1
   112    36    33    1
   113   123   122   ar
   114    35    34    2
   115   127   126   ar
   116    33    34    1
   117    50    51    2
   118    50    49    1
   119   145   146    1
   120   122   121    1
   121   122   124   ar
   122    49    52    1
   123    49    48    1
   124   154   152   ar
   125   154   153   ar
   126   126   124   ar
   127   152   150   ar
   128   153   151   ar
   129   121   118    1
   130   148   147    2
   131    52    53    1
   132   146   149    1
   133   146   147    1
   134   151   150   ar
   135   150   149    1
   136   118   117    1
   137   118   119    1
   138    55    53    1
   139   120   119    2
   140    54    53    1
   141    45    46    1
   142    45    42    1
   143    45    47    1
   144    42    43    1
   145    42    41    1
   146    43    44    2
