@<TRIPOS>MOLECULE
tmp/6awiC01.pdb
 79 74 0 0 0
SMALL
GASTEIGER

@<TRIPOS>ATOM
      1  N          8.3590   14.3620   52.8550 N.3     9  GLY9       -0.1225
      2  CA         8.1360   15.7270   53.2810 C.3     9  GLY9        0.1811
      3  C          7.4580   16.6480   52.2600 C.2     9  GLY9        0.2280
      4  O          6.7620   17.6060   52.6420 O.2     9  GLY9       -0.2866
      5  N          8.2480    9.7290   56.0370 N.3    52  GLY52      -0.1225
      6  CA         8.0290   10.5130   57.2660 C.3    52  GLY52       0.1811
      7  C          6.5560   10.7540   57.5980 C.2    52  GLY52       0.2280
      8  O          6.1860   10.8430   58.7530 O.2    52  GLY52      -0.2866
      9  N         12.1270    3.8910   55.5760 N.3    70  GLU70      -0.1231
     10  CA        12.2680    4.2950   54.1680 C.3    70  GLU70       0.1699
     11  C         13.5720    3.9310   53.5290 C.2    70  GLU70       0.2592
     12  O         13.6200    3.7420   52.3130 O.2    70  GLU70      -0.2718
     13  CB        12.0270    5.8160   53.9840 C.3    70  GLU70       0.0402
     14  CG        13.0080    6.7470   54.6400 C.3    70  GLU70       0.1161
     15  CD        12.7230    8.2250   54.2880 C.2    70  GLU70       0.3649
     16  OE1       13.1030    8.6360   53.1380 O.co2  70  GLU70      -0.2457
     17  OE2       12.0790    8.9160   55.1380 O.co2  70  GLU70      -0.2457
     18  N         14.6340    3.8090   54.3110 N.am   71  PHE71      -0.1976
     19  CA        15.9550    3.4440   53.7500 C.3    71  PHE71       0.1639
     20  C         15.9490    2.0200   53.1920 C.2    71  PHE71       0.2290
     21  O         16.4000    1.7630   52.0920 O.2    71  PHE71      -0.2864
     22  CB        17.0170    3.5810   54.7930 C.3    71  PHE71       0.0560
     23  CG        17.0350    4.9660   55.5010 C.ar   71  PHE71      -0.0200
     24  CD1       16.8210    6.1350   54.7880 C.ar   71  PHE71      -0.0042
     25  CD2       17.3720    5.0530   56.8350 C.ar   71  PHE71      -0.0042
     26  CE1       16.9160    7.3760   55.4000 C.ar   71  PHE71      -0.0003
     27  CE2       17.4510    6.2970   57.4650 C.ar   71  PHE71      -0.0003
     28  CZ        17.1820    7.4480   56.7520 C.ar   71  PHE71      -0.0000
     29  N         13.3430   15.8880   49.4480 N.3    99  THR99      -0.1203
     30  CA        13.3330   17.1380   50.2140 C.3    99  THR99       0.1994
     31  C         14.7530   17.4470   50.7660 C.2    99  THR99       0.2618
     32  O         15.2590   18.5620   50.5680 O.2    99  THR99      -0.2717
     33  CB        12.2820   17.1400   51.2960 C.3    99  THR99       0.1784
     34  OG1       10.9780   16.8740   50.7190 O.3    99  THR99      -0.2211
     35  CG2       12.2370   18.5470   51.9730 C.3    99  THR99       0.0376
     36  N         15.4050   16.4640   51.4070 N.am  100  GLY100     -0.1942
     37  CA        16.8610   16.4800   51.5920 C.3   100  GLY100      0.2014
     38  C         17.4590   15.2310   50.9630 C.2   100  GLY100      0.2640
     39  O         16.7330   14.4440   50.3500 O.2   100  GLY100     -0.2714
     40  N         18.7650   15.0350   51.1350 N.am  101  THR101     -0.1936
     41  CA        19.4970   14.0280   50.4850 C.3   101  THR101      0.2028
     42  C         20.0880   13.0110   51.4780 C.2   101  THR101      0.2642
     43  O         20.8530   13.4020   52.3590 O.2   101  THR101     -0.2714
     44  CB        20.6370   14.6470   49.6860 C.3   101  THR101      0.1808
     45  OG1       20.1060   15.4930   48.6450 O.3   101  THR101     -0.2208
     46  CG2       21.5080   13.5950   49.0390 C.3   101  THR101      0.0379
     47  N         19.7440   11.7290   51.3010 N.am  102  SER102     -0.1949
     48  CA        20.2830   10.6060   52.0690 C.3   102  SER102      0.1924
     49  C         21.1210    9.7320   51.1530 C.2   102  SER102      0.2314
     50  O         20.6830    9.4050   50.0400 O.2   102  SER102     -0.2863
     51  CB        19.0770    9.8370   52.6300 C.3   102  SER102      0.2116
     52  OG        19.4220    8.8400   53.5800 O.3   102  SER102     -0.2180
     53  N         23.0530    3.3940   55.4580 N.3   113  ARG113     -0.1245
     54  CA        23.1770    4.8290   55.2590 C.3   113  ARG113      0.1563
     55  C         24.6020    5.2680   55.6110 C.2   113  ARG113      0.2260
     56  O         25.0560    5.0100   56.6840 O.2   113  ARG113     -0.2867
     57  CB        22.1430    5.5620   56.1070 C.3   113  ARG113      0.0307
     58  CG        22.0310    7.0660   55.8750 C.3   113  ARG113      0.0489
     59  CD        20.7830    7.6290   56.5360 C.3   113  ARG113      0.2205
     60  NE        20.4920    9.0140   56.1900 N.pl3 113  ARG113     -0.0865
     61  CZ        21.0990   10.0860   56.6610 C.cat 113  ARG113      0.5346
     62  NH1       22.0600    9.9980   57.5200 N.pl3 113  ARG113      0.1354
     63  NH2       20.7240   11.2670   56.2610 N.pl3 113  ARG113      0.1354
     64  N         24.4550   12.0280   54.7940 N.3   116  GLY116     -0.1210
     65  CA        23.3020   12.7880   54.3490 C.3   116  GLY116      0.1956
     66  C         23.6540   14.2560   54.4160 C.2   116  GLY116      0.2612
     67  O         24.6470   14.6430   55.0400 O.2   116  GLY116     -0.2717
     68  N         22.8360   15.0460   53.7600 N.am  117  ILE117     -0.1965
     69  CA        23.0710   16.4490   53.6680 C.3   117  ILE117      0.1727
     70  C         21.7280   17.1240   53.3700 C.2   117  ILE117      0.2616
     71  O         20.8240   16.5450   52.6680 O.2   117  ILE117     -0.2715
     72  CB        24.2300   16.7850   52.6940 C.3   117  ILE117      0.0290
     73  CG1       24.6650   18.2490   52.8670 C.3   117  ILE117      0.0022
     74  CG2       23.9190   16.4260   51.2370 C.3   117  ILE117      0.0023
     75  CD1       25.3040   18.5030   54.2130 C.3   117  ILE117      0.0001
     76  N         21.5960   18.3560   53.8550 N.am  118  GLY118     -0.1955
     77  CA        20.3260   19.0960   53.6540 C.3   118  GLY118      0.1869
     78  C         20.2320   19.8440   52.3180 C.2   118  GLY118      0.2309
     79  O         19.2700   20.5590   52.1070 O.2   118  GLY118     -0.2863
@<TRIPOS>BOND
     1    45    44    1
     2    46    44    1
     3    29    30    1
     4    44    41    1
     5    50    49    2
     6    30    31    1
     7    30    33    1
     8    39    38    2
     9    41    40    1
    10    41    42    1
    11    32    31    2
    12    34    33    1
    13    31    36   am
    14    38    40   am
    15    38    37    1
    16    49    48    1
    17    74    72    1
    18    33    35    1
    19    47    42   am
    20    47    48    1
    21    36    37    1
    22    42    43    2
    23    48    51    1
    24    21    20    2
    25    79    78    2
    26     3     4    2
    27     3     2    1
    28    12    11    2
    29    78    77    1
    30    51    52    1
    31    71    70    2
    32    72    73    1
    33    72    69    1
    34     1     2    1
    35    73    75    1
    36    16    15   ar
    37    20    19    1
    38    70    69    1
    39    70    76   am
    40    11    10    1
    41    11    18   am
    42    77    76    1
    43    69    68    1
    44    19    18    1
    45    19    22    1
    46    68    66   am
    47    13    10    1
    48    13    14    1
    49    10     9    1
    50    15    14    1
    51    15    17   ar
    52    65    66    1
    53    65    64    1
    54    66    67    2
    55    24    26   ar
    56    24    23   ar
    57    22    23    1
    58    54    53    1
    59    54    55    1
    60    54    57    1
    61    26    28   ar
    62    23    25   ar
    63    55    56    2
    64    58    57    1
    65    58    59    1
    66     5     6    1
    67    60    59    1
    68    60    61    2
    69    63    61    1
    70    61    62    1
    71    28    27   ar
    72    25    27   ar
    73     6     7    1
    74     7     8    2
