@<TRIPOS>MOLECULE
tmp/6awiC02.pdb
 90 86 0 0 0
SMALL
GASTEIGER

@<TRIPOS>ATOM
      1  N         38.3310   27.5750   39.5740 N.3   156  VAL156     -0.1245
      2  CA        39.7170   27.4750   39.9740 C.3   156  VAL156      0.1561
      3  C         40.5940   28.3470   39.0720 C.2   156  VAL156      0.2260
      4  O         41.5140   28.9870   39.5300 O.2   156  VAL156     -0.2867
      5  CB        40.1560   26.0240   39.8820 C.3   156  VAL156      0.0252
      6  CG1       41.6400   25.8730   39.9640 C.3   156  VAL156      0.0019
      7  CG2       39.4620   25.1860   40.9310 C.3   156  VAL156      0.0019
      8  N         41.1150   32.0730   40.0050 N.3   159  ILE159     -0.1231
      9  CA        41.9730   32.2960   41.1390 C.3   159  ILE159      0.1692
     10  C         43.4190   32.1530   40.7350 C.2   159  ILE159      0.2592
     11  O         44.2320   32.9470   41.0990 O.2   159  ILE159     -0.2718
     12  CB        41.6360   31.2940   42.2560 C.3   159  ILE159      0.0266
     13  CG1       40.2100   31.4920   42.7170 C.3   159  ILE159      0.0019
     14  CG2       42.6060   31.3740   43.4200 C.3   159  ILE159      0.0020
     15  CD1       39.8830   30.7220   43.9460 C.3   159  ILE159      0.0001
     16  N         43.7220   31.0840   40.0400 N.am  160  TYR160     -0.1976
     17  CA        45.0670   30.8490   39.5770 C.3   160  TYR160      0.1639
     18  C         45.4670   31.7270   38.3740 C.2   160  TYR160      0.2290
     19  O         46.6430   32.0340   38.1880 O.2   160  TYR160     -0.2864
     20  CB        45.2750   29.3610   39.3660 C.3   160  TYR160      0.0560
     21  CG        45.7000   28.7750   40.6620 C.ar  160  TYR160     -0.0198
     22  CD1       44.7750   28.4880   41.6770 C.ar  160  TYR160     -0.0009
     23  CD2       47.0340   28.5420   40.9040 C.ar  160  TYR160     -0.0009
     24  CE1       45.2040   27.9940   42.9060 C.ar  160  TYR160      0.0417
     25  CE2       47.4660   28.0360   42.0960 C.ar  160  TYR160      0.0417
     26  CZ        46.5590   27.7740   43.1080 C.ar  160  TYR160      0.1957
     27  OH        47.0480   27.2680   44.3060 O.3   160  TYR160     -0.2866
     28  N         46.7620   23.6300   40.5110 N.3   166  PRO166     -0.2102
     29  CA        47.0520   22.3110   41.0590 C.3   166  PRO166      0.1504
     30  C         45.8970   21.3190   40.9050 C.2   166  PRO166      0.2575
     31  O         46.1120   20.1240   41.0190 O.2   166  PRO166     -0.2718
     32  CB        47.3490   22.6060   42.5410 C.3   166  PRO166      0.0282
     33  CG        46.5750   23.8360   42.8260 C.3   166  PRO166      0.0208
     34  CD        46.6900   24.6540   41.5630 C.3   166  PRO166      0.0893
     35  N         44.7000   21.8040   40.6230 N.am  167  ILE167     -0.1980
     36  CA        43.5840   20.9640   40.2760 C.3   167  ILE167      0.1595
     37  C         42.9580   21.5790   39.0550 C.2   167  ILE167      0.2287
     38  O         43.2170   22.7550   38.7750 O.2   167  ILE167     -0.2864
     39  CB        42.5650   20.8830   41.4360 C.3   167  ILE167      0.0276
     40  CG1       42.0400   22.2520   41.8120 C.3   167  ILE167      0.0022
     41  CG2       43.2240   20.2110   42.6210 C.3   167  ILE167      0.0022
     42  CD1       40.9020   22.1890   42.8400 C.3   167  ILE167      0.0001
     43  N         37.0610   23.5450   37.2220 N.3   171  LEU171     -0.1231
     44  CA        36.2250   23.2050   38.3600 C.3   171  LEU171      0.1693
     45  C         35.6990   24.4550   39.0490 C.2   171  LEU171      0.2593
     46  O         36.3700   25.4970   39.1030 O.2   171  LEU171     -0.2718
     47  CB        36.9970   22.3470   39.3630 C.3   171  LEU171      0.0284
     48  CG        37.5620   21.0090   38.9420 C.3   171  LEU171      0.0019
     49  CD1       38.3680   20.4510   40.0990 C.3   171  LEU171      0.0001
     50  CD2       36.4830   20.0340   38.5320 C.3   171  LEU171      0.0001
     51  N         34.4860   24.3660   39.5870 N.am  172  THR172     -0.1939
     52  CA        34.0170   25.3530   40.5310 C.3   172  THR172      0.2028
     53  C         34.9070   25.4020   41.8040 C.2   172  THR172      0.2642
     54  O         35.0490   24.4350   42.5160 O.2   172  THR172     -0.2714
     55  CB        32.5970   25.0500   40.9400 C.3   172  THR172      0.1808
     56  OG1       31.8130   24.9330   39.7660 O.3   172  THR172     -0.2208
     57  CG2       32.0040   26.1450   41.8470 C.3   172  THR172      0.0379
     58  N         35.4630   26.5760   42.0570 N.am  173  ALA173     -0.1977
     59  CA        36.2050   26.8790   43.2970 C.3   173  ALA173      0.1597
     60  C         35.2920   27.3400   44.4230 C.2   173  ALA173      0.2287
     61  O         35.5660   27.0220   45.5810 O.2   173  ALA173     -0.2864
     62  CB        37.2180   27.9780   43.0690 C.3   173  ALA173      0.0319
     63  N         26.3600   20.0340   42.9500 N.3   202  GLU202     -0.1245
     64  CA        27.7790   19.7910   43.1980 C.3   202  GLU202      0.1567
     65  C         28.0380   19.1660   44.5820 C.2   202  GLU202      0.2260
     66  O         28.9880   18.3890   44.7600 O.2   202  GLU202     -0.2867
     67  CB        28.6080   21.0430   43.0030 C.3   202  GLU202      0.0388
     68  CG        28.7570   21.4150   41.5270 C.3   202  GLU202      0.1160
     69  CD        29.4460   22.7870   41.3290 C.2   202  GLU202      0.3649
     70  OE1       29.8780   23.4130   42.3350 O.co2 202  GLU202     -0.2457
     71  OE2       29.4980   23.2630   40.1630 O.co2 202  GLU202     -0.2457
     72  N         29.6360   15.4920   45.0210 N.3   206  THR206     -0.1218
     73  CA        30.9080   15.4450   45.7140 C.3   206  THR206      0.1862
     74  C         30.7360   14.4690   46.8700 C.2   206  THR206      0.2287
     75  O         31.6410   13.7140   47.1680 O.2   206  THR206     -0.2866
     76  CB        31.3390   16.8520   46.2120 C.3   206  THR206      0.1770
     77  OG1       31.4210   17.7440   45.0930 O.3   206  THR206     -0.2211
     78  CG2       32.6650   16.7610   46.9180 C.3   206  THR206      0.0375
     79  N         29.7640   15.8260   36.6160 N.3   240  TYR240     -0.1241
     80  CA        30.7870   15.7890   37.6500 C.3   240  TYR240      0.1605
     81  C         31.0270   14.3560   38.1090 C.2   240  TYR240      0.2264
     82  O         32.1580   14.0060   38.4200 O.2   240  TYR240     -0.2867
     83  CB        30.5170   16.7950   38.8360 C.3   240  TYR240      0.0534
     84  CG        31.6840   16.9080   39.7650 C.ar  240  TYR240     -0.0201
     85  CD1       32.9410   17.2150   39.2810 C.ar  240  TYR240     -0.0009
     86  CD2       31.5650   16.6970   41.1430 C.ar  240  TYR240     -0.0009
     87  CE1       34.0310   17.2760   40.1010 C.ar  240  TYR240      0.0417
     88  CE2       32.6760   16.7870   41.9870 C.ar  240  TYR240      0.0417
     89  CZ        33.9120   17.0770   41.4650 C.ar  240  TYR240      0.1957
     90  OH        35.0780   17.1930   42.2490 O.3   240  TYR240     -0.2866
@<TRIPOS>BOND
     1    79    80    1
     2    43    44    1
     3    80    81    1
     4    80    83    1
     5    81    82    2
     6    19    18    2
     7    44    45    1
     8    44    47    1
     9    18    17    1
    10    50    48    1
    11    38    37    2
    12    83    84    1
    13    48    47    1
    14    48    49    1
    15    45    46    2
    16    45    51   am
    17    37    36    1
    18     3     4    2
    19     3     2    1
    20    85    84   ar
    21    85    87   ar
    22    20    17    1
    23    20    21    1
    24     1     2    1
    25    17    16    1
    26    51    52    1
    27    84    86   ar
    28    56    55    1
    29     5     6    1
    30     5     2    1
    31     5     7    1
    32     8     9    1
    33    16    10   am
    34    87    89   ar
    35    71    69   ar
    36    36    35    1
    37    36    39    1
    38    28    29    1
    39    28    34    1
    40    52    55    1
    41    52    53    1
    42    35    30   am
    43    21    23   ar
    44    21    22   ar
    45    10    11    2
    46    10     9    1
    47    23    25   ar
    48    30    31    2
    49    30    29    1
    50    55    57    1
    51    29    32    1
    52     9    12    1
    53    86    88   ar
    54    69    68    1
    55    69    70   ar
    56    39    40    1
    57    39    41    1
    58    89    88   ar
    59    89    90    1
    60    68    67    1
    61    34    33    1
    62    22    24   ar
    63    53    58   am
    64    53    54    2
    65    40    42    1
    66    58    59    1
    67    25    26   ar
    68    12    13    1
    69    12    14    1
    70    32    33    1
    71    13    15    1
    72    24    26   ar
    73    63    64    1
    74    67    64    1
    75    62    59    1
    76    26    27    1
    77    64    65    1
    78    59    60    1
    79    60    61    2
    80    65    66    2
    81    72    73    1
    82    77    76    1
    83    73    76    1
    84    73    74    1
    85    76    78    1
    86    74    75    2
