@<TRIPOS>MOLECULE
tmp/6awlA00.pdb
 106 101 0 0 0
SMALL
GASTEIGER

@<TRIPOS>ATOM
      1  N        -12.9860  -17.4300  -38.5730 N.3   114  MET114     -0.1245
      2  CA       -13.6630  -17.5870  -37.2950 C.3   114  MET114      0.1570
      3  C        -14.3250  -16.3040  -36.8140 C.2   114  MET114      0.2261
      4  O        -14.9190  -16.3030  -35.7310 O.2   114  MET114     -0.2867
      5  CB       -12.6850  -18.1090  -36.2470 C.3   114  MET114      0.0387
      6  CG       -12.3460  -19.5640  -36.4850 C.3   114  MET114      0.0595
      7  SD       -11.1330  -20.2410  -35.3510 S.3   114  MET114     -0.1393
      8  CE       -10.8280  -21.8160  -36.1450 C.3   114  MET114      0.0692
      9  N        -18.7070  -16.7510  -39.8320 N.3   119  ILE119     -0.1245
     10  CA       -18.9650  -18.1100  -39.3490 C.3   119  ILE119      0.1561
     11  C        -20.0640  -18.7910  -40.1400 C.2   119  ILE119      0.2260
     12  O        -19.9240  -19.9860  -40.4510 O.2   119  ILE119     -0.2867
     13  CB       -19.2460  -18.0750  -37.8320 C.3   119  ILE119      0.0252
     14  CG1      -17.9320  -17.9760  -37.0480 C.3   119  ILE119      0.0019
     15  CG2      -20.0990  -19.2700  -37.3910 C.3   119  ILE119      0.0019
     16  CD1      -17.0930  -19.2480  -37.0670 C.3   119  ILE119      0.0001
     17  N        -18.7930  -22.1610  -41.6700 N.3   123  LEU123     -0.1245
     18  CA       -19.3760  -23.3930  -41.1510 C.3   123  LEU123      0.1561
     19  C        -20.1600  -24.1340  -42.2270 C.2   123  LEU123      0.2260
     20  O        -20.1870  -25.3700  -42.2310 O.2   123  LEU123     -0.2867
     21  CB       -20.2800  -23.0900  -39.9540 C.3   123  LEU123      0.0270
     22  CG       -20.8130  -24.2990  -39.1780 C.3   123  LEU123      0.0019
     23  CD1      -19.6810  -25.0700  -38.5090 C.3   123  LEU123      0.0001
     24  CD2      -21.8480  -23.8620  -38.1510 C.3   123  LEU123      0.0001
     25  N        -17.5720  -25.8860  -44.4020 N.3   126  LEU126     -0.1231
     26  CA       -17.0480  -27.0330  -43.6680 C.3   126  LEU126      0.1693
     27  C        -18.0590  -28.1730  -43.6440 C.2   126  LEU126      0.2592
     28  O        -17.7120  -29.3340  -43.8880 O.2   126  LEU126     -0.2718
     29  CB       -16.6810  -26.6280  -42.2400 C.3   126  LEU126      0.0284
     30  CG       -16.1260  -27.7640  -41.3730 C.3   126  LEU126      0.0019
     31  CD1      -14.8230  -28.2950  -41.9620 C.3   126  LEU126      0.0001
     32  CD2      -15.9430  -27.3360  -39.9290 C.3   126  LEU126      0.0001
     33  N        -19.3180  -27.8590  -43.3290 N.am  127  THR127     -0.1953
     34  CA       -20.3410  -28.8920  -43.2060 C.3   127  THR127      0.1897
     35  C        -20.5830  -29.6000  -44.5330 C.2   127  THR127      0.2313
     36  O        -20.7270  -30.8270  -44.5720 O.2   127  THR127     -0.2863
     37  CB       -21.6390  -28.2730  -42.6850 C.3   127  THR127      0.1794
     38  OG1      -21.3990  -27.6650  -41.4080 O.3   127  THR127     -0.2208
     39  CG2      -22.7340  -29.3260  -42.5520 C.3   127  THR127      0.0378
     40  N        -26.2340  -39.0240  -38.4430 N.3   146  TRP146     -0.1227
     41  CA       -25.7250  -37.8930  -39.2090 C.3   146  TRP146      0.1737
     42  C        -24.9620  -36.9160  -38.3260 C.2   146  TRP146      0.2595
     43  O        -23.9790  -36.3100  -38.7680 O.2   146  TRP146     -0.2718
     44  CB       -26.8830  -37.1800  -39.9000 C.3   146  TRP146      0.0564
     45  CG       -27.7900  -36.4920  -38.9400 C.ar  146  TRP146      0.0003
     46  CD1      -28.9110  -37.0040  -38.3580 C.ar  146  TRP146      0.0946
     47  CD2      -27.6490  -35.1580  -38.4390 C.ar  146  TRP146      0.0152
     48  NE1      -29.4820  -36.0680  -37.5280 N.ar  146  TRP146     -0.2442
     49  CE2      -28.7230  -34.9270  -37.5590 C.ar  146  TRP146      0.0810
     50  CE3      -26.7180  -34.1360  -38.6510 C.ar  146  TRP146      0.0012
     51  CZ2      -28.8950  -33.7160  -36.8940 C.ar  146  TRP146      0.0191
     52  CZ3      -26.8890  -32.9350  -37.9870 C.ar  146  TRP146      0.0001
     53  CH2      -27.9700  -32.7350  -37.1200 C.ar  146  TRP146      0.0015
     54  N        -25.4050  -36.7480  -37.0790 N.am  147  TYR147     -0.1976
     55  CA       -24.7650  -35.8050  -36.1680 C.3   147  TYR147      0.1639
     56  C        -23.3900  -36.2890  -35.7250 C.2   147  TYR147      0.2290
     57  O        -22.4120  -35.5330  -35.7670 O.2   147  TYR147     -0.2864
     58  CB       -25.6690  -35.5660  -34.9610 C.3   147  TYR147      0.0560
     59  CG       -25.0730  -34.6530  -33.9210 C.ar  147  TYR147     -0.0198
     60  CD1      -25.0770  -33.2770  -34.0810 C.ar  147  TYR147     -0.0009
     61  CD2      -24.5230  -35.1780  -32.7610 C.ar  147  TYR147     -0.0009
     62  CE1      -24.5310  -32.4460  -33.1170 C.ar  147  TYR147      0.0417
     63  CE2      -23.9780  -34.3610  -31.7950 C.ar  147  TYR147      0.0417
     64  CZ       -23.9860  -32.9960  -31.9760 C.ar  147  TYR147      0.1957
     65  OH       -23.4430  -32.1830  -31.0100 O.3   147  TYR147     -0.2866
     66  N        -20.9210  -35.9900  -38.6550 N.3   150  ARG150     -0.1231
     67  CA       -20.4720  -34.6250  -38.9080 C.3   150  ARG150      0.1694
     68  C        -19.5120  -34.1380  -37.8310 C.2   150  ARG150      0.2591
     69  O        -18.4260  -33.6290  -38.1320 O.2   150  ARG150     -0.2718
     70  CB       -21.6730  -33.6870  -38.9840 C.3   150  ARG150      0.0321
     71  CG       -22.3470  -33.6330  -40.3270 C.3   150  ARG150      0.0489
     72  CD       -23.4150  -32.5620  -40.3130 C.3   150  ARG150      0.2205
     73  NE       -24.0440  -32.4000  -41.6150 N.pl3 150  ARG150     -0.0865
     74  CZ       -25.1580  -31.7090  -41.8250 C.cat 150  ARG150      0.5346
     75  NH1      -25.7730  -31.1130  -40.8120 N.pl3 150  ARG150      0.1354
     76  NH2      -25.6570  -31.6140  -43.0480 N.pl3 150  ARG150      0.1354
     77  N        -19.9120  -34.2600  -36.5650 N.am  151  ALA151     -0.1980
     78  CA       -19.1020  -33.7310  -35.4730 C.3   151  ALA151      0.1597
     79  C        -17.7230  -34.3750  -35.4480 C.2   151  ALA151      0.2287
     80  O        -16.7030  -33.6860  -35.3200 O.2   151  ALA151     -0.2864
     81  CB       -19.8230  -33.9440  -34.1420 C.3   151  ALA151      0.0319
     82  N        -15.6410  -33.3560  -38.6490 N.3   154  ALA154     -0.1231
     83  CA       -15.2730  -31.9490  -38.5320 C.3   154  ALA154      0.1694
     84  C        -14.1430  -31.7740  -37.5270 C.2   154  ALA154      0.2591
     85  O        -13.2190  -30.9820  -37.7470 O.2   154  ALA154     -0.2718
     86  CB       -16.4880  -31.1130  -38.1300 C.3   154  ALA154      0.0304
     87  N        -14.2030  -32.5100  -36.4160 N.am  155  ALA155     -0.1980
     88  CA       -13.1440  -32.4530  -35.4140 C.3   155  ALA155      0.1597
     89  C        -11.8510  -33.0590  -35.9460 C.2   155  ALA155      0.2287
     90  O        -10.7700  -32.4850  -35.7690 O.2   155  ALA155     -0.2864
     91  CB       -13.5920  -33.1710  -34.1420 C.3   155  ALA155      0.0319
     92  N        -10.5300  -30.4380  -38.3710 N.3   158  ASN158     -0.1225
     93  CA       -10.1500  -29.1660  -37.7720 C.3   158  ASN158      0.1785
     94  C         -8.9250  -29.3070  -36.8760 C.2   158  ASN158      0.2597
     95  O         -8.0650  -28.4200  -36.8550 O.2   158  ASN158     -0.2718
     96  CB       -11.3360  -28.6040  -36.9910 C.3   158  ASN158      0.1169
     97  CG       -12.3610  -27.9470  -37.8930 C.2   158  ASN158      0.2627
     98  OD1      -12.1670  -27.8510  -39.1060 O.2   158  ASN158     -0.2716
     99  ND2      -13.4760  -27.5260  -37.3130 N.am  158  ASN158     -0.0877
    100  N         -8.8220  -30.4090  -36.1240 N.am  159  THR159     -0.1953
    101  CA        -7.6490  -30.5980  -35.2720 C.3   159  THR159      0.1897
    102  C         -6.4200  -30.9640  -36.0960 C.2   159  THR159      0.2313
    103  O         -5.3090  -30.5120  -35.7950 O.2   159  THR159     -0.2863
    104  CB        -7.9140  -31.6660  -34.2060 C.3   159  THR159      0.1794
    105  OG1       -8.3150  -32.8950  -34.8240 O.3   159  THR159     -0.2208
    106  CG2       -8.9860  -31.2030  -33.2330 C.3   159  THR159      0.0378
@<TRIPOS>BOND
     1    36    35    2
     2    35    34    1
     3    25    26    1
     4    28    27    2
     5    26    27    1
     6    26    29    1
     7    27    33   am
     8    33    34    1
     9    34    37    1
    10    76    74    1
    11    37    39    1
    12    37    38    1
    13    29    30    1
    14    20    19    2
    15    19    18    1
    16    31    30    1
    17    74    73    2
    18    74    75    1
    19    17    18    1
    20    73    72    1
    21    30    32    1
    22    18    21    1
    23    12    11    2
    24    71    72    1
    25    71    70    1
    26    11    10    1
    27    21    22    1
    28    44    41    1
    29    44    45    1
    30     9    10    1
    31    10    13    1
    32    41    40    1
    33    41    42    1
    34    22    23    1
    35    22    24    1
    36    98    97    2
    37    70    67    1
    38    45    47   ar
    39    45    46   ar
    40    67    66    1
    41    67    68    1
    42    43    42    2
    43    50    47   ar
    44    50    52   ar
    45    82    83    1
    46     1     2    1
    47    83    86    1
    48    83    84    1
    49    47    49   ar
    50    92    93    1
    51    46    48   ar
    52    42    54   am
    53    69    68    2
    54    52    53   ar
    55    97    99   am
    56    97    96    1
    57    13    15    1
    58    13    14    1
    59    68    77   am
    60    93    96    1
    61    93    94    1
    62    85    84    2
    63    49    48   ar
    64    49    51   ar
    65    84    87   am
    66     2     3    1
    67     2     5    1
    68    53    51   ar
    69    54    55    1
    70    16    14    1
    71    94    95    2
    72    94   100   am
    73     3     4    2
    74    77    78    1
    75     6     5    1
    76     6     7    1
    77    87    88    1
    78    55    56    1
    79    55    58    1
    80     8     7    1
    81   100   101    1
    82   102   103    2
    83   102   101    1
    84    89    90    2
    85    89    88    1
    86    57    56    2
    87    78    79    1
    88    78    81    1
    89    79    80    2
    90    88    91    1
    91   101   104    1
    92    58    59    1
    93   105   104    1
    94   104   106    1
    95    60    59   ar
    96    60    62   ar
    97    59    61   ar
    98    62    64   ar
    99    61    63   ar
   100    64    63   ar
   101    64    65    1
