@<TRIPOS>MOLECULE
tmp/6awoA00.pdb
 177 167 0 0 0
SMALL
GASTEIGER

@<TRIPOS>ATOM
      1  N         32.0420  192.0860  140.4810 N.3    22  TYR22      -0.1227
      2  CA        31.9670  190.6360  140.6500 C.3    22  TYR22       0.1736
      3  C         33.2450  189.9350  140.2020 C.2    22  TYR22       0.2595
      4  O         33.7020  188.9960  140.8640 O.2    22  TYR22      -0.2718
      5  CB        30.7660  190.0810  139.8880 C.3    22  TYR22       0.0548
      6  CG        30.9460  188.6690  139.3660 C.ar   22  TYR22      -0.0200
      7  CD1       30.7560  187.5710  140.1980 C.ar   22  TYR22      -0.0009
      8  CD2       31.2860  188.4330  138.0380 C.ar   22  TYR22      -0.0009
      9  CE1       30.9130  186.2790  139.7260 C.ar   22  TYR22       0.0417
     10  CE2       31.4440  187.1450  137.5590 C.ar   22  TYR22       0.0417
     11  CZ        31.2550  186.0730  138.4060 C.ar   22  TYR22       0.1957
     12  OH        31.4080  184.7910  137.9280 O.3    22  TYR22      -0.2866
     13  N         33.8310  190.3610  139.0820 N.am   23  ALA23      -0.1980
     14  CA        35.0370  189.6980  138.5920 C.3    23  ALA23       0.1597
     15  C         36.2190  189.8730  139.5430 C.2    23  ALA23       0.2287
     16  O         37.0450  188.9620  139.6780 O.2    23  ALA23      -0.2864
     17  CB        35.3950  190.2240  137.2030 C.3    23  ALA23       0.0319
     18  N         37.9840  190.1640  143.1450 N.3    25  ASP25      -0.1239
     19  CA        37.7250  189.6550  144.4910 C.3    25  ASP25       0.1674
     20  C         39.0560  189.5050  145.2250 C.2    25  ASP25       0.2266
     21  O         40.0650  190.0980  144.8320 O.2    25  ASP25      -0.2867
     22  CB        36.9350  188.3340  144.4340 C.3    25  ASP25       0.1410
     23  CG        37.7140  187.1950  143.7810 C.2    25  ASP25       0.3668
     24  OD1       38.9250  187.3370  143.5050 O.co2  25  ASP25      -0.2456
     25  OD2       37.1090  186.1250  143.5760 O.co2  25  ASP25      -0.2456
     26  N         24.4440  174.6720  139.3800 N.3    92  ILE92      -0.1245
     27  CA        25.0330  175.9510  139.7700 C.3    92  ILE92       0.1561
     28  C         24.4570  176.4320  141.0950 C.2    92  ILE92       0.2260
     29  O         25.1970  176.8460  141.9970 O.2    92  ILE92      -0.2867
     30  CB        24.8300  176.9940  138.6590 C.3    92  ILE92       0.0252
     31  CG1       25.5470  176.5560  137.3800 C.3    92  ILE92       0.0019
     32  CG2       25.2840  178.3510  139.1340 C.3    92  ILE92       0.0019
     33  CD1       25.4240  177.5440  136.2420 C.3    92  ILE92       0.0001
     34  N         26.0410  174.6090  143.7410 N.3    95  ILE95      -0.1231
     35  CA        27.4160  175.1080  143.7420 C.3    95  ILE95       0.1692
     36  C         27.5140  176.4070  144.5250 C.2    95  ILE95       0.2591
     37  O         28.3590  176.5530  145.4200 O.2    95  ILE95      -0.2718
     38  CB        27.9190  175.2890  142.2990 C.3    95  ILE95       0.0266
     39  CG1       28.2500  173.9340  141.6860 C.3    95  ILE95       0.0019
     40  CG2       29.1170  176.2170  142.2670 C.3    95  ILE95       0.0020
     41  CD1       29.3390  173.2320  142.4250 C.3    95  ILE95       0.0001
     42  N         26.6300  177.3610  144.2160 N.am   96  ALA96      -0.1980
     43  CA        26.6660  178.6450  144.9020 C.3    96  ALA96       0.1597
     44  C         26.6010  178.4570  146.4100 C.2    96  ALA96       0.2287
     45  O         27.3740  179.0750  147.1540 O.2    96  ALA96      -0.2864
     46  CB        25.5240  179.5330  144.4170 C.3    96  ALA96       0.0319
     47  N         29.9080  177.6770  147.7890 N.3    99  ILE99      -0.1231
     48  CA        30.7920  178.8230  147.7830 C.3    99  ILE99       0.1692
     49  C         30.3780  179.7330  148.9310 C.2    99  ILE99       0.2591
     50  O         31.1910  180.1020  149.7890 O.2    99  ILE99      -0.2718
     51  CB        30.7540  179.5420  146.4260 C.3    99  ILE99       0.0266
     52  CG1       31.3380  178.6350  145.3440 C.3    99  ILE99       0.0019
     53  CG2       31.5390  180.8330  146.5050 C.3    99  ILE99       0.0020
     54  CD1       31.3610  179.2410  143.9620 C.3    99  ILE99       0.0001
     55  N         29.0820  180.0750  148.9800 N.am  100  ALA100     -0.1980
     56  CA        28.5930  180.9530  150.0340 C.3   100  ALA100      0.1597
     57  C         28.8030  180.3860  151.4290 C.2   100  ALA100      0.2287
     58  O         28.7060  181.1410  152.4030 O.2   100  ALA100     -0.2864
     59  CB        27.1110  181.2490  149.8110 C.3   100  ALA100      0.0319
     60  N         31.6180  179.3840  152.6210 N.3   102  TYR102     -0.1227
     61  CA        32.9100  179.8060  153.1460 C.3   102  TYR102      0.1736
     62  C         33.3410  181.1880  152.6860 C.2   102  TYR102      0.2595
     63  O         33.9810  181.9050  153.4580 O.2   102  TYR102     -0.2718
     64  CB        34.0070  178.7910  152.7800 C.3   102  TYR102      0.0548
     65  CG        34.3570  178.7030  151.3080 C.ar  102  TYR102     -0.0200
     66  CD1       33.7320  177.7880  150.4730 C.ar  102  TYR102     -0.0009
     67  CD2       35.3450  179.5180  150.7640 C.ar  102  TYR102     -0.0009
     68  CE1       34.0690  177.7030  149.1290 C.ar  102  TYR102      0.0417
     69  CE2       35.6830  179.4430  149.4280 C.ar  102  TYR102      0.0417
     70  CZ        35.0450  178.5350  148.6160 C.ar  102  TYR102      0.1957
     71  OH        35.3890  178.4630  147.2870 O.3   102  TYR102     -0.2866
     72  N         33.0270  181.5740  151.4430 N.am  103  TYR103     -0.1962
     73  CA        33.5310  182.8370  150.9080 C.3   103  TYR103      0.1771
     74  C         33.1450  184.0160  151.7920 C.2   103  TYR103      0.2619
     75  O         33.8840  185.0050  151.8620 O.2   103  TYR103     -0.2715
     76  CB        33.0420  183.0630  149.4760 C.3   103  TYR103      0.0574
     77  CG        33.6750  184.2770  148.8220 C.ar  103  TYR103     -0.0198
     78  CD1       33.1390  185.5490  148.9790 C.ar  103  TYR103     -0.0009
     79  CD2       34.8240  184.1440  148.0550 C.ar  103  TYR103     -0.0009
     80  CE1       33.7320  186.6500  148.3880 C.ar  103  TYR103      0.0417
     81  CE2       35.4190  185.2370  147.4590 C.ar  103  TYR103      0.0417
     82  CZ        34.8720  186.4850  147.6270 C.ar  103  TYR103      0.1957
     83  OH        35.4720  187.5700  147.0330 O.3   103  TYR103     -0.2866
     84  N         32.0020  183.9360  152.4760 N.am  104  ASN104     -0.1972
     85  CA        31.6290  185.0320  153.3600 C.3   104  ASN104      0.1688
     86  C         32.3940  184.9480  154.6730 C.2   104  ASN104      0.2292
     87  O         32.7730  185.9840  155.2330 O.2   104  ASN104     -0.2864
     88  CB        30.1230  185.0320  153.6010 C.3   104  ASN104      0.1181
     89  CG        29.3440  185.3800  152.3540 C.2   104  ASN104      0.2629
     90  OD1       29.0950  186.5520  152.0720 O.2   104  ASN104     -0.2716
     91  ND2       28.9540  184.3620  151.5970 N.am  104  ASN104     -0.0877
     92  N         38.6840  181.1630  137.0180 N.3   262  PHE262     -0.1227
     93  CA        37.9440  181.6520  138.1280 C.3   262  PHE262      0.1736
     94  C         37.9400  183.1550  138.0120 C.2   262  PHE262      0.2596
     95  O         36.8890  183.7630  137.8650 O.2   262  PHE262     -0.2718
     96  CB        38.5320  181.1470  139.4250 C.3   262  PHE262      0.0547
     97  CG        38.3040  179.6850  139.6360 C.ar  262  PHE262     -0.0202
     98  CD1       38.1960  179.1600  140.9040 C.ar  262  PHE262     -0.0042
     99  CD2       38.1830  178.8410  138.5560 C.ar  262  PHE262     -0.0042
    100  CE1       37.9810  177.8140  141.0920 C.ar  262  PHE262     -0.0003
    101  CE2       37.9670  177.4980  138.7360 C.ar  262  PHE262     -0.0003
    102  CZ        37.8660  176.9830  140.0050 C.ar  262  PHE262     -0.0000
    103  N         39.1060  183.7720  138.0320 N.am  263  SER263     -0.1952
    104  CA        39.0860  185.2340  138.1070 C.3   263  SER263      0.1924
    105  C         38.0640  185.8470  137.1540 C.2   263  SER263      0.2314
    106  O         37.3550  186.7900  137.5240 O.2   263  SER263     -0.2863
    107  CB        40.4780  185.7890  137.8170 C.3   263  SER263      0.2116
    108  OG        40.5000  187.1990  137.9540 O.3   263  SER263     -0.2180
    109  N         35.4660  184.1760  135.8850 N.3   265  GLY265     -0.1225
    110  CA        34.2180  183.6510  136.3780 C.3   265  GLY265      0.1811
    111  C         33.0620  183.3870  135.4200 C.2   265  GLY265      0.2280
    112  O         31.9050  183.6310  135.7770 O.2   265  GLY265     -0.2866
    113  N         28.8770  180.6040  135.6670 N.3   268  PHE268     -0.1241
    114  CA        28.3870  180.6040  137.0390 C.3   268  PHE268      0.1605
    115  C         26.9720  181.1380  137.1290 C.2   268  PHE268      0.2264
    116  O         26.3270  180.9790  138.1680 O.2   268  PHE268     -0.2867
    117  CB        29.2270  181.5340  137.9350 C.3   268  PHE268      0.0534
    118  CG        30.5810  181.0170  138.3270 C.ar  268  PHE268     -0.0203
    119  CD1       30.8030  180.5220  139.6030 C.ar  268  PHE268     -0.0042
    120  CD2       31.6520  181.1180  137.4630 C.ar  268  PHE268     -0.0042
    121  CE1       32.0560  180.0840  139.9860 C.ar  268  PHE268     -0.0003
    122  CE2       32.9070  180.6800  137.8370 C.ar  268  PHE268     -0.0003
    123  CZ        33.1110  180.1720  139.1040 C.ar  268  PHE268     -0.0000
    124  N         26.2140  184.2870  136.9890 N.3   270  VAL270     -0.1245
    125  CA        26.2820  185.6790  137.4090 C.3   270  VAL270      0.1561
    126  C         26.2250  186.6040  136.2050 C.2   270  VAL270      0.2260
    127  O         25.4230  187.5420  136.1580 O.2   270  VAL270     -0.2867
    128  CB        27.5560  185.9180  138.2320 C.3   270  VAL270      0.0252
    129  CG1       27.8190  187.3950  138.3360 C.3   270  VAL270      0.0019
    130  CG2       27.4190  185.2970  139.6140 C.3   270  VAL270      0.0019
    131  N         31.2820  190.5940  144.8820 N.3   365  SER365     -0.1202
    132  CA        31.2680  189.2300  144.3800 C.3   365  SER365      0.2020
    133  C         30.2140  188.3350  145.0180 C.2   365  SER365      0.2619
    134  O         29.6270  187.4910  144.3310 O.2   365  SER365     -0.2717
    135  CB        32.6610  188.6340  144.5520 C.3   365  SER365      0.2103
    136  OG        33.5910  189.2830  143.7020 O.3   365  SER365     -0.2182
    137  N         29.9520  188.4780  146.3200 N.am  366  SER366     -0.1951
    138  CA        28.8510  187.6820  146.8630 C.3   366  SER366      0.1924
    139  C         27.4900  188.2800  146.4940 C.2   366  SER366      0.2314
    140  O         26.5020  187.5400  146.3490 O.2   366  SER366     -0.2863
    141  CB        28.9470  187.5980  148.3880 C.3   366  SER366      0.2116
    142  OG        27.8600  186.8680  148.9290 O.3   366  SER366     -0.2180
    143  N         27.1150  186.6370  143.2610 N.3   369  GLY369     -0.1210
    144  CA        27.0080  185.2290  143.5850 C.3   369  GLY369      0.1956
    145  C         25.5940  184.8260  143.9290 C.2   369  GLY369      0.2611
    146  O         25.0810  183.8140  143.4420 O.2   369  GLY369     -0.2717
    147  N         24.9440  185.6420  144.7640 N.am  370  LEU370     -0.1979
    148  CA        23.5450  185.3910  145.0880 C.3   370  LEU370      0.1596
    149  C         22.6200  185.8540  143.9720 C.2   370  LEU370      0.2287
    150  O         21.5900  185.2170  143.7200 O.2   370  LEU370     -0.2864
    151  CB        23.1760  186.0740  146.4060 C.3   370  LEU370      0.0297
    152  CG        23.8130  185.4800  147.6640 C.3   370  LEU370      0.0022
    153  CD1       23.4250  186.2850  148.8930 C.3   370  LEU370      0.0001
    154  CD2       23.4070  184.0230  147.8240 C.3   370  LEU370      0.0001
    155  N         21.6730  183.1770  141.3320 N.3   373  VAL373     -0.1245
    156  CA        20.7750  182.1390  141.8310 C.3   373  VAL373      0.1561
    157  C         19.3670  182.6910  142.0140 C.2   373  VAL373      0.2260
    158  O         18.3810  182.0610  141.6130 O.2   373  VAL373     -0.2867
    159  CB        21.3200  181.5420  143.1400 C.3   373  VAL373      0.0252
    160  CG1       20.3720  180.4770  143.6720 C.3   373  VAL373      0.0019
    161  CG2       22.6950  180.9650  142.9070 C.3   373  VAL373      0.0019
    162  N         37.1070  175.0620  149.2720 N.3   420  GLU420     -0.1245
    163  CA        37.6150  175.9140  148.2050 C.3   420  GLU420      0.1567
    164  C         38.3730  175.1560  147.1190 C.2   420  GLU420      0.2260
    165  O         38.3800  175.5930  145.9630 O.2   420  GLU420     -0.2867
    166  CB        38.5160  176.9850  148.8250 C.3   420  GLU420      0.0388
    167  CG        38.9570  178.0950  147.8970 C.3   420  GLU420      0.1160
    168  CD        39.8300  179.1120  148.6090 C.2   420  GLU420      0.3649
    169  OE1       40.1480  180.1570  148.0010 O.co2 420  GLU420     -0.2457
    170  OE2       40.1940  178.8670  149.7820 O.co2 420  GLU420     -0.2457
    171  N         34.0560  173.0990  145.0330 N.3   424  THR424     -0.1218
    172  CA        33.5200  174.0330  144.0470 C.3   424  THR424      0.1862
    173  C         34.2720  173.9990  142.7170 C.2   424  THR424      0.2287
    174  O         33.6490  173.9160  141.6530 O.2   424  THR424     -0.2866
    175  CB        33.5470  175.4450  144.6250 C.3   424  THR424      0.1770
    176  OG1       34.8970  175.7940  144.9590 O.3   424  THR424     -0.2211
    177  CG2       32.7080  175.4970  145.8840 C.3   424  THR424      0.0375
@<TRIPOS>BOND
     1   111   112    2
     2   111   110    1
     3   113   114    1
     4   109   110    1
     5   127   126    2
     6   126   125    1
     7    33    31    1
     8   124   125    1
     9    92    93    1
    10   114   115    1
    11   114   117    1
    12   115   116    2
    13   105   106    2
    14   105   104    1
    15    17    14    1
    16    31    30    1
    17   125   128    1
    18   120   122   ar
    19   120   118   ar
    20    10     8   ar
    21    10    11   ar
    22   107   108    1
    23   107   104    1
    24   122   123   ar
    25    95    94    2
    26    12    11    1
    27   117   118    1
    28    94   103   am
    29    94    93    1
    30   103   104    1
    31     8     6   ar
    32    93    96    1
    33   128   129    1
    34   128   130    1
    35   118   119   ar
    36    11     9   ar
    37    99   101   ar
    38    99    97   ar
    39    14    13    1
    40    14    15    1
    41    30    32    1
    42    30    27    1
    43   101   102   ar
    44    13     3   am
    45   123   121   ar
    46     6     5    1
    47     6     7   ar
    48    26    27    1
    49    96    97    1
    50    15    16    2
    51   119   121   ar
    52    97    98   ar
    53     9     7   ar
    54    27    28    1
    55     5     2    1
    56   102   100   ar
    57     3     2    1
    58     3     4    2
    59     1     2    1
    60    98   100   ar
    61    28    29    2
    62   155   156    1
    63   158   157    2
    64   174   173    2
    65    39    38    1
    66    39    41    1
    67   156   157    1
    68   156   159    1
    69    40    38    1
    70    38    35    1
    71   173   172    1
    72   161   159    1
    73   159   160    1
    74    18    19    1
    75   143   144    1
    76   146   145    2
    77    24    23   ar
    78    25    23   ar
    79   144   145    1
    80   136   135    1
    81   150   149    2
    82    34    35    1
    83    35    36    1
    84    23    22    1
    85   145   147   am
    86    54    52    1
    87   149   148    1
    88   172   175    1
    89   172   171    1
    90    42    36   am
    91    42    43    1
    92   134   133    2
    93   132   135    1
    94   132   131    1
    95   132   133    1
    96    46    43    1
    97    22    19    1
    98    19    20    1
    99    36    37    2
   100   175   176    1
   101   175   177    1
   102   147   148    1
   103    21    20    2
   104    43    44    1
   105   133   137   am
   106   148   151    1
   107    52    51    1
   108   165   164    2
   109   137   138    1
   110   140   139    2
   111   151   152    1
   112    44    45    2
   113    51    53    1
   114    51    48    1
   115   139   138    1
   116   138   141    1
   117    83    82    1
   118   164   163    1
   119    71    70    1
   120    81    82   ar
   121    81    79   ar
   122    82    80   ar
   123   152   154    1
   124   152   153    1
   125    48    47    1
   126    48    49    1
   127   167   168    1
   128   167   166    1
   129   169   168   ar
   130    79    77   ar
   131   163   166    1
   132   163   162    1
   133   141   142    1
   134    80    78   ar
   135   168   170   ar
   136    70    68   ar
   137    70    69   ar
   138    77    78   ar
   139    77    76    1
   140    49    55   am
   141    49    50    2
   142    55    56    1
   143    68    66   ar
   144    69    67   ar
   145    76    73    1
   146    59    56    1
   147    56    57    1
   148    66    65   ar
   149    67    65   ar
   150    73    72    1
   151    73    74    1
   152    65    64    1
   153    57    58    2
   154    72    62   am
   155    91    89   am
   156    74    75    2
   157    74    84   am
   158    90    89    2
   159    89    88    1
   160    84    85    1
   161    60    61    1
   162    62    61    1
   163    62    63    2
   164    64    61    1
   165    85    88    1
   166    85    86    1
   167    86    87    2
