@<TRIPOS>MOLECULE
tmp/6awpA00.pdb
 181 172 0 0 0
SMALL
GASTEIGER

@<TRIPOS>ATOM
      1  N         32.4580  194.0960  140.3460 N.3    22  TYR22      -0.1227
      2  CA        32.4360  192.6450  140.5090 C.3    22  TYR22       0.1736
      3  C         33.7490  192.0150  140.0650 C.2    22  TYR22       0.2595
      4  O         34.2610  191.1150  140.7370 O.2    22  TYR22      -0.2718
      5  CB        31.2600  192.0520  139.7240 C.3    22  TYR22       0.0548
      6  CG        31.4690  190.6480  139.1790 C.ar   22  TYR22      -0.0200
      7  CD1       31.1160  189.5330  139.9260 C.ar   22  TYR22      -0.0009
      8  CD2       31.9900  190.4400  137.9020 C.ar   22  TYR22      -0.0009
      9  CE1       31.2910  188.2540  139.4300 C.ar   22  TYR22       0.0417
     10  CE2       32.1700  189.1620  137.3990 C.ar   22  TYR22       0.0417
     11  CZ        31.8170  188.0750  138.1670 C.ar   22  TYR22       0.1957
     12  OH        31.9860  186.8010  137.6740 O.3    22  TYR22      -0.2866
     13  N         34.3140  192.4720  138.9450 N.am   23  ALA23      -0.1980
     14  CA        35.5590  191.8790  138.4650 C.3    23  ALA23       0.1597
     15  C         36.7200  192.1480  139.4180 C.2    23  ALA23       0.2287
     16  O         37.6000  191.2980  139.5890 O.2    23  ALA23      -0.2864
     17  CB        35.8850  192.4020  137.0650 C.3    23  ALA23       0.0319
     18  N         38.4180  192.5760  143.0030 N.3    25  ASP25      -0.1239
     19  CA        38.1750  192.0960  144.3580 C.3    25  ASP25       0.1674
     20  C         39.5200  191.9660  145.0720 C.2    25  ASP25       0.2266
     21  O         40.5150  192.5860  144.6770 O.2    25  ASP25      -0.2867
     22  CB        37.3660  190.7840  144.3530 C.3    25  ASP25       0.1410
     23  CG        38.1100  189.6210  143.7190 C.2    25  ASP25       0.3668
     24  OD1       39.3160  189.7360  143.4140 O.co2  25  ASP25      -0.2456
     25  OD2       37.4810  188.5570  143.5650 O.co2  25  ASP25      -0.2456
     26  N         42.5100  190.3470  142.8990 N.3    28  ASN28      -0.1240
     27  CA        43.2370  191.3180  142.0910 C.3    28  ASN28       0.1653
     28  C         44.3360  191.9950  142.9090 C.2    28  ASN28       0.2266
     29  O         45.4240  192.2750  142.3950 O.2    28  ASN28      -0.2867
     30  CB        42.2550  192.3670  141.5630 C.3    28  ASN28       0.1155
     31  CG        41.5870  191.9570  140.2620 C.2    28  ASN28       0.2627
     32  OD1       40.5300  191.3270  140.2670 O.2    28  ASN28      -0.2716
     33  ND2       42.1720  192.3560  139.1440 N.am   28  ASN28      -0.0877
     34  N         26.9070  179.3180  144.1710 N.3    96  ALA96      -0.1245
     35  CA        26.9170  180.6010  144.8640 C.3    96  ALA96       0.1562
     36  C         26.8030  180.3970  146.3660 C.2    96  ALA96       0.2260
     37  O         27.5620  180.9930  147.1400 O.2    96  ALA96      -0.2867
     38  CB        25.7850  181.4930  144.3490 C.3    96  ALA96       0.0290
     39  N         30.0680  179.6070  147.8440 N.3    99  ILE99      -0.1231
     40  CA        30.9500  180.7560  147.8600 C.3    99  ILE99       0.1692
     41  C         30.5140  181.6670  148.9990 C.2    99  ILE99       0.2591
     42  O         31.3090  182.0310  149.8780 O.2    99  ILE99      -0.2718
     43  CB        30.9220  181.4830  146.5050 C.3    99  ILE99       0.0266
     44  CG1       31.5140  180.5970  145.4090 C.3    99  ILE99       0.0019
     45  CG2       31.7060  182.7810  146.5900 C.3    99  ILE99       0.0020
     46  CD1       31.5290  181.2470  144.0400 C.3    99  ILE99       0.0001
     47  N         29.2170  182.0080  149.0240 N.am  100  ALA100     -0.1980
     48  CA        28.7030  182.8940  150.0590 C.3   100  ALA100      0.1597
     49  C         28.8870  182.3510  151.4680 C.2   100  ALA100      0.2287
     50  O         28.7410  183.1180  152.4280 O.2   100  ALA100     -0.2864
     51  CB        27.2270  183.1840  149.7970 C.3   100  ALA100      0.0319
     52  N         31.6820  181.4310  152.7590 N.3   102  TYR102     -0.1227
     53  CA        32.9560  181.8910  153.2980 C.3   102  TYR102      0.1736
     54  C         33.3880  183.2630  152.8070 C.2   102  TYR102      0.2595
     55  O         34.0060  184.0070  153.5720 O.2   102  TYR102     -0.2718
     56  CB        34.0630  180.8540  153.0240 C.3   102  TYR102      0.0548
     57  CG        34.4640  180.6480  151.5770 C.ar  102  TYR102     -0.0200
     58  CD1       34.0440  179.5220  150.8810 C.ar  102  TYR102     -0.0009
     59  CD2       35.2930  181.5580  150.9180 C.ar  102  TYR102     -0.0009
     60  CE1       34.4190  179.3160  149.5650 C.ar  102  TYR102      0.0417
     61  CE2       35.6670  181.3640  149.5990 C.ar  102  TYR102      0.0417
     62  CZ        35.2300  180.2400  148.9300 C.ar  102  TYR102      0.1957
     63  OH        35.6030  180.0400  147.6200 O.3   102  TYR102     -0.2866
     64  N         33.1040  183.6150  151.5470 N.am  103  TYR103     -0.1962
     65  CA        33.6140  184.8700  150.9990 C.3   103  TYR103      0.1771
     66  C         33.1860  186.0610  151.8480 C.2   103  TYR103      0.2619
     67  O         33.9350  187.0370  151.9670 O.2   103  TYR103     -0.2715
     68  CB        33.1680  185.0570  149.5460 C.3   103  TYR103      0.0574
     69  CG        33.8160  186.2530  148.8750 C.ar  103  TYR103     -0.0198
     70  CD1       33.3250  187.5460  149.0400 C.ar  103  TYR103     -0.0009
     71  CD2       34.9410  186.0800  148.0820 C.ar  103  TYR103     -0.0009
     72  CE1       33.9430  188.6260  148.4250 C.ar  103  TYR103      0.0417
     73  CE2       35.5590  187.1470  147.4650 C.ar  103  TYR103      0.0417
     74  CZ        35.0590  188.4180  147.6360 C.ar  103  TYR103      0.1957
     75  OH        35.6870  189.4780  147.0170 O.3   103  TYR103     -0.2866
     76  N         32.0200  185.9790  152.4940 N.am  104  ASN104     -0.1972
     77  CA        31.5850  187.0820  153.3440 C.3   104  ASN104      0.1688
     78  C         32.3090  187.0450  154.6850 C.2   104  ASN104      0.2292
     79  O         32.6510  188.1020  155.2290 O.2   104  ASN104     -0.2864
     80  CB        30.0690  187.0340  153.5380 C.3   104  ASN104      0.1181
     81  CG        29.3070  187.3340  152.2600 C.2   104  ASN104      0.2629
     82  OD1       29.0230  188.4930  151.9550 O.2   104  ASN104     -0.2716
     83  ND2       28.9880  186.2950  151.4980 N.am  104  ASN104     -0.0877
     84  N         39.0580  183.2500  136.6980 N.3   262  PHE262     -0.1227
     85  CA        38.3780  183.6920  137.9080 C.3   262  PHE262      0.1736
     86  C         38.3850  185.2110  138.0440 C.2   262  PHE262      0.2596
     87  O         37.4030  185.7910  138.5170 O.2   262  PHE262     -0.2718
     88  CB        38.9840  183.0060  139.1270 C.3   262  PHE262      0.0547
     89  CG        38.6590  181.5380  139.2030 C.ar  262  PHE262     -0.0202
     90  CD1       37.6270  181.0850  140.0120 C.ar  262  PHE262     -0.0042
     91  CD2       39.3600  180.6150  138.4450 C.ar  262  PHE262     -0.0042
     92  CE1       37.3110  179.7340  140.0850 C.ar  262  PHE262     -0.0003
     93  CE2       39.0510  179.2610  138.5090 C.ar  262  PHE262     -0.0003
     94  CZ        38.0240  178.8210  139.3320 C.ar  262  PHE262     -0.0000
     95  N         39.4710  185.8780  137.6340 N.am  263  SER263     -0.1938
     96  CA        39.4740  187.3400  137.6750 C.3   263  SER263      0.2055
     97  C         38.4480  187.9370  136.7180 C.2   263  SER263      0.2643
     98  O         37.7900  188.9310  137.0480 O.2   263  SER263     -0.2714
     99  CB        40.8710  187.8650  137.3520 C.3   263  SER263      0.2130
    100  OG        40.9250  189.2780  137.4540 O.3   263  SER263     -0.2179
    101  N         38.3380  187.3900  135.5060 N.am  264  LEU264     -0.1963
    102  CA        37.3240  187.8840  134.5740 C.3   264  LEU264      0.1728
    103  C         35.9280  187.4610  135.0100 C.2   264  LEU264      0.2616
    104  O         34.9640  188.2230  134.8730 O.2   264  LEU264     -0.2715
    105  CB        37.6350  187.4710  133.1400 C.3   264  LEU264      0.0311
    106  CG        38.8720  188.2580  132.6920 C.3   264  LEU264      0.0022
    107  CD1       39.1750  188.0600  131.2260 C.3   264  LEU264      0.0001
    108  CD2       38.7030  189.7440  133.0130 C.3   264  LEU264      0.0001
    109  N         35.8140  186.2550  135.5580 N.am  265  GLY265     -0.1955
    110  CA        34.5750  185.7440  136.0920 C.3   265  GLY265      0.1869
    111  C         33.3930  185.4650  135.1650 C.2   265  GLY265      0.2309
    112  O         32.2440  185.7280  135.5350 O.2   265  GLY265     -0.2863
    113  N         29.2260  182.6190  135.4880 N.3   268  PHE268     -0.1241
    114  CA        28.7540  182.6290  136.8650 C.3   268  PHE268      0.1605
    115  C         27.3330  183.1390  136.9620 C.2   268  PHE268      0.2264
    116  O         26.7040  182.9930  138.0130 O.2   268  PHE268     -0.2867
    117  CB        29.5730  183.5980  137.7350 C.3   268  PHE268      0.0534
    118  CG        30.9490  183.1470  138.0890 C.ar  268  PHE268     -0.0203
    119  CD1       31.2340  182.7130  139.3740 C.ar  268  PHE268     -0.0042
    120  CD2       31.9750  183.2430  137.1770 C.ar  268  PHE268     -0.0042
    121  CE1       32.5150  182.3330  139.7250 C.ar  268  PHE268     -0.0003
    122  CE2       33.2580  182.8650  137.5140 C.ar  268  PHE268     -0.0003
    123  CZ        33.5320  182.4190  138.7940 C.ar  268  PHE268     -0.0000
    124  N         26.5680  186.2540  136.7800 N.3   270  VAL270     -0.1245
    125  CA        26.6470  187.6490  137.1820 C.3   270  VAL270      0.1561
    126  C         26.5930  188.5540  135.9650 C.2   270  VAL270      0.2260
    127  O         25.8060  189.5030  135.9080 O.2   270  VAL270     -0.2867
    128  CB        27.9310  187.8900  137.9910 C.3   270  VAL270      0.0252
    129  CG1       28.2080  189.3700  138.0780 C.3   270  VAL270      0.0019
    130  CG2       27.8080  187.2720  139.3770 C.3   270  VAL270      0.0019
    131  N         31.5130  192.5840  144.5850 N.3   365  SER365     -0.1202
    132  CA        31.4460  191.1960  144.1520 C.3   365  SER365      0.2020
    133  C         30.3590  190.4230  144.8890 C.2   365  SER365      0.2619
    134  O         29.7330  189.5390  144.2940 O.2   365  SER365     -0.2717
    135  CB        32.8010  190.5250  144.3790 C.3   365  SER365      0.2103
    136  OG        33.7930  191.0630  143.5240 O.3   365  SER365     -0.2182
    137  N         30.1240  190.6950  146.1740 N.am  366  SER366     -0.1951
    138  CA        28.9930  190.0020  146.7910 C.3   366  SER366      0.1924
    139  C         27.6500  190.5570  146.3110 C.2   366  SER366      0.2314
    140  O         26.6790  189.7980  146.1690 O.2   366  SER366     -0.2863
    141  CB        29.0950  190.0740  148.3160 C.3   366  SER366      0.2116
    142  OG        27.9830  189.4460  148.9310 O.3   366  SER366     -0.2180
    143  N         27.2740  188.8250  142.9480 N.3   369  GLY369     -0.1210
    144  CA        27.1310  187.4340  143.3160 C.3   369  GLY369      0.1956
    145  C         25.7020  187.0860  143.6620 C.2   369  GLY369      0.2611
    146  O         25.1660  186.0660  143.2210 O.2   369  GLY369     -0.2717
    147  N         25.0740  187.9560  144.4570 N.am  370  LEU370     -0.1979
    148  CA        23.6710  187.7670  144.7980 C.3   370  LEU370      0.1596
    149  C         22.7490  188.1990  143.6650 C.2   370  LEU370      0.2287
    150  O         21.6860  187.5970  143.4580 O.2   370  LEU370     -0.2864
    151  CB        23.3440  188.5730  146.0540 C.3   370  LEU370      0.0297
    152  CG        23.9600  188.1190  147.3760 C.3   370  LEU370      0.0022
    153  CD1       23.5740  189.0830  148.4900 C.3   370  LEU370      0.0001
    154  CD2       23.5380  186.7020  147.7060 C.3   370  LEU370      0.0001
    155  N         37.2590  176.8400  149.1340 N.3   420  GLU420     -0.1245
    156  CA        37.7460  177.7090  148.0720 C.3   420  GLU420      0.1567
    157  C         38.5430  176.9430  147.0260 C.2   420  GLU420      0.2260
    158  O         38.5630  177.3380  145.8540 O.2   420  GLU420     -0.2867
    159  CB        38.6260  178.8010  148.6770 C.3   420  GLU420      0.0388
    160  CG        39.0340  179.9140  147.7260 C.3   420  GLU420      0.1160
    161  CD        39.8970  180.9580  148.4030 C.2   420  GLU420      0.3649
    162  OE1       40.1800  181.9990  147.7720 O.co2 420  GLU420     -0.2457
    163  OE2       40.2960  180.7220  149.5650 O.co2 420  GLU420     -0.2457
    164  N         34.2800  174.8820  145.1410 N.3   424  THR424     -0.1203
    165  CA        33.7680  175.8580  144.1800 C.3   424  THR424      0.1994
    166  C         34.5840  175.9120  142.8900 C.2   424  THR424      0.2618
    167  O         34.0130  175.9160  141.7940 O.2   424  THR424     -0.2717
    168  CB        33.7060  177.2440  144.8220 C.3   424  THR424      0.1784
    169  OG1       35.0180  177.6280  145.2610 O.3   424  THR424     -0.2211
    170  CG2       32.7370  177.2450  145.9960 C.3   424  THR424      0.0376
    171  N         35.9110  175.9930  142.9920 N.am  425  GLY425     -0.1956
    172  CA        36.7580  176.1450  141.8260 C.3   425  GLY425      0.1869
    173  C         36.4860  175.1960  140.6690 C.2   425  GLY425      0.2309
    174  O         36.0680  175.6250  139.5800 O.2   425  GLY425     -0.2863
    175  N         32.9120  175.7030  139.1640 N.3   428  VAL428     -0.1245
    176  CA        32.7160  176.8900  138.3350 C.3   428  VAL428      0.1561
    177  C         33.4060  176.7100  136.9960 C.2   428  VAL428      0.2260
    178  O         32.8670  177.0800  135.9470 O.2   428  VAL428     -0.2867
    179  CB        33.2070  178.1610  139.0450 C.3   428  VAL428      0.0252
    180  CG1       33.1380  179.3090  138.0750 C.3   428  VAL428      0.0019
    181  CG2       32.3490  178.4550  140.2450 C.3   428  VAL428      0.0019
@<TRIPOS>BOND
     1   107   106    1
     2   106   108    1
     3   106   105    1
     4   105   102    1
     5   102   103    1
     6   102   101    1
     7   104   103    2
     8   103   109   am
     9   111   112    2
    10   111   110    1
    11   113   114    1
    12   101    97   am
    13   109   110    1
    14   127   126    2
    15   178   177    2
    16   126   125    1
    17    84    85    1
    18    97    98    2
    19    97    96    1
    20   124   125    1
    21   114   115    1
    22   114   117    1
    23   115   116    2
    24   177   176    1
    25    17    14    1
    26   120   122   ar
    27   120   118   ar
    28   125   128    1
    29    99   100    1
    30    99    96    1
    31    10     8   ar
    32    10    11   ar
    33   122   123   ar
    34    95    96    1
    35    95    86   am
    36    12    11    1
    37   117   118    1
    38     8     6   ar
    39    85    86    1
    40    85    88    1
    41   128   129    1
    42   128   130    1
    43    86    87    2
    44   180   179    1
    45   118   119   ar
    46    11     9   ar
    47   176   179    1
    48   176   175    1
    49    91    93   ar
    50    91    89   ar
    51    14    13    1
    52    14    15    1
    53    93    94   ar
    54   123   121   ar
    55    13     3   am
    56   179   181    1
    57    88    89    1
    58    33    31   am
    59     6     5    1
    60     6     7   ar
    61    89    90   ar
    62    94    92   ar
    63   119   121   ar
    64    15    16    2
    65     9     7   ar
    66   174   173    2
    67     5     2    1
    68    90    92   ar
    69     3     2    1
    70     3     4    2
    71    31    32    2
    72    31    30    1
    73     1     2    1
    74   173   172    1
    75    30    27    1
    76   167   166    2
    77   172   171    1
    78    27    26    1
    79    27    28    1
    80    29    28    2
    81   166   171   am
    82   166   165    1
    83   143   144    1
    84    18    19    1
    85   146   145    2
    86   144   145    1
    87    24    23   ar
    88   150   149    2
    89   136   135    1
    90    25    23   ar
    91   145   147   am
    92   149   148    1
    93    23    22    1
    94    46    44    1
    95   132   135    1
    96   132   131    1
    97   132   133    1
    98    34    35    1
    99   165   168    1
   100   165   164    1
   101   134   133    2
   102    38    35    1
   103    22    19    1
   104    19    20    1
   105   147   148    1
   106    21    20    2
   107   148   151    1
   108   168   169    1
   109   168   170    1
   110    35    36    1
   111   133   137   am
   112    44    43    1
   113   158   157    2
   114   151   152    1
   115   140   139    2
   116   137   138    1
   117   139   138    1
   118    36    37    2
   119    43    45    1
   120    43    40    1
   121   138   141    1
   122    75    74    1
   123   157   156    1
   124   152   154    1
   125   152   153    1
   126    73    74   ar
   127    73    71   ar
   128    63    62    1
   129    74    72   ar
   130   160   161    1
   131   160   159    1
   132   162   161   ar
   133    39    40    1
   134    40    41    1
   135   156   159    1
   136   156   155    1
   137    71    69   ar
   138   141   142    1
   139   161   163   ar
   140    72    70   ar
   141    69    70   ar
   142    69    68    1
   143    62    60   ar
   144    62    61   ar
   145    41    47   am
   146    41    42    2
   147    47    48    1
   148    68    65    1
   149    60    58   ar
   150    61    59   ar
   151    51    48    1
   152    48    49    1
   153    58    57   ar
   154    59    57   ar
   155    65    64    1
   156    65    66    1
   157    49    50    2
   158    83    81   am
   159    64    54   am
   160    57    56    1
   161    66    67    2
   162    66    76   am
   163    82    81    2
   164    81    80    1
   165    76    77    1
   166    52    53    1
   167    54    53    1
   168    54    55    2
   169    56    53    1
   170    77    80    1
   171    77    78    1
   172    78    79    2
