@<TRIPOS>MOLECULE
tmp/6awrB00.pdb
 96 86 0 0 0
SMALL
GASTEIGER

@<TRIPOS>ATOM
      1  N         16.8630   -5.9980   11.3410 N.3    29  THR29      -0.1218
      2  CA        16.0330   -6.9550   12.0770 C.3    29  THR29       0.1862
      3  C         16.0950   -6.6990   13.6100 C.2    29  THR29       0.2287
      4  O         15.0520   -6.6350   14.2440 O.2    29  THR29      -0.2866
      5  CB        16.3470   -8.4280   11.7230 C.3    29  THR29       0.1770
      6  OG1       16.0980   -8.6620   10.3050 O.3    29  THR29      -0.2211
      7  CG2       15.5000   -9.3660   12.5230 C.3    29  THR29       0.0375
      8  N         12.4800   -5.7140   15.3400 N.3    33  ILE33      -0.1245
      9  CA        11.8410   -6.7770   16.1250 C.3    33  ILE33       0.1561
     10  C         12.3740   -6.6870   17.5500 C.2    33  ILE33       0.2260
     11  O         13.5550   -6.8180   17.7590 O.2    33  ILE33      -0.2867
     12  CB        12.1080   -8.1660   15.5590 C.3    33  ILE33       0.0252
     13  CG1       11.7000   -8.1960   14.0880 C.3    33  ILE33       0.0019
     14  CG2       11.3330   -9.2010   16.3900 C.3    33  ILE33       0.0019
     15  CD1       11.7430   -9.5500   13.4510 C.3    33  ILE33       0.0001
     16  N         14.5070   -9.6490   18.9770 N.3    36  VAL36      -0.1245
     17  CA        15.7170   -9.9640   18.3060 C.3    36  VAL36       0.1561
     18  C         16.7640   -8.9700   18.7430 C.2    36  VAL36       0.2260
     19  O         16.5860   -7.7930   18.5820 O.2    36  VAL36      -0.2867
     20  CB        15.5690   -9.9580   16.7720 C.3    36  VAL36       0.0252
     21  CG1       16.9120  -10.1830   16.1210 C.3    36  VAL36       0.0019
     22  CG2       14.5950  -11.0240   16.3320 C.3    36  VAL36       0.0019
     23  N         20.2920  -15.3980   14.5330 N.3    54  LEU54      -0.1245
     24  CA        19.5380  -14.2770   15.1150 C.3    54  LEU54       0.1561
     25  C         19.4130  -14.6520   16.5850 C.2    54  LEU54       0.2260
     26  O         18.8680  -15.7070   16.9020 O.2    54  LEU54      -0.2867
     27  CB        18.1500  -14.1800   14.5000 C.3    54  LEU54       0.0270
     28  CG        18.0110  -13.4560   13.1810 C.3    54  LEU54       0.0019
     29  CD1       18.8040  -14.1070   12.0910 C.3    54  LEU54       0.0001
     30  CD2       16.5510  -13.3710   12.8130 C.3    54  LEU54       0.0001
     31  N         17.8130  -14.0780   20.1030 N.3    56  ILE56      -0.1245
     32  CA        16.5970  -13.5930   20.6760 C.3    56  ILE56       0.1561
     33  C         16.6920  -13.6690   22.1880 C.2    56  ILE56       0.2260
     34  O         17.2820  -14.6250   22.7170 O.2    56  ILE56      -0.2867
     35  CB        15.4410  -14.4760   20.1700 C.3    56  ILE56       0.0252
     36  CG1       15.1010  -14.1400   18.7480 C.3    56  ILE56       0.0019
     37  CG2       14.2180  -14.4480   21.0960 C.3    56  ILE56       0.0019
     38  CD1       14.4310  -15.3010   18.0320 C.3    56  ILE56       0.0001
     39  N         17.4220  -18.1510   16.0330 N.3    65  ILE65      -0.1245
     40  CA        16.9730  -18.6310   14.7190 C.3    65  ILE65       0.1561
     41  C         18.2120  -18.7220   13.8580 C.2    65  ILE65       0.2260
     42  O         19.0850  -17.8810   13.9710 O.2    65  ILE65      -0.2867
     43  CB        15.9860  -17.6260   14.0770 C.3    65  ILE65       0.0252
     44  CG1       14.7490  -17.4810   14.9540 C.3    65  ILE65       0.0019
     45  CG2       15.5600  -18.0940   12.7020 C.3    65  ILE65       0.0019
     46  CD1       13.8740  -16.3020   14.5910 C.3    65  ILE65       0.0001
     47  N         19.5050  -18.7030    9.9330 N.3    67  HIS67      -0.1241
     48  CA        19.1880  -18.3880    8.5470 C.3    67  HIS67       0.1621
     49  C         20.2890  -18.8160    7.6470 C.2    67  HIS67       0.2264
     50  O         21.4580  -18.7740    8.0280 O.2    67  HIS67      -0.2867
     51  CB        18.9710  -16.9080    8.3000 C.3    67  HIS67       0.0745
     52  CG        17.7100  -16.3510    8.8650 C.ar   67  HIS67       0.0817
     53  ND1       17.4110  -14.9910    8.8140 N.ar   67  HIS67      -0.2268
     54  CD2       16.6810  -16.9440    9.4910 C.ar   67  HIS67       0.1154
     55  CE1       16.2500  -14.8020    9.4050 C.ar   67  HIS67       0.1986
     56  NE2       15.7750  -15.9670    9.8060 N.ar   67  HIS67      -0.2212
     57  N         12.2520  -20.6020   14.9340 N.3    88  ALA88      -0.1245
     58  CA        11.3390  -20.2910   13.8250 C.3    88  ALA88       0.1562
     59  C         11.1040  -21.4430   12.8980 C.2    88  ALA88       0.2260
     60  O         10.3620  -21.3010   11.9350 O.2    88  ALA88      -0.2867
     61  CB        11.8610  -19.1030   13.0650 C.3    88  ALA88       0.0290
     62  N          1.0420  -19.1040    9.1580 N.3   133  LYS133     -0.1245
     63  CA         2.0440  -18.3210    9.8790 C.3   133  LYS133      0.1561
     64  C          3.1450  -17.8780    8.9670 C.2   133  LYS133      0.2260
     65  O          3.6020  -16.7210    9.0410 O.2   133  LYS133     -0.2867
     66  CB         2.6070  -19.1250   11.0470 C.3   133  LYS133      0.0271
     67  CG         1.5510  -19.2590   12.1530 C.3   133  LYS133      0.0035
     68  CD         1.8880  -20.3180   13.1790 C.3   133  LYS133      0.0206
     69  CE         3.2120  -20.0290   13.8710 C.3   133  LYS133      0.1093
     70  NZ         3.4140  -21.1000   14.8840 N.3   133  LYS133     -0.1314
     71  N          1.9000  -15.0390    6.7670 N.3   136  ALA136     -0.1231
     72  CA         1.7650  -13.8150    7.5380 C.3   136  ALA136      0.1694
     73  C          3.1360  -13.2200    7.8860 C.2   136  ALA136      0.2591
     74  O          3.3150  -11.9910    7.9430 O.2   136  ALA136     -0.2718
     75  CB         0.9860  -14.1390    8.8090 C.3   136  ALA136      0.0304
     76  N          4.0900  -14.0640    8.2160 N.am  137  LYS137     -0.1980
     77  CA         5.4250  -13.6300    8.5370 C.3   137  LYS137      0.1596
     78  C          6.1300  -12.9920    7.3580 C.2   137  LYS137      0.2287
     79  O          6.7240  -11.9030    7.4930 O.2   137  LYS137     -0.2864
     80  CB         6.2530  -14.8040    9.0620 C.3   137  LYS137      0.0298
     81  CG         7.7160  -14.4810    9.2440 C.3   137  LYS137      0.0038
     82  CD         8.4140  -15.6750    9.8870 C.3   137  LYS137      0.0206
     83  CE         9.9270  -15.5150    9.9010 C.3   137  LYS137      0.1093
     84  NZ        10.5900  -16.5760   10.7350 N.3   137  LYS137     -0.1314
     85  N          4.4150   -9.6810    6.7920 N.3   140  GLY140     -0.1210
     86  CA         4.6080   -8.7730    7.9260 C.3   140  GLY140      0.1956
     87  C          6.0210   -8.2080    7.9310 C.2   140  GLY140      0.2611
     88  O          6.2140   -6.9980    8.1560 O.2   140  GLY140     -0.2717
     89  N          7.0080   -9.0460    7.6630 N.am  141  LEU141     -0.1979
     90  CA         8.4010   -8.5820    7.6070 C.3   141  LEU141      0.1596
     91  C          8.6720   -7.6600    6.4350 C.2   141  LEU141      0.2287
     92  O          9.3250   -6.6390    6.6020 O.2   141  LEU141     -0.2864
     93  CB         9.3750   -9.7440    7.5680 C.3   141  LEU141      0.0297
     94  CG         9.4220  -10.5050    8.8980 C.3   141  LEU141      0.0022
     95  CD1       10.1750  -11.7970    8.6850 C.3   141  LEU141      0.0001
     96  CD2       10.0520   -9.6890   10.0230 C.3   141  LEU141      0.0001
@<TRIPOS>BOND
     1    91    92    2
     2    91    90    1
     3    71    72    1
     4    85    86    1
     5    78    79    2
     6    78    77    1
     7    72    73    1
     8    72    75    1
     9    93    90    1
    10    93    94    1
    11    90    89    1
    12    49    50    2
    13    49    48    1
    14    89    87   am
    15    73    74    2
    16    73    76   am
    17    86    87    1
    18    87    88    2
    19    76    77    1
    20    51    48    1
    21    51    52    1
    22    77    80    1
    23    48    47    1
    24    95    94    1
    25    53    52   ar
    26    53    55   ar
    27    52    54   ar
    28    94    96    1
    29    64    65    2
    30    64    63    1
    31    80    81    1
    32    62    63    1
    33    81    82    1
    34    55    56   ar
    35    54    56   ar
    36    63    66    1
    37    82    83    1
    38    83    84    1
    39     6     5    1
    40    66    67    1
    41     1     2    1
    42     5     2    1
    43     5     7    1
    44    60    59    2
    45     2     3    1
    46    29    28    1
    47    67    68    1
    48    45    43    1
    49    30    28    1
    50    59    58    1
    51    61    58    1
    52    68    69    1
    53    28    27    1
    54    15    13    1
    55     3     4    2
    56    58    57    1
    57    41    42    2
    58    41    40    1
    59    69    70    1
    60    43    40    1
    61    43    44    1
    62    13    12    1
    63    27    24    1
    64    23    24    1
    65    46    44    1
    66    40    39    1
    67    24    25    1
    68     8     9    1
    69    12     9    1
    70    12    14    1
    71    21    20    1
    72     9    10    1
    73    22    20    1
    74    25    26    2
    75    20    17    1
    76    10    11    2
    77    38    36    1
    78    17    18    1
    79    17    16    1
    80    19    18    2
    81    36    35    1
    82    31    32    1
    83    35    32    1
    84    35    37    1
    85    32    33    1
    86    33    34    2
