@<TRIPOS>MOLECULE
tmp/6awrA00.pdb
 151 139 0 0 0
SMALL
GASTEIGER

@<TRIPOS>ATOM
      1  N         10.3290    4.8800   19.5910 N.3    29  THR29      -0.1218
      2  CA        11.0110    5.8550   18.7240 C.3    29  THR29       0.1862
      3  C         12.5160    5.5980   18.6730 C.2    29  THR29       0.2287
      4  O         13.1050    5.5410   17.5990 O.2    29  THR29      -0.2866
      5  CB        10.6070    7.3270   19.1570 C.3    29  THR29       0.1770
      6  OG1        9.1850    7.5130   18.9130 O.3    29  THR29      -0.2211
      7  CG2       11.3110    8.3720   18.3600 C.3    29  THR29       0.0375
      8  N         13.8190    4.6140   14.9640 N.3    33  ILE33      -0.1245
      9  CA        14.3850    5.7680   14.2500 C.3    33  ILE33       0.1561
     10  C         15.8420    5.8450   14.6250 C.2    33  ILE33       0.2260
     11  O         16.1500    6.0690   15.7800 O.2    33  ILE33      -0.2867
     12  CB        13.6650    7.0700   14.5560 C.3    33  ILE33       0.0252
     13  CG1       12.1600    6.8790   14.2720 C.3    33  ILE33       0.0019
     14  CG2       14.2770    8.2020   13.7250 C.3    33  ILE33       0.0019
     15  CD1       11.3560    8.1300   14.4840 C.3    33  ILE33       0.0001
     16  N         18.3160    7.9110   14.1690 N.3    35  ASP35      -0.1225
     17  CA        18.8690    9.1440   14.7030 C.3    35  ASP35       0.1805
     18  C         18.3070    9.5880   16.0650 C.2    35  ASP35       0.2597
     19  O         18.9080   10.4360   16.6950 O.2    35  ASP35      -0.2718
     20  CB        18.7330   10.3040   13.6910 C.3    35  ASP35       0.1424
     21  CG        19.6260   10.1410   12.4510 C.2    35  ASP35       0.3668
     22  OD1       20.5990    9.3180   12.4500 O.co2  35  ASP35      -0.2456
     23  OD2       19.2890   10.8510   11.4760 O.co2  35  ASP35      -0.2456
     24  N         17.2090    9.0100   16.5170 N.am   36  VAL36      -0.1980
     25  CA        16.6790    9.2830   17.8400 C.3    36  VAL36       0.1595
     26  C         17.4010    8.3460   18.8060 C.2    36  VAL36       0.2287
     27  O         17.3430    7.1350   18.6730 O.2    36  VAL36      -0.2864
     28  CB        15.1590    9.0710   17.8880 C.3    36  VAL36       0.0276
     29  CG1       14.7070    9.2970   19.3120 C.3    36  VAL36       0.0022
     30  CG2       14.4820   10.0820   16.9900 C.3    36  VAL36       0.0022
     31  N         14.2970   14.9650   23.7990 N.3    54  LEU54      -0.1245
     32  CA        14.7570   13.9720   22.8560 C.3    54  LEU54       0.1561
     33  C         16.2180   14.2920   22.5350 C.2    54  LEU54       0.2260
     34  O         16.5460   15.4880   22.3180 O.2    54  LEU54      -0.2867
     35  CB        13.9560   14.0290   21.5590 C.3    54  LEU54       0.0270
     36  CG        12.5880   13.3510   21.6170 C.3    54  LEU54       0.0019
     37  CD1       11.6010   14.2240   22.3200 C.3    54  LEU54       0.0001
     38  CD2       12.1480   13.0360   20.2240 C.3    54  LEU54       0.0001
     39  N         19.0170   13.4770   19.8470 N.3    56  ILE56      -0.1231
     40  CA        19.1560   12.9550   18.5050 C.3    56  ILE56       0.1692
     41  C         20.5840   13.1730   18.0610 C.2    56  ILE56       0.2592
     42  O         21.3990   13.8930   18.7120 O.2    56  ILE56      -0.2718
     43  CB        18.1710   13.6300   17.5150 C.3    56  ILE56       0.0266
     44  CG1       18.4780   15.0950   17.4290 C.3    56  ILE56       0.0019
     45  CG2       16.7240   13.4760   18.0060 C.3    56  ILE56       0.0020
     46  CD1       18.1250   15.7240   16.1390 C.3    56  ILE56       0.0001
     47  N         20.9130   12.5570   16.9270 N.am   57  VAL57      -0.1966
     48  CA        22.1700   12.8220   16.2590 C.3    57  VAL57       0.1727
     49  C         21.8630   13.3190   14.8580 C.2    57  VAL57       0.2616
     50  O         20.9100   12.8870   14.2200 O.2    57  VAL57      -0.2715
     51  CB        23.0850   11.5910   16.2520 C.3    57  VAL57       0.0290
     52  CG1       24.4050   11.8940   15.5380 C.3    57  VAL57       0.0023
     53  CG2       23.3600   11.1720   17.6690 C.3    57  VAL57       0.0023
     54  N         22.6010   14.3330   14.4440 N.am   58  GLU58      -0.1977
     55  CA        22.5060   14.8620   13.0700 C.3    58  GLU58       0.1602
     56  C         23.9490   15.0070   12.6690 C.2    58  GLU58       0.2287
     57  O         24.6880   15.7870   13.2790 O.2    58  GLU58      -0.2864
     58  CB        21.7490   16.1950   13.0590 C.3    58  GLU58       0.0415
     59  CG        20.8800   16.4840   11.8520 C.3    58  GLU58       0.1163
     60  CD        19.9040   17.6280   12.1080 C.2    58  GLU58       0.3649
     61  OE1       18.7010   17.3580   12.3100 O.co2  58  GLU58      -0.2457
     62  OE2       20.3310   18.7970   12.1510 O.co2  58  GLU58      -0.2457
     63  N         16.0760   18.1840   21.4140 N.3    65  ILE65      -0.1245
     64  CA        14.7800   18.5920   20.9110 C.3    65  ILE65       0.1561
     65  C         13.8430   18.5060   22.1110 C.2    65  ILE65       0.2260
     66  O         13.9960   17.6430   22.9850 O.2    65  ILE65      -0.2867
     67  CB        14.2920   17.6710   19.7750 C.3    65  ILE65       0.0252
     68  CG1       15.1090   18.0040   18.5290 C.3    65  ILE65       0.0019
     69  CG2       12.8020   17.7830   19.5170 C.3    65  ILE65       0.0019
     70  CD1       14.9600   17.0280   17.4090 C.3    65  ILE65       0.0001
     71  N          9.7810   18.2560   23.2660 N.3    67  HIS67      -0.1241
     72  CA         8.3830   17.9830   22.8430 C.3    67  HIS67       0.1621
     73  C          7.4640   18.2310   24.0090 C.2    67  HIS67       0.2264
     74  O          7.8780   18.1140   25.1870 O.2    67  HIS67      -0.2867
     75  CB         8.1940   16.5470   22.3310 C.3    67  HIS67       0.0745
     76  CG         8.8030   16.2770   20.9900 C.ar   67  HIS67       0.0817
     77  ND1        8.6650   15.0560   20.3340 N.ar   67  HIS67      -0.2268
     78  CD2        9.4410   17.0830   20.1170 C.ar   67  HIS67       0.1154
     79  CE1        9.2560   15.1290   19.1580 C.ar   67  HIS67       0.1986
     80  NE2        9.7300   16.3420   18.9850 N.ar   67  HIS67      -0.2212
     81  N          0.9630   16.1520   19.8280 N.3    81  TYR81      -0.1241
     82  CA         2.1840   16.5670   20.4900 C.3    81  TYR81       0.1605
     83  C          2.8010   17.7310   19.7180 C.2    81  TYR81       0.2264
     84  O          2.4760   17.9360   18.5350 O.2    81  TYR81      -0.2867
     85  CB         3.2070   15.4250   20.6370 C.3    81  TYR81       0.0534
     86  CG         3.7560   14.9250   19.3150 C.ar   81  TYR81      -0.0201
     87  CD1        3.0420   14.0090   18.5930 C.ar   81  TYR81      -0.0009
     88  CD2        4.9550   15.3870   18.7750 C.ar   81  TYR81      -0.0009
     89  CE1        3.4990   13.5440   17.3620 C.ar   81  TYR81       0.0417
     90  CE2        5.4120   14.9120   17.5300 C.ar   81  TYR81       0.0417
     91  CZ         4.6250   14.0490   16.8130 C.ar   81  TYR81       0.1957
     92  OH         5.0680   13.5670   15.5670 O.3    81  TYR81      -0.2866
     93  N          6.4430   20.1280   18.8970 N.3    83  VAL83      -0.1245
     94  CA         7.8680   20.4990   19.0290 C.3    83  VAL83       0.1561
     95  C          7.9410   21.8980   19.5380 C.2    83  VAL83       0.2260
     96  O          7.3730   22.8130   18.9520 O.2    83  VAL83      -0.2867
     97  CB         8.5810   20.3670   17.6910 C.3    83  VAL83       0.0252
     98  CG1       10.0280   20.7900   17.8460 C.3    83  VAL83       0.0019
     99  CG2        8.4770   18.9340   17.1820 C.3    83  VAL83       0.0019
    100  N         16.2290   22.3320   16.9860 N.3    87  VAL87      -0.1231
    101  CA        16.5890   22.7140   15.6240 C.3    87  VAL87       0.1692
    102  C         15.4110   22.8880   14.6140 C.2    87  VAL87       0.2591
    103  O         15.5480   23.6530   13.6330 O.2    87  VAL87      -0.2718
    104  CB        17.6160   21.6800   15.0680 C.3    87  VAL87       0.0266
    105  CG1       16.9720   20.3200   14.8500 C.3    87  VAL87       0.0020
    106  CG2       18.2580   22.1360   13.7600 C.3    87  VAL87       0.0020
    107  N         14.2440   22.2840   14.9080 N.am   88  ALA88      -0.1980
    108  CA        13.0850   22.4080   14.0010 C.3    88  ALA88       0.1597
    109  C         12.3190   23.7120   14.1590 C.2    88  ALA88       0.2287
    110  O         11.3770   23.9670   13.3980 O.2    88  ALA88      -0.2864
    111  CB        12.1390   21.2730   14.1390 C.3    88  ALA88       0.0319
    112  N          5.6220   23.8330   16.5270 N.3    96  ILE96      -0.1245
    113  CA         4.9710   23.0400   15.5130 C.3    96  ILE96       0.1561
    114  C          4.1910   21.9580   16.1940 C.2    96  ILE96       0.2260
    115  O          4.7650   21.1740   16.9520 O.2    96  ILE96      -0.2867
    116  CB         5.9500   22.4010   14.5020 C.3    96  ILE96       0.0252
    117  CG1        6.8570   23.4220   13.8940 C.3    96  ILE96       0.0019
    118  CG2        5.1550   21.7040   13.4050 C.3    96  ILE96       0.0019
    119  CD1        8.0080   22.8340   13.0900 C.3    96  ILE96       0.0001
    120  N          1.8160   18.5620   15.9380 N.3    98  PHE98      -0.1241
    121  CA         1.5720   17.3590   15.1190 C.3    98  PHE98       0.1605
    122  C          0.3870   16.6100   15.7300 C.2    98  PHE98       0.2264
    123  O          0.4870   16.0730   16.8320 O.2    98  PHE98      -0.2867
    124  CB         2.7880   16.4430   15.0730 C.3    98  PHE98       0.0534
    125  CG         4.0070   17.0780   14.4340 C.ar   98  PHE98      -0.0203
    126  CD1        4.9090   17.8120   15.1810 C.ar   98  PHE98      -0.0042
    127  CD2        4.2220   16.9510   13.0940 C.ar   98  PHE98      -0.0042
    128  CE1        6.0300   18.3960   14.5590 C.ar   98  PHE98      -0.0003
    129  CE2        5.3240   17.5060   12.4990 C.ar   98  PHE98      -0.0003
    130  CZ         6.2220   18.2150   13.2270 C.ar   98  PHE98      -0.0000
    131  N          9.0010   19.2280    8.1550 N.3   134  GLY134     -0.1225
    132  CA         8.0850   18.9650    9.2570 C.3   134  GLY134      0.1811
    133  C          7.0840   17.8830    8.9270 C.2   134  GLY134      0.2280
    134  O          6.8670   16.9530    9.7120 O.2   134  GLY134     -0.2866
    135  N          8.8580   14.5210    9.0670 N.3   137  LYS137     -0.1245
    136  CA         9.0650   14.0270   10.4020 C.3   137  LYS137      0.1561
    137  C          7.7800   13.5190   11.0260 C.2   137  LYS137      0.2260
    138  O          7.7810   12.4940   11.7090 O.2   137  LYS137     -0.2867
    139  CB         9.6880   15.1180   11.2830 C.3   137  LYS137      0.0271
    140  CG        11.1230   15.4190   10.9090 C.3   137  LYS137      0.0035
    141  CD        11.9840   14.2250   11.2790 C.3   137  LYS137      0.0206
    142  CE        13.4480   14.4800   11.0230 C.3   137  LYS137      0.1093
    143  NZ        13.8770   15.7210   11.7000 N.3   137  LYS137     -0.1314
    144  N          7.2960    9.6280   12.0900 N.3   141  LEU141     -0.1245
    145  CA         6.9480    9.1480   13.4380 C.3   141  LEU141      0.1561
    146  C          5.7580    8.1890   13.3830 C.2   141  LEU141      0.2260
    147  O          5.8010    7.0680   13.9460 O.2   141  LEU141     -0.2867
    148  CB         6.6800   10.3370   14.3670 C.3   141  LEU141      0.0270
    149  CG         6.3550   10.0120   15.8580 C.3   141  LEU141      0.0019
    150  CD1        4.9160    9.6970   16.2230 C.3   141  LEU141      0.0001
    151  CD2        7.2640    8.9670   16.5430 C.3   141  LEU141      0.0001
@<TRIPOS>BOND
     1   131   132    1
     2   133   132    1
     3   133   134    2
     4   135   136    1
     5   136   137    1
     6   136   139    1
     7   140   141    1
     8   140   139    1
     9   142   141    1
    10   142   143    1
    11   137   138    2
    12    23    21   ar
    13    59    60    1
    14    59    58    1
    15   144   145    1
    16    60    62   ar
    17    60    61   ar
    18    22    21   ar
    19    21    20    1
    20   129   127   ar
    21   129   130   ar
    22    56    55    1
    23    56    57    2
    24    58    55    1
    25    55    54    1
    26   119   117    1
    27   127   125   ar
    28   130   128   ar
    29   146   145    1
    30   146   147    2
    31   110   109    2
    32   118   116    1
    33   145   148    1
    34   103   102    2
    35    20    17    1
    36    14    12    1
    37   106   104    1
    38   117   116    1
    39   108   111    1
    40   108   109    1
    41   108   107    1
    42    16    17    1
    43    50    49    2
    44     9    12    1
    45     9    10    1
    46     9     8    1
    47    13    15    1
    48    13    12    1
    49   148   149    1
    50   125   124    1
    51   125   126   ar
    52    54    49   am
    53   116   113    1
    54   128   126   ar
    55   102   107   am
    56   102   101    1
    57    10    11    2
    58    17    18    1
    59   105   104    1
    60    49    48    1
    61   104   101    1
    62   124   121    1
    63   121   122    1
    64   121   120    1
    65   113   114    1
    66   113   112    1
    67    52    51    1
    68    92    91    1
    69   101   100    1
    70   122   123    2
    71   149   150    1
    72   149   151    1
    73    18    24   am
    74    18    19    2
    75    46    44    1
    76   114   115    2
    77    51    48    1
    78    51    53    1
    79    48    47    1
    80    24    25    1
    81    91    89   ar
    82    91    90   ar
    83    47    41   am
    84    30    28    1
    85    99    97    1
    86    89    87   ar
    87    70    68    1
    88    44    43    1
    89    43    45    1
    90    43    40    1
    91    90    88   ar
    92     4     3    2
    93    97    98    1
    94    97    94    1
    95    25    28    1
    96    25    26    1
    97    28    29    1
    98    41    40    1
    99    41    42    2
   100     7     5    1
   101    40    39    1
   102    68    67    1
   103    84    83    2
   104    87    86   ar
   105    27    26    2
   106     3     2    1
   107     2     5    1
   108     2     1    1
   109    88    86   ar
   110    93    94    1
   111     6     5    1
   112    96    95    2
   113    80    79   ar
   114    80    78   ar
   115    94    95    1
   116    79    77   ar
   117    86    85    1
   118    69    67    1
   119    83    82    1
   120    67    64    1
   121    81    82    1
   122    78    76   ar
   123    38    36    1
   124    77    76   ar
   125    82    85    1
   126    64    63    1
   127    64    65    1
   128    76    75    1
   129    35    36    1
   130    35    32    1
   131    36    37    1
   132    65    66    2
   133    34    33    2
   134    75    72    1
   135    33    32    1
   136    72    71    1
   137    72    73    1
   138    32    31    1
   139    73    74    2
