@<TRIPOS>MOLECULE
tmp/6awsA00.pdb
 160 153 0 0 0
SMALL
GASTEIGER

@<TRIPOS>ATOM
      1  N         16.7180   22.3030   27.5810 N.3     7  ASP7       -0.1225
      2  CA        18.1040   22.3800   27.1500 C.3     7  ASP7        0.1805
      3  C         18.2310   22.0440   25.6650 C.2     7  ASP7        0.2598
      4  O         17.2980   21.5150   25.0420 O.2     7  ASP7       -0.2718
      5  CB        19.0380   21.4840   27.9920 C.3     7  ASP7        0.1424
      6  CG        19.2810   22.0730   29.4140 C.2     7  ASP7        0.3668
      7  OD1       19.1210   23.3020   29.6570 O.co2   7  ASP7       -0.2456
      8  OD2       19.6210   21.3180   30.3420 O.co2   7  ASP7       -0.2456
      9  N         19.3970   22.3810   25.1090 N.am    8  GLU8       -0.1965
     10  CA        19.6980   22.1640   23.7100 C.3     8  GLU8        0.1733
     11  C         21.0760   21.5620   23.5190 C.2     8  GLU8        0.2616
     12  O         21.9640   21.7540   24.3350 O.2     8  GLU8       -0.2715
     13  CB        19.5820   23.4710   22.9160 C.3     8  GLU8        0.0429
     14  CG        18.1560   23.9730   22.7390 C.3     8  GLU8        0.1163
     15  CD        18.0220   25.0100   21.5940 C.2     8  GLU8        0.3649
     16  OE1       16.8850   25.1970   21.1180 O.co2   8  GLU8       -0.2457
     17  OE2       19.0310   25.6170   21.1350 O.co2   8  GLU8       -0.2457
     18  N         21.2130   20.8110   22.4390 N.am    9  ILE9       -0.1977
     19  CA        22.4870   20.2320   22.0510 C.3     9  ILE9        0.1596
     20  C         22.5590   20.1890   20.5170 C.2     9  ILE9        0.2287
     21  O         21.5200   20.1230   19.8560 O.2     9  ILE9       -0.2864
     22  CB        22.6480   18.8310   22.6690 C.3     9  ILE9        0.0276
     23  CG1       24.0980   18.3450   22.5970 C.3     9  ILE9        0.0022
     24  CG2       21.6840   17.8390   22.0250 C.3     9  ILE9        0.0022
     25  CD1       24.3860   17.2050   23.5480 C.3     9  ILE9        0.0001
     26  N         17.5330   10.7610   13.8310 N.3    19  TYR19      -0.1241
     27  CA        16.2890   10.2110   14.3260 C.3    19  TYR19       0.1605
     28  C         16.2110    8.7310   14.0580 C.2    19  TYR19       0.2264
     29  O         15.8820    7.9760   14.9560 O.2    19  TYR19      -0.2867
     30  CB        15.0880   10.9330   13.7380 C.3    19  TYR19       0.0534
     31  CG        13.8030   10.5190   14.4140 C.ar   19  TYR19      -0.0201
     32  CD1       13.4980   10.9350   15.7340 C.ar   19  TYR19      -0.0009
     33  CD2       12.8750    9.7660   13.7320 C.ar   19  TYR19      -0.0009
     34  CE1       12.2860   10.5960   16.3380 C.ar   19  TYR19       0.0417
     35  CE2       11.6710    9.4150   14.3150 C.ar   19  TYR19       0.0417
     36  CZ        11.3770    9.8110   15.6190 C.ar   19  TYR19       0.1957
     37  OH        10.1680    9.4070   16.1330 O.3    19  TYR19      -0.2866
     38  N         18.3390    6.9680   16.4770 N.3    22  MET22      -0.1245
     39  CA        17.7250    6.9220   17.8190 C.3    22  MET22       0.1570
     40  C         16.7660    5.7540   18.0260 C.2    22  MET22       0.2261
     41  O         16.6780    5.2420   19.1360 O.2    22  MET22      -0.2867
     42  CB        16.9420    8.2090   18.0910 C.3    22  MET22       0.0387
     43  CG        17.7470    9.4850   18.1720 C.3    22  MET22       0.0595
     44  SD        18.8550    9.5310   19.5870 S.3    22  MET22      -0.1393
     45  CE        19.5700   11.1530   19.3000 C.3    22  MET22       0.0692
     46  N         18.6120    2.7330   19.3160 N.3    25  ALA25      -0.1245
     47  CA        19.3450    2.9590   20.5810 C.3    25  ALA25       0.1562
     48  C         19.4120    1.7520   21.5130 C.2    25  ALA25       0.2260
     49  O         20.4000    1.5950   22.2500 O.2    25  ALA25      -0.2867
     50  CB        18.7260    4.1220   21.3370 C.3    25  ALA25       0.0290
     51  N         10.4460   11.9940   20.1610 N.3    79  TYR79      -0.1241
     52  CA        10.3360   10.7920   20.9860 C.3    79  TYR79       0.1605
     53  C         10.2640   11.2750   22.4230 C.2    79  TYR79       0.2264
     54  O         11.0900   12.0800   22.8670 O.2    79  TYR79      -0.2867
     55  CB        11.5640    9.8960   20.7580 C.3    79  TYR79       0.0534
     56  CG        11.6210    8.6030   21.5400 C.ar   79  TYR79      -0.0201
     57  CD1       10.8090    7.5090   21.2110 C.ar   79  TYR79      -0.0009
     58  CD2       12.5190    8.4560   22.5950 C.ar   79  TYR79      -0.0009
     59  CE1       10.8710    6.3220   21.9340 C.ar   79  TYR79       0.0417
     60  CE2       12.6020    7.2660   23.3200 C.ar   79  TYR79       0.0417
     61  CZ        11.7480    6.2170   23.0080 C.ar   79  TYR79       0.1957
     62  OH        11.8230    5.0410   23.7100 O.3    79  TYR79      -0.2866
     63  N          9.8450    9.9090   26.4600 N.3    81  TYR81      -0.1241
     64  CA         9.8730    8.7530   27.3330 C.3    81  TYR81       0.1605
     65  C         10.0970    9.2000   28.7740 C.2    81  TYR81       0.2264
     66  O         10.5990   10.2870   29.0210 O.2    81  TYR81      -0.2867
     67  CB        10.9510    7.7690   26.8910 C.3    81  TYR81       0.0534
     68  CG        12.3460    8.2300   27.1640 C.ar   81  TYR81      -0.0201
     69  CD1       13.0270    9.0380   26.2530 C.ar   81  TYR81      -0.0009
     70  CD2       12.9860    7.8880   28.3410 C.ar   81  TYR81      -0.0009
     71  CE1       14.3100    9.4830   26.5190 C.ar   81  TYR81       0.0417
     72  CE2       14.2710    8.3330   28.6150 C.ar   81  TYR81       0.0417
     73  CZ        14.9280    9.1350   27.7090 C.ar   81  TYR81       0.1957
     74  OH        16.2090    9.5640   27.9870 O.3    81  TYR81      -0.2866
     75  N         11.7650   14.8870   23.6170 N.3   100  THR100     -0.1203
     76  CA        12.8700   15.1660   22.7380 C.3   100  THR100      0.1994
     77  C         12.4040   15.4620   21.3180 C.2   100  THR100      0.2618
     78  O         11.4990   14.8390   20.7870 O.2   100  THR100     -0.2717
     79  CB        13.8920   14.0640   22.6730 C.3   100  THR100      0.1784
     80  OG1       13.3450   13.0120   21.9140 O.3   100  THR100     -0.2211
     81  CG2       14.2690   13.5880   24.1040 C.3   100  THR100      0.0376
     82  N         13.0530   16.4470   20.7220 N.am  101  LYS101     -0.1965
     83  CA        12.7570   16.8810   19.3870 C.3   101  LYS101      0.1728
     84  C         14.0820   17.1400   18.6820 C.2   101  LYS101      0.2616
     85  O         15.0110   17.7070   19.2740 O.2   101  LYS101     -0.2715
     86  CB        11.9580   18.1840   19.4520 C.3   101  LYS101      0.0311
     87  CG        10.9220   18.3370   18.3870 C.3   101  LYS101      0.0038
     88  CD         9.9370   19.4340   18.7340 C.3   101  LYS101      0.0206
     89  CE         8.5700   19.0810   18.1670 C.3   101  LYS101      0.1093
     90  NZ         7.5810   20.1700   18.3490 N.3   101  LYS101     -0.1314
     91  N         14.1460   16.7440   17.4060 N.am  102  LEU102     -0.1977
     92  CA        15.2150   17.1870   16.5290 C.3   102  LEU102      0.1596
     93  C         14.7380   18.1480   15.4630 C.2   102  LEU102      0.2287
     94  O         13.6230   17.9820   14.9430 O.2   102  LEU102     -0.2864
     95  CB        15.9020   16.0110   15.8560 C.3   102  LEU102      0.0297
     96  CG        16.5540   15.0230   16.8170 C.3   102  LEU102      0.0022
     97  CD1       17.0260   13.8310   16.0580 C.3   102  LEU102      0.0001
     98  CD2       17.7480   15.6260   17.5380 C.3   102  LEU102      0.0001
     99  N         19.1670   19.3780   18.7190 N.3   112  GLY112     -0.1210
    100  CA        18.2860   18.5930   19.5840 C.3   112  GLY112      0.1956
    101  C         17.7660   19.4220   20.7450 C.2   112  GLY112      0.2612
    102  O         18.5130   20.1660   21.3820 O.2   112  GLY112     -0.2717
    103  N         16.4660   19.3070   20.9850 N.am  113  LYS113     -0.1965
    104  CA        15.8010   20.0730   22.0150 C.3   113  LYS113      0.1728
    105  C         15.2140   19.1070   23.0030 C.2   113  LYS113      0.2616
    106  O         14.5640   18.1310   22.6060 O.2   113  LYS113     -0.2715
    107  CB        14.6900   20.9080   21.4020 C.3   113  LYS113      0.0311
    108  CG        15.1320   21.9780   20.4420 C.3   113  LYS113      0.0038
    109  CD        13.9120   22.5080   19.7040 C.3   113  LYS113      0.0206
    110  CE        14.2210   23.7670   18.9150 C.3   113  LYS113      0.1093
    111  NZ        12.9880   24.1500   18.1800 N.3   113  LYS113     -0.1314
    112  N         15.5240   19.3390   24.2810 N.am  114  LEU114     -0.1977
    113  CA        14.9890   18.5040   25.3520 C.3   114  LEU114      0.1596
    114  C         14.1550   19.3580   26.2890 C.2   114  LEU114      0.2287
    115  O         14.6440   20.3380   26.8180 O.2   114  LEU114     -0.2864
    116  CB        16.1120   17.8300   26.1500 C.3   114  LEU114      0.0297
    117  CG        15.7440   17.2110   27.5050 C.3   114  LEU114      0.0022
    118  CD1       14.7670   16.0820   27.3290 C.3   114  LEU114      0.0001
    119  CD2       16.9720   16.6300   28.1680 C.3   114  LEU114      0.0001
    120  N         22.0640   14.9550   33.5480 N.3   135  LYS135     -0.1245
    121  CA        22.5130   15.7400   32.3790 C.3   135  LYS135      0.1561
    122  C         23.7490   15.1570   31.7510 C.2   135  LYS135      0.2260
    123  O         23.8400   15.1100   30.5380 O.2   135  LYS135     -0.2867
    124  CB        22.8200   17.1900   32.7780 C.3   135  LYS135      0.0271
    125  CG        21.6210   17.9990   33.2140 C.3   135  LYS135      0.0035
    126  CD        22.0560   19.4380   33.4350 C.3   135  LYS135      0.0206
    127  CE        20.9010   20.3310   33.8450 C.3   135  LYS135      0.1093
    128  NZ        20.2160   19.8470   35.0680 N.3   135  LYS135     -0.1314
    129  N         22.6100   11.9530   29.9290 N.3   138  GLY138     -0.1210
    130  CA        21.8500   12.2840   28.7370 C.3   138  GLY138      0.1956
    131  C         22.7240   12.7720   27.6230 C.2   138  GLY138      0.2611
    132  O         22.4930   12.4150   26.4830 O.2   138  GLY138     -0.2717
    133  N         23.7080   13.6100   27.9530 N.am  139  GLU139     -0.1979
    134  CA        24.7200   14.0700   27.0010 C.3   139  GLU139      0.1602
    135  C         25.4320   12.8780   26.3990 C.2   139  GLU139      0.2287
    136  O         25.5080   12.7540   25.1620 O.2   139  GLU139     -0.2864
    137  CB        25.7640   14.9680   27.6790 C.3   139  GLU139      0.0415
    138  CG        26.3270   16.0040   26.7100 C.3   139  GLU139      0.1163
    139  CD        27.5440   16.7500   27.2070 C.2   139  GLU139      0.3649
    140  OE1       28.4610   16.9660   26.3680 O.co2 139  GLU139     -0.2457
    141  OE2       27.5900   17.1350   28.3990 O.co2 139  GLU139     -0.2457
    142  N         24.5320    9.8090   26.1770 N.3   141  LEU141     -0.1231
    143  CA        23.6790    9.0370   25.3160 C.3   141  LEU141      0.1693
    144  C         23.6260    9.6410   23.9130 C.2   141  LEU141      0.2592
    145  O         23.7340    8.9320   22.9090 O.2   141  LEU141     -0.2718
    146  CB        22.2580    8.9760   25.8790 C.3   141  LEU141      0.0284
    147  CG        21.2950    8.2200   24.9500 C.3   141  LEU141      0.0019
    148  CD1       21.6030    6.7490   25.0150 C.3   141  LEU141      0.0001
    149  CD2       19.8500    8.5160   25.2390 C.3   141  LEU141      0.0001
    150  N         23.4300   10.9530   23.8700 N.am  142  PHE142     -0.1976
    151  CA        23.3170   11.6530   22.6040 C.3   142  PHE142      0.1639
    152  C         24.5940   11.5410   21.7770 C.2   142  PHE142      0.2290
    153  O         24.5440   11.2290   20.5790 O.2   142  PHE142     -0.2864
    154  CB        23.0150   13.1100   22.8580 C.3   142  PHE142      0.0560
    155  CG        22.6590   13.8550   21.6300 C.ar  142  PHE142     -0.0200
    156  CD1       21.3760   13.7630   21.1150 C.ar  142  PHE142     -0.0042
    157  CD2       23.6020   14.6480   20.9850 C.ar  142  PHE142     -0.0042
    158  CE1       21.0190   14.4730   19.9860 C.ar  142  PHE142     -0.0003
    159  CE2       23.2420   15.3860   19.8650 C.ar  142  PHE142     -0.0003
    160  CZ        21.9520   15.2800   19.3590 C.ar  142  PHE142     -0.0000
@<TRIPOS>BOND
     1    33    35   ar
     2    33    31   ar
     3    30    27    1
     4    30    31    1
     5    26    27    1
     6    28    27    1
     7    28    29    2
     8    35    36   ar
     9    31    32   ar
    10    94    93    2
    11    93    92    1
    12    36    37    1
    13    36    34   ar
    14    32    34   ar
    15    95    92    1
    16    95    96    1
    17    97    96    1
    18    38    39    1
    19    92    91    1
    20    96    98    1
    21    91    84   am
    22    39    40    1
    23    39    42    1
    24    40    41    2
    25    42    43    1
    26    89    90    1
    27    89    88    1
    28    43    44    1
    29   111   110    1
    30    87    88    1
    31    87    86    1
    32    84    85    2
    33    84    83    1
    34    99   100    1
    35   110   109    1
    36    45    44    1
    37    46    47    1
    38   160   159   ar
    39   160   158   ar
    40    83    86    1
    41    83    82    1
    42   100   101    1
    43   109   108    1
    44    21    20    2
    45   159   157   ar
    46   158   156   ar
    47    51    52    1
    48   108   107    1
    49    20    19    1
    50   153   152    2
    51    47    50    1
    52    47    48    1
    53    82    77   am
    54   101   103   am
    55   101   102    2
    56    55    52    1
    57    55    56    1
    58    78    77    2
    59   157   155   ar
    60   103   104    1
    61    52    53    1
    62   156   155   ar
    63    16    15   ar
    64    17    15   ar
    65    57    56   ar
    66    57    59   ar
    67    77    76    1
    68   107   104    1
    69    48    49    2
    70    56    58   ar
    71    15    14    1
    72   155   154    1
    73   152   151    1
    74    80    79    1
    75    59    61   ar
    76   104   105    1
    77    24    22    1
    78    19    18    1
    79    19    22    1
    80    53    54    2
    81    18    11   am
    82    58    60   ar
    83    23    22    1
    84    23    25    1
    85   151   154    1
    86   151   150    1
    87   106   105    2
    88    79    76    1
    89    79    81    1
    90    76    75    1
    91    14    13    1
    92   145   144    2
    93    13    10    1
    94   105   112   am
    95    61    60   ar
    96    61    62    1
    97    11    10    1
    98    11    12    2
    99    10     9    1
   100   150   144   am
   101   144   143    1
   102   112   113    1
   103   147   148    1
   104   147   149    1
   105   147   146    1
   106     4     3    2
   107     9     3   am
   108   136   135    2
   109   143   146    1
   110   143   142    1
   111   113   116    1
   112   113   114    1
   113     3     2    1
   114   116   117    1
   115    69    71   ar
   116    69    68   ar
   117   114   115    2
   118   140   139   ar
   119   135   134    1
   120    63    64    1
   121   132   131    2
   122    71    73   ar
   123   138   139    1
   124   138   137    1
   125    67    68    1
   126    67    64    1
   127   134   137    1
   128   134   133    1
   129     2     1    1
   130     2     5    1
   131    68    70   ar
   132   139   141   ar
   133   118   117    1
   134    64    65    1
   135   117   119    1
   136   131   133   am
   137   131   130    1
   138    73    74    1
   139    73    72   ar
   140     5     6    1
   141    70    72   ar
   142   130   129    1
   143    65    66    2
   144     6     7   ar
   145     6     8   ar
   146   123   122    2
   147   122   121    1
   148   121   124    1
   149   121   120    1
   150   124   125    1
   151   125   126    1
   152   126   127    1
   153   127   128    1
