@<TRIPOS>MOLECULE
tmp/6awsA02.pdb
 156 145 0 0 0
SMALL
GASTEIGER

@<TRIPOS>ATOM
      1  N         12.1190   22.3320   32.6390 N.3     5  PHE5       -0.1241
      2  CA        13.0780   23.1850   31.9450 C.3     5  PHE5        0.1605
      3  C         13.5620   22.5570   30.6510 C.2     5  PHE5        0.2264
      4  O         13.2480   21.4260   30.2960 O.2     5  PHE5       -0.2867
      5  CB        14.2400   23.4850   32.8660 C.3     5  PHE5        0.0534
      6  CG        15.0740   22.2960   33.1510 C.ar    5  PHE5       -0.0203
      7  CD1       16.0980   21.9470   32.2730 C.ar    5  PHE5       -0.0042
      8  CD2       14.8770   21.5290   34.3070 C.ar    5  PHE5       -0.0042
      9  CE1       16.9070   20.8480   32.5310 C.ar    5  PHE5       -0.0003
     10  CE2       15.6810   20.4360   34.5680 C.ar    5  PHE5       -0.0003
     11  CZ        16.6940   20.0980   33.6830 C.ar    5  PHE5       -0.0000
     12  N         16.7180   22.3030   27.5810 N.3     7  ASP7       -0.1239
     13  CA        18.1040   22.3800   27.1500 C.3     7  ASP7        0.1674
     14  C         18.2310   22.0440   25.6650 C.2     7  ASP7        0.2266
     15  O         17.2980   21.5150   25.0420 O.2     7  ASP7       -0.2867
     16  CB        19.0380   21.4840   27.9920 C.3     7  ASP7        0.1410
     17  CG        19.2810   22.0730   29.4140 C.2     7  ASP7        0.3668
     18  OD1       19.1210   23.3020   29.6570 O.co2   7  ASP7       -0.2456
     19  OD2       19.6210   21.3180   30.3420 O.co2   7  ASP7       -0.2456
     20  N         17.0610    0.1390   35.4600 N.3    65  ILE65      -0.1245
     21  CA        16.2970    1.3710   35.2620 C.3    65  ILE65       0.1561
     22  C         15.0980    1.0760   34.3600 C.2    65  ILE65       0.2260
     23  O         15.2480    0.3510   33.3480 O.2    65  ILE65      -0.2867
     24  CB        17.1680    2.4520   34.5840 C.3    65  ILE65       0.0252
     25  CG1       18.3070    2.8750   35.5170 C.3    65  ILE65       0.0019
     26  CG2       16.3410    3.6860   34.2490 C.3    65  ILE65       0.0019
     27  CD1       19.2850    3.8430   34.9060 C.3    65  ILE65       0.0001
     28  N         12.0620    2.5010   31.9180 N.3    67  HIS67      -0.1241
     29  CA        11.6460    3.5650   31.0430 C.3    67  HIS67       0.1621
     30  C         10.2860    3.2050   30.5290 C.2    67  HIS67       0.2264
     31  O         10.0050    2.0270   30.2830 O.2    67  HIS67      -0.2867
     32  CB        12.5850    3.6630   29.8480 C.3    67  HIS67       0.0745
     33  CG        13.8810    4.3400   30.1590 C.ar   67  HIS67       0.0817
     34  ND1       14.7950    4.6760   29.1890 N.ar   67  HIS67      -0.2268
     35  CD2       14.3740    4.8250   31.3240 C.ar   67  HIS67       0.1154
     36  CE1       15.8120    5.3070   29.7510 C.ar   67  HIS67       0.1986
     37  NE2       15.5820    5.4110   31.0420 N.ar   67  HIS67      -0.2212
     38  N          9.8450    9.9090   26.4600 N.3    81  TYR81      -0.1241
     39  CA         9.8730    8.7530   27.3330 C.3    81  TYR81       0.1605
     40  C         10.0970    9.2000   28.7740 C.2    81  TYR81       0.2264
     41  O         10.5990   10.2870   29.0210 O.2    81  TYR81      -0.2867
     42  CB        10.9510    7.7690   26.8910 C.3    81  TYR81       0.0534
     43  CG        12.3460    8.2300   27.1640 C.ar   81  TYR81      -0.0201
     44  CD1       13.0270    9.0380   26.2530 C.ar   81  TYR81      -0.0009
     45  CD2       12.9860    7.8880   28.3410 C.ar   81  TYR81      -0.0009
     46  CE1       14.3100    9.4830   26.5190 C.ar   81  TYR81       0.0417
     47  CE2       14.2710    8.3330   28.6150 C.ar   81  TYR81       0.0417
     48  CZ        14.9280    9.1350   27.7090 C.ar   81  TYR81       0.1957
     49  OH        16.2090    9.5640   27.9870 O.3    81  TYR81      -0.2866
     50  N         11.3740    8.0720   32.8770 N.3    83  VAL83      -0.1245
     51  CA        11.9130    7.1780   33.8850 C.3    83  VAL83       0.1561
     52  C         10.8210    6.9420   34.9030 C.2    83  VAL83       0.2260
     53  O         10.3750    7.8940   35.5450 O.2    83  VAL83      -0.2867
     54  CB        13.1190    7.8110   34.6150 C.3    83  VAL83       0.0252
     55  CG1       13.5570    6.9740   35.8380 C.3    83  VAL83       0.0019
     56  CG2       14.2730    8.0150   33.6340 C.3    83  VAL83       0.0019
     57  N         17.6250    5.3690   38.7160 N.3    88  ALA88      -0.1245
     58  CA        17.4940    6.7070   38.1430 C.3    88  ALA88       0.1562
     59  C         16.2540    7.4880   38.6210 C.2    88  ALA88       0.2260
     60  O         16.1980    8.6970   38.4150 O.2    88  ALA88      -0.2867
     61  CB        17.5100    6.6310   36.6360 C.3    88  ALA88       0.0290
     62  N         10.0730   11.1130   35.9230 N.3    96  ILE96      -0.1245
     63  CA        10.8470   12.1260   35.1990 C.3    96  ILE96       0.1561
     64  C         10.6740   11.9290   33.7240 C.2    96  ILE96       0.2260
     65  O         10.9950   10.8790   33.2220 O.2    96  ILE96      -0.2867
     66  CB        12.3400   12.0410   35.4920 C.3    96  ILE96       0.0252
     67  CG1       12.5900   12.1490   36.9940 C.3    96  ILE96       0.0019
     68  CG2       13.0310   13.1970   34.8030 C.3    96  ILE96       0.0019
     69  CD1       14.0310   11.9330   37.3860 C.3    96  ILE96       0.0001
     70  N         11.2960   12.8920   29.6840 N.3    98  PHE98      -0.1241
     71  CA        12.1830   13.5130   28.6970 C.3    98  PHE98       0.1605
     72  C         11.4010   13.6510   27.4150 C.2    98  PHE98       0.2264
     73  O         11.0250   12.6520   26.8150 O.2    98  PHE98      -0.2867
     74  CB        13.4150   12.6340   28.4800 C.3    98  PHE98       0.0534
     75  CG        14.1630   12.3510   29.7440 C.ar   98  PHE98      -0.0203
     76  CD1       15.0060   13.2810   30.2960 C.ar   98  PHE98      -0.0042
     77  CD2       13.9340   11.1950   30.4320 C.ar   98  PHE98      -0.0042
     78  CE1       15.6360   13.0410   31.4990 C.ar   98  PHE98      -0.0003
     79  CE2       14.5770   10.9360   31.6340 C.ar   98  PHE98      -0.0003
     80  CZ        15.4410   11.8520   32.1670 C.ar   98  PHE98      -0.0000
     81  N         15.5240   19.3390   24.2810 N.3   114  LEU114     -0.1245
     82  CA        14.9890   18.5040   25.3520 C.3   114  LEU114      0.1561
     83  C         14.1550   19.3580   26.2890 C.2   114  LEU114      0.2260
     84  O         14.6440   20.3380   26.8180 O.2   114  LEU114     -0.2867
     85  CB        16.1120   17.8300   26.1500 C.3   114  LEU114      0.0270
     86  CG        15.7440   17.2110   27.5050 C.3   114  LEU114      0.0019
     87  CD1       14.7670   16.0820   27.3290 C.3   114  LEU114      0.0001
     88  CD2       16.9720   16.6300   28.1680 C.3   114  LEU114      0.0001
     89  N         12.5050   18.7520   29.9990 N.3   116  LEU116     -0.1245
     90  CA        12.5630   17.8080   31.1150 C.3   116  LEU116      0.1561
     91  C         11.4800   18.1690   32.1250 C.2   116  LEU116      0.2260
     92  O         11.4430   19.3020   32.5740 O.2   116  LEU116     -0.2867
     93  CB        13.9170   17.8570   31.7820 C.3   116  LEU116      0.0270
     94  CG        14.1690   16.7710   32.8320 C.3   116  LEU116      0.0019
     95  CD1       15.6400   16.4280   32.7970 C.3   116  LEU116      0.0001
     96  CD2       13.8160   17.1030   34.2660 C.3   116  LEU116      0.0001
     97  N         21.0150   14.5390   41.5800 N.3   130  GLU130     -0.1231
     98  CA        20.4870   13.6050   40.5850 C.3   130  GLU130      0.1699
     99  C         20.2480   14.2510   39.2290 C.2   130  GLU130      0.2592
    100  O         20.3810   13.5950   38.1890 O.2   130  GLU130     -0.2718
    101  CB        19.1800   12.9490   41.0370 C.3   130  GLU130      0.0402
    102  CG        18.9300   11.6400   40.2890 C.3   130  GLU130      0.1161
    103  CD        19.8650   10.5170   40.7380 C.2   130  GLU130      0.3649
    104  OE1       20.1020    9.6170   39.9040 O.co2 130  GLU130     -0.2457
    105  OE2       20.3800   10.5380   41.8980 O.co2 130  GLU130     -0.2457
    106  N         19.8870   15.5290   39.2450 N.am  131  LEU131     -0.1980
    107  CA        19.7410   16.2850   38.0180 C.3   131  LEU131      0.1596
    108  C         21.0690   16.4820   37.2800 C.2   131  LEU131      0.2287
    109  O         21.1660   16.2150   36.0770 O.2   131  LEU131     -0.2864
    110  CB        19.1010   17.6330   38.3000 C.3   131  LEU131      0.0297
    111  CG        17.5640   17.5810   38.2320 C.3   131  LEU131      0.0022
    112  CD1       17.0140   18.9960   38.2860 C.3   131  LEU131      0.0001
    113  CD2       16.9630   16.8700   37.0120 C.3   131  LEU131      0.0001
    114  N         22.1330   13.3140   35.9080 N.3   134  GLY134     -0.1210
    115  CA        21.2860   13.0020   34.7720 C.3   134  GLY134      0.1956
    116  C         21.7190   13.6610   33.4890 C.2   134  GLY134      0.2611
    117  O         21.7330   13.0080   32.4640 O.2   134  GLY134     -0.2717
    118  N         22.0640   14.9550   33.5480 N.am  135  LYS135     -0.1979
    119  CA        22.5130   15.7400   32.3790 C.3   135  LYS135      0.1596
    120  C         23.7490   15.1570   31.7510 C.2   135  LYS135      0.2287
    121  O         23.8400   15.1100   30.5380 O.2   135  LYS135     -0.2864
    122  CB        22.8200   17.1900   32.7780 C.3   135  LYS135      0.0298
    123  CG        21.6210   17.9990   33.2140 C.3   135  LYS135      0.0038
    124  CD        22.0560   19.4380   33.4350 C.3   135  LYS135      0.0206
    125  CE        20.9010   20.3310   33.8450 C.3   135  LYS135      0.1093
    126  NZ        20.2160   19.8470   35.0680 N.3   135  LYS135     -0.1314
    127  N         24.6210   11.9920   31.8930 N.3   137  LYS137     -0.1231
    128  CA        24.1860   10.7290   31.2770 C.3   137  LYS137      0.1693
    129  C         23.4380   10.9240   29.9670 C.2   137  LYS137      0.2593
    130  O         23.5630   10.1410   29.0430 O.2   137  LYS137     -0.2718
    131  CB        23.2960    9.9530   32.2400 C.3   137  LYS137      0.0285
    132  CG        23.9880    8.7300   32.8120 C.3   137  LYS137      0.0035
    133  CD        25.0880    9.0700   33.7980 C.3   137  LYS137      0.0206
    134  CE        25.6920    7.8170   34.3970 C.3   137  LYS137      0.1093
    135  NZ        26.9060    8.0450   35.2160 N.3   137  LYS137     -0.1314
    136  N         22.6100   11.9530   29.9290 N.am  138  GLY138     -0.1942
    137  CA        21.8500   12.2840   28.7370 C.3   138  GLY138      0.2014
    138  C         22.7240   12.7720   27.6230 C.2   138  GLY138      0.2638
    139  O         22.4930   12.4150   26.4830 O.2   138  GLY138     -0.2714
    140  N         23.7080   13.6100   27.9530 N.am  139  GLU139     -0.1977
    141  CA        24.7200   14.0700   27.0010 C.3   139  GLU139      0.1602
    142  C         25.4320   12.8780   26.3990 C.2   139  GLU139      0.2287
    143  O         25.5080   12.7540   25.1620 O.2   139  GLU139     -0.2864
    144  CB        25.7640   14.9680   27.6790 C.3   139  GLU139      0.0415
    145  CG        26.3270   16.0040   26.7100 C.3   139  GLU139      0.1163
    146  CD        27.5440   16.7500   27.2070 C.2   139  GLU139      0.3649
    147  OE1       28.4610   16.9660   26.3680 O.co2 139  GLU139     -0.2457
    148  OE2       27.5900   17.1350   28.3990 O.co2 139  GLU139     -0.2457
    149  N         24.5320    9.8090   26.1770 N.3   141  LEU141     -0.1245
    150  CA        23.6790    9.0370   25.3160 C.3   141  LEU141      0.1561
    151  C         23.6260    9.6410   23.9130 C.2   141  LEU141      0.2260
    152  O         23.7340    8.9320   22.9090 O.2   141  LEU141     -0.2867
    153  CB        22.2580    8.9760   25.8790 C.3   141  LEU141      0.0270
    154  CG        21.2950    8.2200   24.9500 C.3   141  LEU141      0.0019
    155  CD1       21.6030    6.7490   25.0150 C.3   141  LEU141      0.0001
    156  CD2       19.8500    8.5160   25.2390 C.3   141  LEU141      0.0001
@<TRIPOS>BOND
     1   152   151    2
     2   151   150    1
     3    81    82    1
     4   154   155    1
     5   154   156    1
     6   154   153    1
     7    15    14    2
     8   143   142    2
     9   150   153    1
    10   150   149    1
    11    82    85    1
    12    82    83    1
    13    14    13    1
    14    85    86    1
    15    44    46   ar
    16    44    43   ar
    17    83    84    2
    18   147   146   ar
    19   142   141    1
    20    38    39    1
    21   139   138    2
    22    46    48   ar
    23   145   146    1
    24   145   144    1
    25    73    72    2
    26    42    43    1
    27    42    39    1
    28   141   144    1
    29   141   140    1
    30    13    12    1
    31    13    16    1
    32    43    45   ar
    33   146   148   ar
    34    87    86    1
    35    39    40    1
    36    72    71    1
    37    86    88    1
    38   138   140   am
    39   138   137    1
    40    48    49    1
    41    48    47   ar
    42    16    17    1
    43    45    47   ar
    44    74    71    1
    45    74    75    1
    46    71    70    1
    47   137   136    1
    48    40    41    2
    49   130   129    2
    50    34    36   ar
    51    34    33   ar
    52    17    18   ar
    53    17    19   ar
    54    75    76   ar
    55    75    77   ar
    56    36    37   ar
    57    32    33    1
    58    32    29    1
    59   136   129   am
    60   129   128    1
    61    89    90    1
    62    33    35   ar
    63    31    30    2
    64    76    78   ar
    65     4     3    2
    66    77    79   ar
    67    30    29    1
    68   121   120    2
    69     3     2    1
    70    37    35   ar
    71    29    28    1
    72    90    93    1
    73    90    91    1
    74   128   127    1
    75   128   131    1
    76    78    80   ar
    77    79    80   ar
    78   120   119    1
    79    93    94    1
    80     2     1    1
    81     2     5    1
    82    91    92    2
    83   131   132    1
    84     7     9   ar
    85     7     6   ar
    86   119   122    1
    87   119   118    1
    88   117   116    2
    89     9    11   ar
    90   122   123    1
    91    95    94    1
    92   132   133    1
    93    94    96    1
    94     5     6    1
    95    50    51    1
    96     6     8   ar
    97   123   124    1
    98    65    64    2
    99    23    22    2
   100   124   125    1
   101   116   118   am
   102   116   115    1
   103    56    54    1
   104    11    10   ar
   105    64    63    1
   106   133   134    1
   107   125   126    1
   108    51    54    1
   109    51    52    1
   110    26    24    1
   111     8    10   ar
   112    22    21    1
   113   134   135    1
   114    24    21    1
   115    24    25    1
   116    54    55    1
   117   115   114    1
   118    68    66    1
   119    52    53    2
   120    27    25    1
   121    63    66    1
   122    63    62    1
   123    21    20    1
   124    66    67    1
   125   109   108    2
   126    61    58    1
   127    67    69    1
   128   113   111    1
   129   108   107    1
   130   107   110    1
   131   107   106    1
   132    58    59    1
   133    58    57    1
   134   100    99    2
   135   111   112    1
   136   111   110    1
   137    60    59    2
   138    99   106   am
   139    99    98    1
   140   104   103   ar
   141   102   103    1
   142   102   101    1
   143    98   101    1
   144    98    97    1
   145   103   105   ar
