@<TRIPOS>MOLECULE
tmp/6awuA00.pdb
 151 144 0 0 0
SMALL
GASTEIGER

@<TRIPOS>ATOM
      1  N         40.8580   16.0960    5.6310 N.3     7  ASP7       -0.1225
      2  CA        40.8850   17.1260    6.6570 C.3     7  ASP7        0.1805
      3  C         41.4310   16.4940    7.9560 C.2     7  ASP7        0.2598
      4  O         41.4710   15.2720    8.1110 O.2     7  ASP7       -0.2718
      5  CB        39.4740   17.6830    6.8240 C.3     7  ASP7        0.1424
      6  CG        39.4200   19.0490    7.5350 C.2     7  ASP7        0.3668
      7  OD1       40.3880   19.8190    7.5140 O.co2   7  ASP7       -0.2456
      8  OD2       38.3550   19.3580    8.0940 O.co2   7  ASP7       -0.2456
      9  N         41.8890   17.3520    8.8540 N.am    8  GLU8       -0.1965
     10  CA        42.3910   16.9400   10.1470 C.3     8  GLU8        0.1733
     11  C         41.8510   17.9040   11.1940 C.2     8  GLU8        0.2616
     12  O         41.5390   19.0600   10.9010 O.2     8  GLU8       -0.2715
     13  CB        43.9190   16.9330   10.1530 C.3     8  GLU8        0.0429
     14  CG        44.5110   18.3350    9.8080 C.3     8  GLU8        0.1163
     15  CD        46.0160   18.3220    9.5250 C.2     8  GLU8        0.3649
     16  OE1       46.6710   17.2610    9.6290 O.co2   8  GLU8       -0.2457
     17  OE2       46.5560   19.3930    9.2180 O.co2   8  GLU8       -0.2457
     18  N         41.7400   17.4040   12.4170 N.am    9  ILE9       -0.1977
     19  CA        41.2520   18.1980   13.5520 C.3     9  ILE9        0.1596
     20  C         41.8560   17.6610   14.8610 C.2     9  ILE9        0.2287
     21  O         41.9870   16.4520   15.0400 O.2     9  ILE9       -0.2864
     22  CB        39.6970   18.2170   13.5660 C.3     9  ILE9        0.0276
     23  CG1       39.1570   19.2580   14.5440 C.3     9  ILE9        0.0022
     24  CG2       39.1310   16.8310   13.8810 C.3     9  ILE9        0.0022
     25  CD1       37.6710   19.4800   14.4010 C.3     9  ILE9        0.0001
     26  N         37.0450    7.6790   20.9090 N.3    19  TYR19      -0.1241
     27  CA        36.4840    6.6330   20.0060 C.3    19  TYR19       0.1605
     28  C         35.3040    5.8800   20.6010 C.2    19  TYR19       0.2264
     29  O         34.3630    5.5410   19.9180 O.2    19  TYR19      -0.2867
     30  CB        37.5420    5.6260   19.6090 C.3    19  TYR19       0.0534
     31  CG        37.0540    4.6530   18.5760 C.ar   19  TYR19      -0.0201
     32  CD1       36.8550    5.0560   17.2570 C.ar   19  TYR19      -0.0009
     33  CD2       36.7870    3.3290   18.9110 C.ar   19  TYR19      -0.0009
     34  CE1       36.4110    4.1570   16.3100 C.ar   19  TYR19       0.0417
     35  CE2       36.3480    2.4240   17.9690 C.ar   19  TYR19       0.0417
     36  CZ        36.1680    2.8460   16.6650 C.ar   19  TYR19       0.1957
     37  OH        35.7500    1.9730   15.7110 O.3    19  TYR19      -0.2866
     38  N         32.4760    8.0530   19.9790 N.3    22  MET22      -0.1245
     39  CA        32.0010    8.0160   18.5960 C.3    22  MET22       0.1570
     40  C         30.9370    6.9120   18.4260 C.2    22  MET22       0.2261
     41  O         29.9270    7.0920   17.7750 O.2    22  MET22      -0.2867
     42  CB        33.1740    7.7910   17.6300 C.3    22  MET22       0.0387
     43  CG        32.7770    7.6190   16.1560 C.3    22  MET22       0.0595
     44  SD        32.2390    9.1480   15.4190 S.3    22  MET22      -0.1393
     45  CE        31.6200    8.6630   13.8410 C.3    22  MET22       0.0692
     46  N         40.6990    2.7820   15.8240 N.3    77  TYR77      -0.1241
     47  CA        39.7460    3.8550   16.1250 C.3    77  TYR77       0.1605
     48  C         39.0480    4.3870   14.8650 C.2    77  TYR77       0.2264
     49  O         38.7540    5.5740   14.7370 O.2    77  TYR77      -0.2867
     50  CB        40.4410    4.9890   16.8910 C.3    77  TYR77       0.0534
     51  CG        41.1980    4.5360   18.1390 C.ar   77  TYR77      -0.0201
     52  CD1       40.5940    3.7050   19.0950 C.ar   77  TYR77      -0.0009
     53  CD2       42.4980    4.9630   18.3740 C.ar   77  TYR77      -0.0009
     54  CE1       41.2730    3.3050   20.2360 C.ar   77  TYR77       0.0417
     55  CE2       43.1830    4.5720   19.5100 C.ar   77  TYR77       0.0417
     56  CZ        42.5780    3.7460   20.4480 C.ar   77  TYR77       0.1957
     57  OH        43.2780    3.3630   21.5880 O.3    77  TYR77      -0.2866
     58  N         36.4880    7.9950    8.9140 N.3   100  THR100     -0.1203
     59  CA        37.0880    8.5920   10.1270 C.3   100  THR100      0.1994
     60  C         38.1270    7.6670   10.7760 C.2   100  THR100      0.2618
     61  O         38.0480    6.4370   10.6830 O.2   100  THR100     -0.2717
     62  CB        36.0570    9.0120   11.1920 C.3   100  THR100      0.1784
     63  OG1       35.3250    7.8810   11.6650 O.3   100  THR100     -0.2211
     64  CG2       35.1290   10.1000   10.6430 C.3   100  THR100      0.0376
     65  N         39.1030    8.2950   11.4130 N.am  101  LYS101     -0.1965
     66  CA        40.1480    7.5860   12.1290 C.3   101  LYS101      0.1728
     67  C         40.7050    8.5690   13.1590 C.2   101  LYS101      0.2616
     68  O         40.9660    9.7520   12.8710 O.2   101  LYS101     -0.2715
     69  CB        41.2160    7.0100   11.1920 C.3   101  LYS101      0.0311
     70  CG        42.4680    6.4890   11.8390 C.3   101  LYS101      0.0038
     71  CD        43.2930    5.8010   10.7790 C.3   101  LYS101      0.0206
     72  CE        44.3240    4.8450   11.3330 C.3   101  LYS101      0.1093
     73  NZ        45.4120    4.6000   10.3720 N.3   101  LYS101     -0.1314
     74  N         40.8120    8.0780   14.3830 N.am  102  LEU102     -0.1977
     75  CA        41.4750    8.8070   15.4640 C.3   102  LEU102      0.1596
     76  C         42.8500    8.2280   15.6400 C.2   102  LEU102      0.2287
     77  O         43.0320    7.0160   15.5960 O.2   102  LEU102     -0.2864
     78  CB        40.7340    8.7040   16.7920 C.3   102  LEU102      0.0297
     79  CG        39.3180    9.2760   16.7630 C.3   102  LEU102      0.0022
     80  CD1       38.5610    8.7870   17.9660 C.3   102  LEU102      0.0001
     81  CD2       39.2830   10.8000   16.6780 C.3   102  LEU102      0.0001
     82  N         41.8670   13.8190   14.7820 N.3   112  GLY112     -0.1210
     83  CA        40.8200   13.2760   13.9430 C.3   112  GLY112      0.1956
     84  C         41.2240   13.4520   12.5060 C.2   112  GLY112      0.2612
     85  O         41.5480   14.5600   12.0590 O.2   112  GLY112     -0.2717
     86  N         41.2280   12.3340   11.7950 N.am  113  LYS113     -0.1965
     87  CA        41.6160   12.2880   10.3940 C.3   113  LYS113      0.1728
     88  C         40.3630   11.9110    9.5820 C.2   113  LYS113      0.2616
     89  O         39.8570   10.8000    9.6650 O.2   113  LYS113     -0.2715
     90  CB        42.8110   11.3290   10.2100 C.3   113  LYS113      0.0311
     91  CG        43.4000   11.3990    8.8370 C.3   113  LYS113      0.0038
     92  CD        44.1560   12.6750    8.5370 C.3   113  LYS113      0.0206
     93  CE        44.8750   12.5420    7.1960 C.3   113  LYS113      0.1093
     94  NZ        45.2130   13.8380    6.5630 N.3   113  LYS113     -0.1314
     95  N         39.8370   12.8790    8.8400 N.am  114  LEU114     -0.1977
     96  CA        38.7080   12.6520    7.9290 C.3   114  LEU114      0.1596
     97  C         39.2070   12.4930    6.5060 C.2   114  LEU114      0.2287
     98  O         39.9230   13.3470    6.0000 O.2   114  LEU114     -0.2864
     99  CB        37.7300   13.8250    7.9380 C.3   114  LEU114      0.0297
    100  CG        36.6230   13.8080    6.8790 C.3   114  LEU114      0.0022
    101  CD1       35.7630   12.5640    7.0290 C.3   114  LEU114      0.0001
    102  CD2       35.7460   15.0450    6.9510 C.3   114  LEU114      0.0001
    103  N         32.5970   19.0410    4.8380 N.3   135  LYS135     -0.1245
    104  CA        33.6720   19.3010    5.8010 C.3   135  LYS135      0.1561
    105  C         33.0980   19.8680    7.1620 C.2   135  LYS135      0.2260
    106  O         33.4350   19.4080    8.2570 O.2   135  LYS135     -0.2867
    107  CB        34.7730   20.1800    5.1560 C.3   135  LYS135      0.0271
    108  CG        35.3860   19.6150    3.8710 C.3   135  LYS135      0.0035
    109  CD        36.8010   19.0930    4.1010 C.3   135  LYS135      0.0206
    110  CE        37.4990   18.7430    2.7790 C.3   135  LYS135      0.1093
    111  NZ        38.9690   18.4580    3.0010 N.3   135  LYS135     -0.1314
    112  N         31.3010   17.1840    9.2760 N.3   138  GLY138     -0.1210
    113  CA        32.3190   16.3500    9.9280 C.3   138  GLY138      0.1956
    114  C         33.0170   16.9720   11.1240 C.2   138  GLY138      0.2611
    115  O         33.4000   16.2720   12.0520 O.2   138  GLY138     -0.2717
    116  N         33.1840   18.2850   11.0990 N.am  139  GLU139     -0.1979
    117  CA        33.7450   19.0200   12.2450 C.3   139  GLU139      0.1602
    118  C         32.7890   19.0040   13.4220 C.2   139  GLU139      0.2287
    119  O         33.1730   18.7450   14.5540 O.2   139  GLU139     -0.2864
    120  CB        34.0570   20.4590   11.8560 C.3   139  GLU139      0.0415
    121  CG        34.7220   21.2650   12.9510 C.3   139  GLU139      0.1163
    122  CD        35.1120   22.6500   12.4990 C.2   139  GLU139      0.3649
    123  OE1       34.7770   23.0480   11.3650 O.co2 139  GLU139     -0.2457
    124  OE2       35.7470   23.3710   13.2900 O.co2 139  GLU139     -0.2457
    125  N         30.4060   16.9330   14.0420 N.3   141  LEU141     -0.1231
    126  CA        30.3670   15.5870   14.5780 C.3   141  LEU141      0.1693
    127  C         31.4320   15.4590   15.6460 C.2   141  LEU141      0.2592
    128  O         31.1610   15.1700   16.8110 O.2   141  LEU141     -0.2718
    129  CB        30.6180   14.5570   13.4820 C.3   141  LEU141      0.0284
    130  CG        30.8070   13.1250   13.9880 C.3   141  LEU141      0.0019
    131  CD1       29.5420   12.6390   14.7030 C.3   141  LEU141      0.0001
    132  CD2       31.1780   12.2110   12.8420 C.3   141  LEU141      0.0001
    133  N         32.6500   15.7020   15.2250 N.am  142  PHE142     -0.1976
    134  CA        33.8110   15.6040   16.1190 C.3   142  PHE142      0.1639
    135  C         33.6970   16.4750   17.3930 C.2   142  PHE142      0.2290
    136  O         34.0560   16.0450   18.4780 O.2   142  PHE142     -0.2864
    137  CB        35.0670   15.9770   15.3240 C.3   142  PHE142      0.0560
    138  CG        36.3540   15.7920   16.0730 C.ar  142  PHE142     -0.0200
    139  CD1       37.0190   14.5810   16.0580 C.ar  142  PHE142     -0.0042
    140  CD2       36.9200   16.8650   16.7430 C.ar  142  PHE142     -0.0042
    141  CE1       38.2300   14.4460   16.7120 C.ar  142  PHE142     -0.0003
    142  CE2       38.1270   16.7380   17.4040 C.ar  142  PHE142     -0.0003
    143  CZ        38.7830   15.5300   17.3900 C.ar  142  PHE142     -0.0000
    144  N         31.1690   15.0200   19.8950 N.3   145  ILE145     -0.1245
    145  CA        31.6910   13.8620   20.6480 C.3   145  ILE145      0.1561
    146  C         32.6590   14.3830   21.7300 C.2   145  ILE145      0.2260
    147  O         32.6000   14.0090   22.8990 O.2   145  ILE145     -0.2867
    148  CB        32.3900   12.8580   19.7140 C.3   145  ILE145      0.0252
    149  CG1       31.4860   12.4230   18.5880 C.3   145  ILE145      0.0019
    150  CG2       32.7140   11.5890   20.4380 C.3   145  ILE145      0.0019
    151  CD1       30.0490   12.1420   19.0200 C.3   145  ILE145      0.0001
@<TRIPOS>BOND
     1   110   111    1
     2   110   109    1
     3   108   109    1
     4   108   107    1
     5   103   104    1
     6   107   104    1
     7     1     2    1
     8   104   105    1
     9    98    97    2
    10    97    96    1
    11    94    93    1
    12     2     5    1
    13     2     3    1
    14     5     6    1
    15   100   102    1
    16   100   101    1
    17   100    99    1
    18   105   106    2
    19    93    92    1
    20     7     6   ar
    21     6     8   ar
    22    96    99    1
    23    96    95    1
    24     3     4    2
    25     3     9   am
    26    92    91    1
    27    91    90    1
    28    95    88   am
    29     9    10    1
    30    58    59    1
    31    17    15   ar
    32   112   113    1
    33    15    16   ar
    34    15    14    1
    35    88    89    2
    36    88    87    1
    37    14    13    1
    38   113   114    1
    39    59    60    1
    40    59    62    1
    41    10    13    1
    42    10    11    1
    43    90    87    1
    44    73    72    1
    45    87    86    1
    46    64    62    1
    47    61    60    2
    48    60    65   am
    49    71    72    1
    50    71    70    1
    51    12    11    2
    52   116   114   am
    53   116   117    1
    54   114   115    2
    55    69    70    1
    56    69    66    1
    57    62    63    1
    58    11    18   am
    59   123   122   ar
    60    65    66    1
    61    86    84   am
    62   120   117    1
    63   120   121    1
    64    85    84    2
    65    66    67    1
    66   117   118    1
    67    18    19    1
    68   122   121    1
    69   122   124   ar
    70    84    83    1
    71   132   130    1
    72    68    67    2
    73    67    74   am
    74   118   119    2
    75   129   130    1
    76   129   126    1
    77    19    22    1
    78    19    20    1
    79    22    24    1
    80    22    23    1
    81    45    44    1
    82    83    82    1
    83   130   131    1
    84   125   126    1
    85    74    75    1
    86    25    23    1
    87   126   127    1
    88    49    48    2
    89    20    21    2
    90    48    47    1
    91   133   127   am
    92   133   134    1
    93   137   138    1
    94   137   134    1
    95    44    43    1
    96    75    76    1
    97    75    78    1
    98    77    76    2
    99   127   128    2
   100    37    36    1
   101    46    47    1
   102   139   138   ar
   103   139   141   ar
   104   138   140   ar
   105   134   135    1
   106    47    50    1
   107    43    42    1
   108    34    36   ar
   109    34    32   ar
   110    36    35   ar
   111    81    79    1
   112   141   143   ar
   113   140   142   ar
   114    79    78    1
   115    79    80    1
   116    50    51    1
   117    32    31   ar
   118   143   142   ar
   119   135   136    2
   120    42    39    1
   121    41    40    2
   122    35    33   ar
   123    51    53   ar
   124    51    52   ar
   125    53    55   ar
   126    40    39    1
   127    31    33   ar
   128    31    30    1
   129   149   151    1
   130   149   148    1
   131    39    38    1
   132    52    54   ar
   133    55    56   ar
   134    30    27    1
   135   148   150    1
   136   148   145    1
   137   144   145    1
   138    29    28    2
   139    27    28    1
   140    27    26    1
   141    54    56   ar
   142    56    57    1
   143   145   146    1
   144   146   147    2
