@<TRIPOS>MOLECULE
tmp/6awuA01.pdb
 146 134 0 0 0
SMALL
GASTEIGER

@<TRIPOS>ATOM
      1  N         32.4760    8.0530   19.9790 N.3    22  MET22      -0.1245
      2  CA        32.0010    8.0160   18.5960 C.3    22  MET22       0.1570
      3  C         30.9370    6.9120   18.4260 C.2    22  MET22       0.2261
      4  O         29.9270    7.0920   17.7750 O.2    22  MET22      -0.2867
      5  CB        33.1740    7.7910   17.6300 C.3    22  MET22       0.0387
      6  CG        32.7770    7.6190   16.1560 C.3    22  MET22       0.0595
      7  SD        32.2390    9.1480   15.4190 S.3    22  MET22      -0.1393
      8  CE        31.6200    8.6630   13.8410 C.3    22  MET22       0.0692
      9  N         27.5750    7.8330   19.0570 N.3    25  ALA25      -0.1231
     10  CA        27.2350    9.0830   18.3370 C.3    25  ALA25       0.1694
     11  C         25.7430    9.2170   18.0140 C.2    25  ALA25       0.2592
     12  O         25.2220   10.3370   18.0000 O.2    25  ALA25      -0.2718
     13  CB        28.0400    9.2380   17.0680 C.3    25  ALA25       0.0304
     14  N         25.0790    8.0740   17.7790 N.am   26  ASP26      -0.1974
     15  CA        23.6220    8.0580   17.5270 C.3    26  ASP26       0.1709
     16  C         22.7860    8.5690   18.6950 C.2    26  ASP26       0.2293
     17  O         21.7360    9.1980   18.5100 O.2    26  ASP26      -0.2864
     18  CB        23.1310    6.6620   17.2140 C.3    26  ASP26       0.1436
     19  CG        23.8480    6.0510   16.0670 C.2    26  ASP26       0.3671
     20  OD1       24.6300    6.8030   15.4060 O.co2  26  ASP26      -0.2456
     21  OD2       23.5940    4.8410   15.8400 O.co2  26  ASP26      -0.2456
     22  N         24.7720   12.7630   19.3740 N.3    29  THR29      -0.1218
     23  CA        24.6340   13.8740   18.4010 C.3    29  THR29       0.1862
     24  C         23.2870   14.5950   18.4700 C.2    29  THR29       0.2287
     25  O         23.2730   15.8080   18.3080 O.2    29  THR29      -0.2866
     26  CB        24.9590   13.5210   16.9340 C.3    29  THR29       0.1770
     27  OG1       24.1120   12.4810   16.4860 O.3    29  THR29      -0.2211
     28  CG2       26.4050   13.1220   16.7550 C.3    29  THR29       0.0375
     29  N         24.1680   18.5290   19.1210 N.3    33  ILE33      -0.1245
     30  CA        23.8850   19.2440   17.8590 C.3    33  ILE33       0.1561
     31  C         22.4010   19.5830   17.7500 C.2    33  ILE33       0.2260
     32  O         21.5100   18.7380   17.8620 O.2    33  ILE33      -0.2867
     33  CB        24.3400   18.4790   16.6200 C.3    33  ILE33       0.0252
     34  CG1       25.8480   18.2290   16.6450 C.3    33  ILE33       0.0019
     35  CG2       24.0340   19.2760   15.3540 C.3    33  ILE33       0.0019
     36  CD1       26.2270   16.8950   16.0520 C.3    33  ILE33       0.0001
     37  N         20.3700   21.0820   15.2440 N.3    35  ASP35      -0.1225
     38  CA        19.6880   20.6160   14.0260 C.3    35  ASP35       0.1805
     39  C         19.2860   19.1540   14.0840 C.2    35  ASP35       0.2597
     40  O         18.1980   18.7830   13.6460 O.2    35  ASP35      -0.2718
     41  CB        20.5930   20.7320   12.7990 C.3    35  ASP35       0.1424
     42  CG        20.7970   22.1700   12.3090 C.2    35  ASP35       0.3668
     43  OD1       20.2160   23.1390   12.8770 O.co2  35  ASP35      -0.2456
     44  OD2       21.5730   22.3110   11.3170 O.co2  35  ASP35      -0.2456
     45  N         20.1700   18.3200   14.6040 N.am   36  VAL36      -0.1980
     46  CA        19.8890   16.8640   14.7360 C.3    36  VAL36       0.1595
     47  C         18.8870   16.5530   15.8640 C.2    36  VAL36       0.2287
     48  O         19.0550   16.9740   17.0370 O.2    36  VAL36      -0.2864
     49  CB        21.1290   16.0200   15.0110 C.3    36  VAL36       0.0276
     50  CG1       20.7700   14.5350   15.0490 C.3    36  VAL36       0.0022
     51  CG2       22.1670   16.3010   13.9600 C.3    36  VAL36       0.0022
     52  N         18.3340    9.7070   15.5000 N.3    39  VAL39      -0.1245
     53  CA        19.1450    8.8180   14.6760 C.3    39  VAL39       0.1561
     54  C         18.6240    7.4050   14.8790 C.2    39  VAL39       0.2260
     55  O         18.8590    6.8210   15.9220 O.2    39  VAL39      -0.2867
     56  CB        20.6440    8.8980   15.0870 C.3    39  VAL39       0.0252
     57  CG1       21.4940    7.9000   14.3030 C.3    39  VAL39       0.0019
     58  CG2       21.1760   10.3190   14.9070 C.3    39  VAL39       0.0019
     59  N         20.9870    3.9850    8.6770 N.3    52  LYS52      -0.1245
     60  CA        20.4730    4.8640    9.7250 C.3    52  LYS52       0.1561
     61  C         19.7260    6.0260    9.1140 C.2    52  LYS52       0.2260
     62  O         20.1790    6.6280    8.1630 O.2    52  LYS52      -0.2867
     63  CB        21.6040    5.4350   10.5630 C.3    52  LYS52       0.0271
     64  CG        22.5050    4.3990   11.1860 C.3    52  LYS52       0.0035
     65  CD        23.5890    5.0700   12.0040 C.3    52  LYS52       0.0206
     66  CE        24.4060    4.0430   12.7470 C.3    52  LYS52       0.1093
     67  NZ        25.6490    4.6790   13.2430 N.3    52  LYS52      -0.1314
     68  N         18.7190    9.7290    9.9340 N.3    54  LEU54      -0.1245
     69  CA        18.8720   10.9410   10.7140 C.3    54  LEU54       0.1561
     70  C         17.7870   11.8810   10.3570 C.2    54  LEU54       0.2260
     71  O         17.3920   11.9920    9.2180 O.2    54  LEU54      -0.2867
     72  CB        20.1720   11.6600   10.4260 C.3    54  LEU54       0.0270
     73  CG        21.4090   10.9510   10.9700 C.3    54  LEU54       0.0019
     74  CD1       21.7940    9.7470   10.1190 C.3    54  LEU54       0.0001
     75  CD2       22.5370   11.9510   10.9960 C.3    54  LEU54       0.0001
     76  N         16.8750   15.7750   10.5870 N.3    56  ILE56      -0.1245
     77  CA        17.4960   17.1070   10.7050 C.3    56  ILE56       0.1561
     78  C         16.4180   18.1490   10.6620 C.2    56  ILE56       0.2260
     79  O         15.3080   17.8380   10.2570 O.2    56  ILE56      -0.2867
     80  CB        18.4880   17.3190    9.5440 C.3    56  ILE56       0.0252
     81  CG1       19.4970   16.1830    9.5460 C.3    56  ILE56       0.0019
     82  CG2       19.2120   18.6540    9.5790 C.3    56  ILE56       0.0019
     83  CD1       20.1160   15.8790   10.8780 C.3    56  ILE56       0.0001
     84  N         18.2180   12.1960    6.4110 N.3    65  ILE65      -0.1245
     85  CA        19.4790   11.8170    5.8290 C.3    65  ILE65       0.1561
     86  C         19.5980   10.3340    6.0980 C.2    65  ILE65       0.2260
     87  O         19.2770    9.8690    7.1620 O.2    65  ILE65      -0.2867
     88  CB        20.6730   12.5710    6.4440 C.3    65  ILE65       0.0252
     89  CG1       20.5820   14.0680    6.1510 C.3    65  ILE65       0.0019
     90  CG2       21.9890   12.0280    5.8930 C.3    65  ILE65       0.0019
     91  CD1       21.5960   14.9130    6.9250 C.3    65  ILE65       0.0001
     92  N         22.2890    7.2390    6.3050 N.3    67  HIS67      -0.1241
     93  CA        23.7070    6.8040    6.3890 C.3    67  HIS67       0.1621
     94  C         23.7880    5.3340    6.1470 C.2    67  HIS67       0.2264
     95  O         22.9460    4.6150    6.6100 O.2    67  HIS67      -0.2867
     96  CB        24.3200    7.0320    7.7680 C.3    67  HIS67       0.0745
     97  CG        24.6640    8.4510    8.0470 C.ar   67  HIS67       0.0817
     98  ND1       25.3140    8.8390    9.1980 N.ar   67  HIS67      -0.2268
     99  CD2       24.4780    9.5770    7.3190 C.ar   67  HIS67       0.1154
    100  CE1       25.4820   10.1520    9.1830 C.ar   67  HIS67       0.1986
    101  NE2       24.9850   10.6240    8.0540 N.ar   67  HIS67      -0.2212
    102  N         36.0440    4.4580   11.8180 N.3    79  TYR79      -0.1241
    103  CA        34.5900    4.3810   11.6190 C.3    79  TYR79       0.1605
    104  C         34.2550    5.0680   10.2970 C.2    79  TYR79       0.2264
    105  O         34.4640    6.2730   10.1240 O.2    79  TYR79      -0.2867
    106  CB        33.8130    4.9990   12.7820 C.3    79  TYR79       0.0534
    107  CG        32.3170    4.8560   12.6560 C.ar   79  TYR79      -0.0201
    108  CD1       31.5660    5.7860   11.9260 C.ar   79  TYR79      -0.0009
    109  CD2       31.6480    3.7680   13.2170 C.ar   79  TYR79      -0.0009
    110  CE1       30.1890    5.6380   11.7760 C.ar   79  TYR79       0.0417
    111  CE2       30.2730    3.6040   13.0590 C.ar   79  TYR79       0.0417
    112  CZ        29.5470    4.5450   12.3520 C.ar   79  TYR79       0.1957
    113  OH        28.1850    4.4010   12.1530 O.3    79  TYR79      -0.2866
    114  N         31.4460    5.6450    7.1870 N.3    81  TYR81      -0.1241
    115  CA        30.0350    5.6500    6.8420 C.3    81  TYR81       0.1605
    116  C         29.8150    6.4580    5.5830 C.2    81  TYR81       0.2264
    117  O         30.5860    7.3420    5.2710 O.2    81  TYR81      -0.2867
    118  CB        29.1770    6.2090    8.0060 C.3    81  TYR81       0.0534
    119  CG        29.3470    7.7200    8.3100 C.ar   81  TYR81      -0.0201
    120  CD1       28.5560    8.6940    7.6500 C.ar   81  TYR81      -0.0009
    121  CD2       30.2620    8.1640    9.2540 C.ar   81  TYR81      -0.0009
    122  CE1       28.7060   10.0610    7.9120 C.ar   81  TYR81       0.0417
    123  CE2       30.4070    9.5290    9.5210 C.ar   81  TYR81       0.0417
    124  CZ        29.6330   10.4740    8.8450 C.ar   81  TYR81       0.1957
    125  OH        29.8040   11.8030    9.0970 O.3    81  TYR81      -0.2866
    126  N         30.0120   19.4800    8.4080 N.3   137  LYS137     -0.1245
    127  CA        29.2550   18.4220    9.0690 C.3   137  LYS137      0.1561
    128  C         30.1830   17.5260    9.8820 C.2   137  LYS137      0.2260
    129  O         29.9230   17.2210   11.0540 O.2   137  LYS137     -0.2867
    130  CB        28.4760   17.6040    8.0460 C.3   137  LYS137      0.0271
    131  CG        27.6720   16.4560    8.6510 C.3   137  LYS137      0.0035
    132  CD        26.7690   15.8260    7.5900 C.3   137  LYS137      0.0206
    133  CE        25.9200   14.7160    8.1910 C.3   137  LYS137      0.1093
    134  NZ        26.6850   13.4410    8.2750 N.3   137  LYS137     -0.1314
    135  N         31.5330   19.2960   13.1230 N.3   140  GLY140     -0.1210
    136  CA        30.4500   19.3330   14.1310 C.3   140  GLY140      0.1956
    137  C         30.2060   17.9970   14.8070 C.2   140  GLY140      0.2611
    138  O         29.8380   17.9400   15.9790 O.2   140  GLY140     -0.2717
    139  N         30.4060   16.9330   14.0420 N.am  141  LEU141     -0.1979
    140  CA        30.3670   15.5870   14.5780 C.3   141  LEU141      0.1596
    141  C         31.4320   15.4590   15.6460 C.2   141  LEU141      0.2287
    142  O         31.1610   15.1700   16.8110 O.2   141  LEU141     -0.2864
    143  CB        30.6180   14.5570   13.4820 C.3   141  LEU141      0.0297
    144  CG        30.8070   13.1250   13.9880 C.3   141  LEU141      0.0022
    145  CD1       29.5420   12.6390   14.7030 C.3   141  LEU141      0.0001
    146  CD2       31.1780   12.2110   12.8420 C.3   141  LEU141      0.0001
@<TRIPOS>BOND
     1   117   116    2
     2   116   115    1
     3    85    86    1
     4    85    84    1
     5    85    88    1
     6    90    88    1
     7    86    87    2
     8    94    93    1
     9    94    95    2
    10    89    88    1
    11    89    91    1
    12    92    93    1
    13    93    96    1
    14   115   114    1
    15   115   118    1
    16    99    97   ar
    17    99   101   ar
    18   132   133    1
    19   132   131    1
    20   120   122   ar
    21   120   119   ar
    22    96    97    1
    23   122   124   ar
    24   118   119    1
    25   130   131    1
    26   130   127    1
    27    97    98   ar
    28   101   100   ar
    29    62    61    2
    30   133   134    1
    31   119   121   ar
    32   126   127    1
    33    59    60    1
    34   124   125    1
    35   124   123   ar
    36   127   128    1
    37    61    60    1
    38   100    98   ar
    39    71    70    2
    40   121   123   ar
    41    80    81    1
    42    80    82    1
    43    80    77    1
    44    81    83    1
    45    60    63    1
    46   128   129    2
    47    68    69    1
    48    74    73    1
    49   105   104    2
    50    79    78    2
    51   104   103    1
    52    70    69    1
    53    72    69    1
    54    72    73    1
    55    63    64    1
    56    76    77    1
    57    78    77    1
    58    73    75    1
    59    64    65    1
    60    44    42   ar
    61   103   102    1
    62   103   106    1
    63   110   108   ar
    64   110   112   ar
    65   108   107   ar
    66    65    66    1
    67   113   112    1
    68    42    41    1
    69    42    43   ar
    70   112   111   ar
    71   107   106    1
    72   107   109   ar
    73    66    67    1
    74    41    38    1
    75   146   144    1
    76   111   109   ar
    77   135   136    1
    78   143   144    1
    79   143   140    1
    80    40    39    2
    81     8     7    1
    82    51    49    1
    83   144   145    1
    84    38    39    1
    85    38    37    1
    86   139   140    1
    87   139   137   am
    88    39    45   am
    89   136   137    1
    90    57    56    1
    91   140   141    1
    92    45    46    1
    93    53    54    1
    94    53    56    1
    95    53    52    1
    96    46    49    1
    97    46    47    1
    98   137   138    2
    99    54    55    2
   100    58    56    1
   101    49    50    1
   102    35    33    1
   103    20    19   ar
   104     7     6    1
   105   141   142    2
   106    21    19   ar
   107    47    48    2
   108    36    34    1
   109    19    18    1
   110     6     5    1
   111    27    26    1
   112    33    34    1
   113    33    30    1
   114    28    26    1
   115    26    23    1
   116    13    10    1
   117    18    15    1
   118    15    14    1
   119    15    16    1
   120     5     2    1
   121    31    30    1
   122    31    32    2
   123     4     3    2
   124    14    11   am
   125    30    29    1
   126    12    11    2
   127    11    10    1
   128    25    24    2
   129    10     9    1
   130    23    24    1
   131    23    22    1
   132     3     2    1
   133    17    16    2
   134     2     1    1
