@<TRIPOS>MOLECULE
tmp/6awwD02.pdb
 125 114 0 0 0
SMALL
GASTEIGER

@<TRIPOS>ATOM
      1  N         12.3190  -16.7060  -26.5590 N.3    25  ALA25      -0.1231
      2  CA        12.6080  -16.7250  -25.1150 C.3    25  ALA25       0.1694
      3  C         13.3350  -17.9900  -24.6820 C.2    25  ALA25       0.2592
      4  O         14.1560  -17.9200  -23.8080 O.2    25  ALA25      -0.2718
      5  CB        11.3290  -16.5620  -24.3450 C.3    25  ALA25       0.0304
      6  N         13.0480  -19.1280  -25.3220 N.am   26  ASP26      -0.1974
      7  CA        13.7450  -20.3930  -24.9950 C.3    26  ASP26       0.1709
      8  C         15.2520  -20.2850  -25.1260 C.2    26  ASP26       0.2293
      9  O         15.9920  -20.8540  -24.3110 O.2    26  ASP26      -0.2864
     10  CB        13.2770  -21.5510  -25.8720 C.3    26  ASP26       0.1436
     11  CG        11.7680  -21.8170  -25.7670 C.2    26  ASP26       0.3671
     12  OD1       11.1450  -21.1970  -24.8570 O.co2  26  ASP26      -0.2456
     13  OD2       11.2260  -22.6530  -26.5760 O.co2  26  ASP26      -0.2456
     14  N         16.6160  -16.4330  -22.9920 N.3    29  THR29      -0.1218
     15  CA        16.4650  -16.4560  -21.5430 C.3    29  THR29       0.1862
     16  C         17.6830  -17.0790  -20.7760 C.2    29  THR29       0.2287
     17  O         18.1140  -16.4960  -19.7780 O.2    29  THR29      -0.2866
     18  CB        15.0970  -17.1250  -21.2420 C.3    29  THR29       0.1770
     19  OG1       14.0440  -16.3210  -21.8010 O.3    29  THR29      -0.2211
     20  CG2       14.8680  -17.2670  -19.8680 C.3    29  THR29       0.0375
     21  N         19.4770  -14.4580  -18.3770 N.3    33  ILE33      -0.1245
     22  CA        19.1870  -14.6290  -16.9580 C.3    33  ILE33       0.1561
     23  C         20.2050  -15.5920  -16.3610 C.2    33  ILE33       0.2260
     24  O         20.4030  -16.6690  -16.8860 O.2    33  ILE33      -0.2867
     25  CB        17.7650  -15.1610  -16.7520 C.3    33  ILE33       0.0252
     26  CG1       16.7790  -14.3080  -17.5270 C.3    33  ILE33       0.0019
     27  CG2       17.4070  -15.1750  -15.2720 C.3    33  ILE33       0.0019
     28  CD1       15.3170  -14.6060  -17.2580 C.3    33  ILE33       0.0001
     29  N         18.5600  -18.9710  -14.9340 N.3    36  VAL36      -0.1245
     30  CA        17.9700  -19.8790  -15.9130 C.3    36  VAL36       0.1561
     31  C         19.0910  -20.5760  -16.6650 C.2    36  VAL36       0.2260
     32  O         19.9150  -19.9220  -17.2630 O.2    36  VAL36      -0.2867
     33  CB        17.0580  -19.1110  -16.8750 C.3    36  VAL36       0.0252
     34  CG1       16.5400  -20.0540  -17.9500 C.3    36  VAL36       0.0019
     35  CG2       15.9330  -18.4330  -16.1010 C.3    36  VAL36       0.0019
     36  N         16.0900  -24.3270  -21.2930 N.3    39  VAL39      -0.1245
     37  CA        14.6890  -24.4330  -21.5680 C.3    39  VAL39       0.1561
     38  C         14.5810  -25.5160  -22.6270 C.2    39  VAL39       0.2260
     39  O         15.1450  -25.3880  -23.7010 O.2    39  VAL39      -0.2867
     40  CB        14.1090  -23.1160  -22.0900 C.3    39  VAL39       0.0252
     41  CG1       12.6210  -23.2920  -22.3580 C.3    39  VAL39       0.0019
     42  CG2       14.3210  -21.9840  -21.0940 C.3    39  VAL39       0.0019
     43  N          7.1710  -27.1800  -21.8150 N.3    52  LYS52      -0.1245
     44  CA         8.5710  -26.8480  -21.7440 C.3    52  LYS52       0.1561
     45  C          9.0490  -27.0710  -20.3450 C.2    52  LYS52       0.2260
     46  O          8.3210  -26.8310  -19.4010 O.2    52  LYS52      -0.2867
     47  CB         8.8090  -25.3910  -22.0910 C.3    52  LYS52       0.0271
     48  CG         8.3600  -25.0070  -23.4820 C.3    52  LYS52       0.0035
     49  CD         8.5480  -23.5280  -23.7530 C.3    52  LYS52       0.0206
     50  CE         8.2960  -23.2270  -25.2320 C.3    52  LYS52       0.1093
     51  NZ         8.4900  -21.8120  -25.5890 N.3    52  LYS52      -0.1314
     52  N         11.8890  -25.8700  -17.7210 N.3    54  LEU54      -0.1245
     53  CA        12.9250  -24.8970  -17.4130 C.3    54  LEU54       0.1561
     54  C         13.7400  -25.4020  -16.2540 C.2    54  LEU54       0.2260
     55  O         13.2040  -25.7530  -15.2290 O.2    54  LEU54      -0.2867
     56  CB        12.3280  -23.5830  -16.9890 C.3    54  LEU54       0.0270
     57  CG        11.7950  -22.6630  -18.0780 C.3    54  LEU54       0.0019
     58  CD1       10.4620  -23.1200  -18.6470 C.3    54  LEU54       0.0001
     59  CD2       11.6920  -21.2690  -17.4540 C.3    54  LEU54       0.0001
     60  N         16.3660  -24.2070  -13.4830 N.3    56  ILE56      -0.1245
     61  CA        16.7500  -23.0000  -12.7930 C.3    56  ILE56       0.1561
     62  C         17.5640  -23.3760  -11.5530 C.2    56  ILE56       0.2260
     63  O         17.3950  -24.4410  -11.0090 O.2    56  ILE56      -0.2867
     64  CB        15.4610  -22.1990  -12.4370 C.3    56  ILE56       0.0252
     65  CG1       14.8620  -21.7060  -13.7360 C.3    56  ILE56       0.0019
     66  CG2       15.7180  -21.0350  -11.4920 C.3    56  ILE56       0.0019
     67  CD1       13.4630  -21.1810  -13.6240 C.3    56  ILE56       0.0001
     68  N          6.2830  -25.1960  -18.1090 N.3    67  HIS67      -0.1241
     69  CA         5.3980  -24.2430  -18.7670 C.3    67  HIS67       0.1621
     70  C          4.5950  -24.8780  -19.8690 C.2    67  HIS67       0.2264
     71  O          5.0750  -25.7020  -20.5960 O.2    67  HIS67      -0.2867
     72  CB         6.2080  -23.1700  -19.4410 C.3    67  HIS67       0.0745
     73  CG         6.8310  -22.1920  -18.5130 C.ar   67  HIS67       0.0817
     74  ND1        7.9550  -21.4710  -18.8670 N.ar   67  HIS67      -0.2268
     75  CD2        6.5210  -21.8170  -17.2410 C.ar   67  HIS67       0.1154
     76  CE1        8.3080  -20.6980  -17.8550 C.ar   67  HIS67       0.1986
     77  NE2        7.4570  -20.9000  -16.8540 N.ar   67  HIS67      -0.2212
     78  N          2.5440  -23.7880  -23.2240 N.3    69  VAL69      -0.1245
     79  CA         2.2320  -22.7210  -24.1460 C.3    69  VAL69       0.1561
     80  C          0.7260  -22.6560  -24.2760 C.2    69  VAL69       0.2260
     81  O          0.0830  -23.6530  -24.6130 O.2    69  VAL69      -0.2867
     82  CB         2.8220  -22.9880  -25.5340 C.3    69  VAL69       0.0252
     83  CG1        2.4130  -21.8990  -26.4910 C.3    69  VAL69       0.0019
     84  CG2        4.3250  -23.0490  -25.4460 C.3    69  VAL69       0.0019
     85  N          2.2100  -13.4560  -26.4440 N.3    79  TYR79      -0.1241
     86  CA         2.8370  -14.6990  -26.1120 C.3    79  TYR79       0.1605
     87  C          2.3100  -15.0590  -24.7140 C.2    79  TYR79       0.2264
     88  O          2.5400  -14.3290  -23.7440 O.2    79  TYR79      -0.2867
     89  CB         4.3340  -14.5430  -26.1840 C.3    79  TYR79       0.0534
     90  CG         5.1310  -15.7910  -25.9420 C.ar   79  TYR79      -0.0201
     91  CD1        5.5290  -16.6410  -27.0000 C.ar   79  TYR79      -0.0009
     92  CD2        5.6050  -16.0770  -24.6820 C.ar   79  TYR79      -0.0009
     93  CE1        6.3180  -17.7650  -26.7630 C.ar   79  TYR79       0.0417
     94  CE2        6.3990  -17.1780  -24.4390 C.ar   79  TYR79       0.0417
     95  CZ         6.7520  -18.0080  -25.4640 C.ar   79  TYR79       0.1957
     96  OH         7.5240  -19.0950  -25.1630 O.3    79  TYR79      -0.2866
     97  N          1.6740  -18.1690  -21.7150 N.3    81  TYR81      -0.1241
     98  CA         2.0230  -19.4730  -21.2190 C.3    81  TYR81       0.1605
     99  C          1.5770  -19.6480  -19.7740 C.2    81  TYR81       0.2264
    100  O          1.3460  -18.6670  -19.0770 O.2    81  TYR81      -0.2867
    101  CB         3.5200  -19.6730  -21.3660 C.3    81  TYR81       0.0534
    102  CG         4.2730  -18.8220  -20.4610 C.ar   81  TYR81      -0.0201
    103  CD1        4.4320  -19.1880  -19.1380 C.ar   81  TYR81      -0.0009
    104  CD2        4.8100  -17.6150  -20.8940 C.ar   81  TYR81      -0.0009
    105  CE1        5.0920  -18.3540  -18.2240 C.ar   81  TYR81       0.0417
    106  CE2        5.4860  -16.8000  -20.0140 C.ar   81  TYR81       0.0417
    107  CZ         5.6680  -17.1860  -18.7000 C.ar   81  TYR81       0.1957
    108  OH         6.3670  -16.3720  -17.8310 O.3    81  TYR81      -0.2866
    109  N          7.9440  -12.0820  -11.7780 N.3   137  LYS137     -0.1245
    110  CA         8.3240  -13.0220  -12.8430 C.3   137  LYS137      0.1561
    111  C          7.9930  -12.4610  -14.2200 C.2   137  LYS137      0.2260
    112  O          8.7950  -12.5150  -15.1170 O.2   137  LYS137     -0.2867
    113  CB         7.6120  -14.3660  -12.6350 C.3   137  LYS137      0.0271
    114  CG         8.2220  -15.4770  -13.4680 C.3   137  LYS137      0.0035
    115  CD         7.5920  -16.8140  -13.1080 C.3   137  LYS137      0.0206
    116  CE         8.2460  -17.9170  -13.9230 C.3   137  LYS137      0.1093
    117  NZ         8.0410  -17.6940  -15.3390 N.3   137  LYS137     -0.1314
    118  N         10.8530  -11.3770  -17.2170 N.3   141  LEU141     -0.1245
    119  CA        10.9520  -11.9540  -18.5670 C.3   141  LEU141      0.1561
    120  C         10.9590  -10.8180  -19.5730 C.2   141  LEU141      0.2260
    121  O         11.6890  -10.8920  -20.5540 O.2   141  LEU141     -0.2867
    122  CB         9.7910  -12.9150  -18.8500 C.3   141  LEU141      0.0270
    123  CG         9.5380  -13.4210  -20.2920 C.3   141  LEU141      0.0019
    124  CD1       10.7350  -14.2050  -20.8300 C.3   141  LEU141      0.0001
    125  CD2        8.2650  -14.2480  -20.3640 C.3   141  LEU141      0.0001
@<TRIPOS>BOND
     1    91    93   ar
     2    91    90   ar
     3    93    95   ar
     4    13    11   ar
     5     1     2    1
     6    83    82    1
     7    85    86    1
     8    89    86    1
     9    89    90    1
    10    86    87    1
    11    90    92   ar
    12    10    11    1
    13    10     7    1
    14    11    12   ar
    15    51    50    1
    16    82    84    1
    17    82    79    1
    18    95    96    1
    19    95    94   ar
    20     6     7    1
    21     6     3   am
    22    50    49    1
    23     8     7    1
    24     8     9    2
    25     2     3    1
    26     2     5    1
    27    87    88    2
    28    92    94   ar
    29     3     4    2
    30    81    80    2
    31    80    79    1
    32    79    78    1
    33    49    48    1
    34    39    38    2
    35    48    47    1
    36    14    15    1
    37    38    37    1
    38    41    40    1
    39    47    44    1
    40    40    37    1
    41    40    42    1
    42    43    44    1
    43    19    18    1
    44    44    45    1
    45    97    98    1
    46    37    36    1
    47    15    18    1
    48    15    16    1
    49   101    98    1
    50   101   102    1
    51    18    20    1
    52    98    99    1
    53   104   102   ar
    54   104   106   ar
    55   124   123    1
    56    16    17    2
    57    71    70    2
    58   121   120    2
    59   102   103   ar
    60   125   123    1
    61    45    46    2
    62   123   122    1
    63   106   107   ar
    64    70    69    1
    65    99   100    2
    66   120   119    1
    67    72    69    1
    68    72    73    1
    69   103   105   ar
    70    74    73   ar
    71    74    76   ar
    72   122   119    1
    73    69    68    1
    74   107   105   ar
    75   107   108    1
    76    58    57    1
    77   119   118    1
    78    73    75   ar
    79    21    22    1
    80    57    59    1
    81    57    56    1
    82    34    33    1
    83    76    77   ar
    84    52    53    1
    85    26    28    1
    86    26    25    1
    87    53    56    1
    88    53    54    1
    89    32    31    2
    90    75    77   ar
    91    22    25    1
    92    22    23    1
    93    24    23    2
    94    33    35    1
    95    33    30    1
    96    25    27    1
    97    31    30    1
    98    54    55    2
    99    30    29    1
   100   117   116    1
   101   112   111    2
   102   111   110    1
   103   116   115    1
   104    65    67    1
   105    65    64    1
   106    60    61    1
   107   114   115    1
   108   114   113    1
   109   110   113    1
   110   110   109    1
   111    61    64    1
   112    61    62    1
   113    64    66    1
   114    62    63    2
