@<TRIPOS>MOLECULE
tmp/6awwD00.pdb
 99 98 0 0 0
SMALL
GASTEIGER

@<TRIPOS>ATOM
      1  N         -7.9880  -15.7290  -10.2180 N.3     3  PHE3       -0.1227
      2  CA        -7.6310  -14.4410   -9.6630 C.3     3  PHE3        0.1736
      3  C         -6.7540  -13.7060  -10.6520 C.2     3  PHE3        0.2596
      4  O         -5.7520  -14.2310  -11.1060 O.2     3  PHE3       -0.2718
      5  CB        -6.9240  -14.6160   -8.3210 C.3     3  PHE3        0.0547
      6  CG        -7.7850  -15.2790   -7.2800 C.ar    3  PHE3       -0.0202
      7  CD1       -8.0740  -16.6190   -7.3850 C.ar    3  PHE3       -0.0042
      8  CD2       -8.3670  -14.5520   -6.2640 C.ar    3  PHE3       -0.0042
      9  CE1       -8.8950  -17.2360   -6.4560 C.ar    3  PHE3       -0.0003
     10  CE2       -9.1970  -15.1460   -5.3420 C.ar    3  PHE3       -0.0003
     11  CZ        -9.4450  -16.4960   -5.4060 C.ar    3  PHE3       -0.0000
     12  N         -7.0930  -12.4520  -10.9330 N.am    4  THR4       -0.1939
     13  CA        -6.4570  -11.6870  -12.0140 C.3     4  THR4        0.2028
     14  C         -5.7560  -10.4160  -11.5590 C.2     4  THR4        0.2642
     15  O         -6.2850   -9.6800  -10.7980 O.2     4  THR4       -0.2714
     16  CB        -7.5350  -11.3510  -13.0480 C.3     4  THR4        0.1808
     17  OG1       -8.1210  -12.5880  -13.5250 O.3     4  THR4       -0.2208
     18  CG2       -6.9660  -10.6540  -14.2110 C.3     4  THR4        0.0379
     19  N         -4.5600  -10.1600  -12.0790 N.am    5  PHE5       -0.1973
     20  CA        -3.7820   -8.9120  -11.8070 C.3     5  PHE5        0.1639
     21  C         -3.2320   -8.4160  -13.1360 C.2     5  PHE5        0.2290
     22  O         -2.6390   -9.2010  -13.9170 O.2     5  PHE5       -0.2864
     23  CB        -2.6360   -9.1870  -10.8400 C.3     5  PHE5        0.0560
     24  CG        -1.6560   -8.0990  -10.7350 C.ar    5  PHE5       -0.0200
     25  CD1       -2.0380   -6.9020  -10.1220 C.ar    5  PHE5       -0.0042
     26  CD2       -0.3480   -8.2080  -11.2200 C.ar    5  PHE5       -0.0042
     27  CE1       -1.1510   -5.8470  -10.0190 C.ar    5  PHE5       -0.0003
     28  CE2        0.5460   -7.1340  -11.1370 C.ar    5  PHE5       -0.0003
     29  CZ         0.1280   -5.9490  -10.5580 C.ar    5  PHE5       -0.0000
     30  N         -1.8600  -11.4760  -15.2920 N.3   116  LEU116     -0.1245
     31  CA        -1.4950  -12.6250  -14.5220 C.3   116  LEU116      0.1561
     32  C         -2.7390  -13.2600  -14.0320 C.2   116  LEU116      0.2260
     33  O         -3.5060  -12.6260  -13.3570 O.2   116  LEU116     -0.2867
     34  CB        -0.6440  -12.2030  -13.3770 C.3   116  LEU116      0.0270
     35  CG        -0.1620  -13.2200  -12.3590 C.3   116  LEU116      0.0019
     36  CD1        0.7680  -14.1950  -12.9960 C.3   116  LEU116      0.0001
     37  CD2        0.6010  -12.4950  -11.2650 C.3   116  LEU116      0.0001
     38  N         -4.2250  -16.4480  -11.8360 N.3   118  TYR118     -0.1241
     39  CA        -3.9020  -17.4980  -10.9250 C.3   118  TYR118      0.1605
     40  C         -5.1080  -18.4080  -10.8260 C.2   118  TYR118      0.2264
     41  O         -6.1660  -17.9550  -10.4080 O.2   118  TYR118     -0.2867
     42  CB        -3.5550  -16.8540   -9.5950 C.3   118  TYR118      0.0534
     43  CG        -2.6440  -17.6650   -8.7190 C.ar  118  TYR118     -0.0201
     44  CD1       -3.1000  -18.7360   -8.0150 C.ar  118  TYR118     -0.0009
     45  CD2       -1.3150  -17.3380   -8.6540 C.ar  118  TYR118     -0.0009
     46  CE1       -2.1940  -19.4710   -7.2830 C.ar  118  TYR118      0.0417
     47  CE2       -0.4080  -18.0440   -7.9720 C.ar  118  TYR118      0.0417
     48  CZ        -0.8060  -19.0950   -7.2320 C.ar  118  TYR118      0.1957
     49  OH         0.0720  -19.8140   -6.4770 O.3   118  TYR118     -0.2866
     50  N         -7.6330  -19.7710   -2.1530 N.3   125  LYS125     -0.1231
     51  CA        -7.2340  -18.4610   -2.5490 C.3   125  LYS125      0.1678
     52  C         -5.7440  -18.5310   -2.7050 C.2   125  LYS125      0.2434
     53  O         -5.1320  -19.3760   -2.0860 O.2   125  LYS125     -0.2733
     54  CB        -7.6650  -17.4500   -1.5040 C.3   125  LYS125      0.0284
     55  CG        -9.0540  -16.8940   -1.7940 C.3   125  LYS125      0.0035
     56  CD        -9.8710  -16.6880   -0.5460 C.3   125  LYS125      0.0206
     57  CE       -11.3330  -16.8330   -0.9680 C.3   125  LYS125      0.1093
     58  NZ       -12.3860  -17.1030    0.0540 N.3   125  LYS125     -0.1314
     59  N         -5.1470  -17.6430   -3.5140 N.am  126  PRO126     -0.2718
     60  CA        -3.6920  -17.7320   -3.6750 C.3   126  PRO126      0.1535
     61  C         -2.8500  -17.5780   -2.4240 C.2   126  PRO126      0.2599
     62  O         -3.1420  -16.7620   -1.5490 O.2   126  PRO126     -0.2715
     63  CB        -3.3740  -16.5730   -4.6310 C.3   126  PRO126      0.0310
     64  CG        -4.6590  -16.3240   -5.3630 C.3   126  PRO126      0.0237
     65  CD        -5.7510  -16.6340   -4.4240 C.3   126  PRO126      0.0939
     66  N         -1.7740  -18.3500   -2.3830 N.am  127  ASP127     -0.1958
     67  CA        -0.8420  -18.3170   -1.2630 C.3   127  ASP127      0.1840
     68  C         -0.4110  -16.8780   -1.1130 C.2   127  ASP127      0.2621
     69  O         -0.4220  -16.1180   -2.0720 O.2   127  ASP127     -0.2715
     70  CB         0.4040  -19.1860   -1.5110 C.3   127  ASP127      0.1450
     71  CG         0.1810  -20.6760   -1.2280 C.2   127  ASP127      0.3671
     72  OD1       -0.9530  -21.1180   -0.9630 O.co2 127  ASP127     -0.2456
     73  OD2        1.1790  -21.4080   -1.2370 O.co2 127  ASP127     -0.2456
     74  N          0.0400  -16.5370    0.0770 N.am  128  GLU128     -0.1977
     75  CA         0.3020  -15.1390    0.4250 C.3   128  GLU128      0.1602
     76  C          1.2970  -14.3020   -0.4380 C.2   128  GLU128      0.2287
     77  O          1.0200  -13.1360   -0.7410 O.2   128  GLU128     -0.2864
     78  CB         0.6870  -15.0480    1.9000 C.3   128  GLU128      0.0415
     79  CG        -0.5660  -15.1640    2.7620 C.3   128  GLU128      0.1163
     80  CD        -1.5690  -14.0440    2.4690 C.2   128  GLU128      0.3649
     81  OE1       -1.1490  -12.8530    2.3820 O.co2 128  GLU128     -0.2457
     82  OE2       -2.7670  -14.3640    2.2710 O.co2 128  GLU128     -0.2457
     83  N          2.2640  -14.9820   -3.5890 N.3   130  GLU130     -0.1231
     84  CA         2.2040  -15.3910   -4.9950 C.3   130  GLU130      0.1699
     85  C          2.0500  -14.2290   -5.9590 C.2   130  GLU130      0.2592
     86  O          2.6420  -14.2320   -7.0160 O.2   130  GLU130     -0.2718
     87  CB         1.1000  -16.4220   -5.2080 C.3   130  GLU130      0.0402
     88  CG         1.4460  -17.7460   -4.5970 C.3   130  GLU130      0.1161
     89  CD         2.5760  -18.4870   -5.2640 C.2   130  GLU130      0.3649
     90  OE1        2.3800  -18.8860   -6.3930 O.co2 130  GLU130     -0.2457
     91  OE2        3.6630  -18.6620   -4.6360 O.co2 130  GLU130     -0.2457
     92  N          1.2380  -13.2480   -5.5790 N.am  131  LEU131     -0.1980
     93  CA         1.0410  -12.0610   -6.3740 C.3   131  LEU131      0.1596
     94  C          2.3580  -11.3730   -6.5850 C.2   131  LEU131      0.2287
     95  O          2.7550  -11.0380   -7.6690 O.2   131  LEU131     -0.2864
     96  CB         0.0580  -11.1310   -5.6940 C.3   131  LEU131      0.0297
     97  CG        -0.2080   -9.8000   -6.4180 C.3   131  LEU131      0.0022
     98  CD1       -0.7730  -10.0380   -7.8010 C.3   131  LEU131      0.0001
     99  CD2       -1.1250   -8.9370   -5.5700 C.3   131  LEU131      0.0001
@<TRIPOS>BOND
     1    30    31    1
     2    31    32    1
     3    31    34    1
     4    18    16    1
     5    32    33    2
     6    22    21    2
     7    17    16    1
     8    34    35    1
     9    21    20    1
    10    16    13    1
    11    36    35    1
    12    35    37    1
    13    19    20    1
    14    19    14   am
    15    13    14    1
    16    13    12    1
    17    38    39    1
    18    20    23    1
    19    14    15    2
    20    26    28   ar
    21    26    24   ar
    22    28    29   ar
    23     4     3    2
    24    12     3   am
    25    39    40    1
    26    39    42    1
    27    23    24    1
    28    40    41    2
    29    24    25   ar
    30     3     2    1
    31    29    27   ar
    32     1     2    1
    33    25    27   ar
    34     2     5    1
    35    42    43    1
    36    43    45   ar
    37    43    44   ar
    38    45    47   ar
    39     5     6    1
    40    44    46   ar
    41    47    48   ar
    42    98    97    1
    43    95    94    2
    44     7     6   ar
    45     7     9   ar
    46    46    48   ar
    47     6     8   ar
    48    48    49    1
    49    86    85    2
    50    94    93    1
    51     9    11   ar
    52    97    96    1
    53    97    99    1
    54    90    89   ar
    55    93    96    1
    56    93    92    1
    57     8    10   ar
    58    85    92   am
    59    85    84    1
    60    11    10   ar
    61    64    63    1
    62    64    65    1
    63    89    91   ar
    64    89    88    1
    65    87    84    1
    66    87    88    1
    67    84    83    1
    68    63    60    1
    69    65    59    1
    70    60    59    1
    71    60    61    1
    72    59    52   am
    73    52    51    1
    74    52    53    2
    75    51    50    1
    76    51    54    1
    77    61    66   am
    78    61    62    2
    79    66    67    1
    80    69    68    2
    81    55    54    1
    82    55    56    1
    83    70    67    1
    84    70    71    1
    85    67    68    1
    86    73    71   ar
    87    71    72   ar
    88    68    74   am
    89    57    56    1
    90    57    58    1
    91    77    76    2
    92    76    75    1
    93    74    75    1
    94    75    78    1
    95    78    79    1
    96    82    80   ar
    97    81    80   ar
    98    80    79    1
