@<TRIPOS>MOLECULE
tmp/6awzB00.pdb
 119 109 0 0 0
SMALL
GASTEIGER

@<TRIPOS>ATOM
      1  N         -5.1500    5.5540  -20.7620 N.3    29  THR29      -0.1218
      2  CA        -3.9530    6.4220  -21.0240 C.3    29  THR29       0.1862
      3  C         -2.8990    6.3580  -19.9170 C.2    29  THR29       0.2287
      4  O         -1.7260    6.2790  -20.2300 O.2    29  THR29      -0.2866
      5  CB        -4.2690    7.8980  -21.4000 C.3    29  THR29       0.1770
      6  OG1       -4.9010    8.5310  -20.3470 O.3    29  THR29      -0.2211
      7  CG2       -5.2140    7.9730  -22.5530 C.3    29  THR29       0.0375
      8  N          0.6350    5.1710  -21.5180 N.3    33  ILE33      -0.1245
      9  CA         1.5500    6.3020  -21.5890 C.3    33  ILE33       0.1561
     10  C          2.2650    6.3970  -20.2400 C.2    33  ILE33       0.2260
     11  O          1.6720    6.7270  -19.2060 O.2    33  ILE33      -0.2867
     12  CB         0.8500    7.6680  -21.8940 C.3    33  ILE33       0.0252
     13  CG1       -0.1190    7.6440  -23.1020 C.3    33  ILE33       0.0019
     14  CG2        1.9830    8.7130  -22.0500 C.3    33  ILE33       0.0019
     15  CD1        0.5890    7.2150  -24.3710 C.3    33  ILE33       0.0001
     16  N          4.4490    8.5010  -18.9420 N.3    35  ASP35      -0.1225
     17  CA         4.4440    9.8270  -18.3390 C.3    35  ASP35       0.1805
     18  C          3.0960   10.2640  -17.7910 C.2    35  ASP35       0.2597
     19  O          3.0750   11.1650  -16.9760 O.2    35  ASP35      -0.2718
     20  CB         4.9340   10.8730  -19.3450 C.3    35  ASP35       0.1424
     21  CG         6.4070   10.7360  -19.6680 C.2    35  ASP35       0.3668
     22  OD1        7.1410    9.9650  -18.9730 O.co2  35  ASP35      -0.2456
     23  OD2        6.8190   11.4190  -20.6420 O.co2  35  ASP35      -0.2456
     24  N          1.9920    9.6440  -18.2280 N.am   36  VAL36      -0.1980
     25  CA         0.6730    9.9860  -17.6770 C.3    36  VAL36       0.1595
     26  C          0.4870    9.1510  -16.4300 C.2    36  VAL36       0.2287
     27  O          0.4360    7.9150  -16.5210 O.2    36  VAL36      -0.2864
     28  CB        -0.4710    9.6880  -18.6420 C.3    36  VAL36       0.0276
     29  CG1       -1.8290    9.9330  -17.9910 C.3    36  VAL36       0.0022
     30  CG2       -0.3340   10.5900  -19.8290 C.3    36  VAL36       0.0022
     31  N         -5.1530   15.9130  -16.0260 N.3    54  LEU54      -0.1245
     32  CA        -4.2040   14.8320  -16.2080 C.3    54  LEU54       0.1561
     33  C         -2.9780   15.1740  -15.3830 C.2    54  LEU54       0.2260
     34  O         -2.4490   16.2780  -15.5020 O.2    54  LEU54      -0.2867
     35  CB        -3.7560   14.7090  -17.6460 C.3    54  LEU54       0.0270
     36  CG        -4.7190   13.9390  -18.5660 C.3    54  LEU54       0.0019
     37  CD1       -6.0130   14.7550  -18.7270 C.3    54  LEU54       0.0001
     38  CD2       -4.0590   13.6520  -19.9070 C.3    54  LEU54       0.0001
     39  N          0.8490   14.3570  -15.0800 N.3    56  ILE56      -0.1231
     40  CA         1.9440   13.7990  -15.8570 C.3    56  ILE56       0.1692
     41  C          3.2810   14.0930  -15.2130 C.2    56  ILE56       0.2591
     42  O          3.3870   14.9530  -14.3380 O.2    56  ILE56      -0.2718
     43  CB         1.9740   14.3250  -17.3140 C.3    56  ILE56       0.0266
     44  CG1        2.5910   15.7420  -17.4270 C.3    56  ILE56       0.0019
     45  CG2        0.5810   14.2820  -17.9150 C.3    56  ILE56       0.0020
     46  CD1        2.8480   16.2240  -18.8540 C.3    56  ILE56       0.0001
     47  N          4.3000   13.3930  -15.6990 N.am   57  VAL57      -0.1980
     48  CA         5.6900   13.7520  -15.4190 C.3    57  VAL57       0.1595
     49  C          6.2720   14.3070  -16.7180 C.2    57  VAL57       0.2287
     50  O          6.1110   13.7300  -17.8030 O.2    57  VAL57      -0.2864
     51  CB         6.5640   12.6400  -14.8440 C.3    57  VAL57       0.0276
     52  CG1        6.0790   12.2140  -13.4560 C.3    57  VAL57       0.0022
     53  CG2        6.6200   11.4630  -15.7900 C.3    57  VAL57       0.0022
     54  N         -2.0880   18.8590  -17.0540 N.3    65  ILE65      -0.1245
     55  CA        -2.7820   19.2420  -18.2490 C.3    65  ILE65       0.1561
     56  C         -4.2750   19.1670  -17.9730 C.2    65  ILE65       0.2260
     57  O         -4.7370   18.2700  -17.2600 O.2    65  ILE65      -0.2867
     58  CB        -2.4800   18.2890  -19.4160 C.3    65  ILE65       0.0252
     59  CG1       -0.9850   18.2860  -19.6740 C.3    65  ILE65       0.0019
     60  CG2       -3.2020   18.7250  -20.6940 C.3    65  ILE65       0.0019
     61  CD1       -0.5820   17.1550  -20.6090 C.3    65  ILE65       0.0001
     62  N         -8.0390   19.0690  -19.6110 N.3    67  HIS67      -0.1241
     63  CA        -8.8650   18.7930  -20.7770 C.3    67  HIS67       0.1621
     64  C        -10.2930   19.1840  -20.4890 C.2    67  HIS67       0.2264
     65  O        -10.7530   19.1550  -19.3280 O.2    67  HIS67      -0.2867
     66  CB        -8.8840   17.3140  -21.1250 C.3    67  HIS67       0.0745
     67  CG        -7.6240   16.7900  -21.7230 C.ar   67  HIS67       0.0817
     68  ND1       -7.4720   15.4640  -22.0460 N.ar   67  HIS67      -0.2268
     69  CD2       -6.4440   17.3860  -22.0130 C.ar   67  HIS67       0.1154
     70  CE1       -6.2580   15.2710  -22.5340 C.ar   67  HIS67       0.1986
     71  NE2       -5.6110   16.4190  -22.5080 N.ar   67  HIS67      -0.2212
     72  N        -12.1930   16.4770  -27.6080 N.3    81  TYR81      -0.1241
     73  CA       -11.7350   17.1070  -26.3670 C.3    81  TYR81       0.1605
     74  C        -10.7540   18.2370  -26.6610 C.2    81  TYR81       0.2264
     75  O        -10.1130   18.2580  -27.7340 O.2    81  TYR81      -0.2867
     76  CB       -11.1110   16.0580  -25.4110 C.3    81  TYR81       0.0534
     77  CG        -9.7720   15.6180  -25.8300 C.ar   81  TYR81      -0.0201
     78  CD1       -9.6290   14.5930  -26.7840 C.ar   81  TYR81      -0.0009
     79  CD2       -8.6310   16.2220  -25.3230 C.ar   81  TYR81      -0.0009
     80  CE1       -8.3930   14.2220  -27.2220 C.ar   81  TYR81       0.0417
     81  CE2       -7.3690   15.8350  -25.7620 C.ar   81  TYR81       0.0417
     82  CZ        -7.2710   14.8310  -26.7110 C.ar   81  TYR81       0.1957
     83  OH        -6.0370   14.4070  -27.1290 O.3    81  TYR81      -0.2866
     84  N          0.6710   21.6550  -21.6860 N.3    88  ALA88      -0.1245
     85  CA         0.4610   21.2800  -23.0640 C.3    88  ALA88       0.1562
     86  C         -0.2400   22.3860  -23.8010 C.2    88  ALA88       0.2260
     87  O         -0.4320   22.3000  -25.0030 O.2    88  ALA88      -0.2867
     88  CB        -0.3530   20.0040  -23.1540 C.3    88  ALA88       0.0290
     89  N          1.1620   15.5300  -33.8760 N.3   136  ALA136     -0.1231
     90  CA         1.7240   14.3120  -33.3230 C.3   136  ALA136      0.1694
     91  C          0.8810   13.7780  -32.1510 C.2   136  ALA136      0.2591
     92  O          0.7320   12.5690  -31.9840 O.2   136  ALA136     -0.2718
     93  CB         3.1850   14.5460  -32.8950 C.3   136  ALA136      0.0304
     94  N          0.3850   14.6760  -31.3070 N.am  137  LYS137     -0.1980
     95  CA        -0.3980   14.2890  -30.1840 C.3   137  LYS137      0.1596
     96  C         -1.6870   13.6570  -30.6820 C.2   137  LYS137      0.2287
     97  O         -2.1630   12.6900  -30.0960 O.2   137  LYS137     -0.2864
     98  CB        -0.6940   15.4850  -29.2390 C.3   137  LYS137      0.0298
     99  CG        -1.6070   15.1590  -28.0350 C.3   137  LYS137      0.0038
    100  CD        -1.7710   16.3340  -27.0030 C.3   137  LYS137      0.0206
    101  CE        -2.8220   16.1010  -25.8950 C.3   137  LYS137      0.1093
    102  NZ        -2.5730   16.6720  -24.4960 N.3   137  LYS137     -0.1314
    103  N         -0.9190   10.3790  -32.2130 N.3   140  GLY140     -0.1210
    104  CA        -0.2910    9.5070  -31.1700 C.3   140  GLY140      0.1956
    105  C         -1.3340    8.9080  -30.2700 C.2   140  GLY140      0.2611
    106  O         -1.2400    7.7470  -29.9180 O.2   140  GLY140     -0.2717
    107  N         -2.3400    9.6950  -29.8730 N.am  141  LEU141     -0.1979
    108  CA        -3.3200    9.2260  -28.9320 C.3   141  LEU141      0.1596
    109  C         -4.1530    8.1930  -29.6560 C.2   141  LEU141      0.2287
    110  O         -4.4660    7.1450  -29.0660 O.2   141  LEU141     -0.2864
    111  CB        -4.1880   10.3290  -28.3700 C.3   141  LEU141      0.0297
    112  CG        -5.4330    9.8140  -27.5900 C.3   141  LEU141      0.0022
    113  CD1       -5.0520    9.1750  -26.2530 C.3   141  LEU141      0.0001
    114  CD2       -6.4730   10.8790  -27.3470 C.3   141  LEU141      0.0001
    115  N         -2.2170    5.0320  -29.8760 N.3   144  ALA144     -0.1245
    116  CA        -2.0780    4.4390  -28.5360 C.3   144  ALA144      0.1562
    117  C         -3.2980    3.6640  -28.1320 C.2   144  ALA144      0.2260
    118  O         -3.1910    2.5540  -27.6380 O.2   144  ALA144     -0.2867
    119  CB        -1.8050    5.5310  -27.5380 C.3   144  ALA144      0.0290
@<TRIPOS>BOND
     1    89    90    1
     2    90    93    1
     3    90    91    1
     4   103   104    1
     5    91    92    2
     6    91    94   am
     7    94    95    1
     8   104   105    1
     9    96    95    1
    10    96    97    2
    11   105   106    2
    12   105   107   am
    13    95    98    1
    14   115   116    1
    15   107   108    1
    16   109   110    2
    17   109   108    1
    18    98    99    1
    19   108   111    1
    20   116   117    1
    21   116   119    1
    22   111   112    1
    23   117   118    2
    24    99   100    1
    25    75    74    2
    26    72    73    1
    27   112   114    1
    28   112   113    1
    29    80    78   ar
    30    80    82   ar
    31    83    82    1
    32   100   101    1
    33    78    77   ar
    34    82    81   ar
    35    74    73    1
    36    73    76    1
    37   101   102    1
    38    77    76    1
    39    77    79   ar
    40    81    79   ar
    41    87    86    2
    42    15    13    1
    43    86    85    1
    44    88    85    1
    45    13    12    1
    46    85    84    1
    47     7     5    1
    48    70    71   ar
    49    70    68   ar
    50    71    69   ar
    51    14    12    1
    52    68    67   ar
    53    69    67   ar
    54    12     9    1
    55    67    66    1
    56     9     8    1
    57     9    10    1
    58     5     2    1
    59     5     6    1
    60    66    63    1
    61     2     1    1
    62     2     3    1
    63    63    64    1
    64    63    62    1
    65    60    58    1
    66    23    21   ar
    67    61    59    1
    68    64    65    2
    69    10    11    2
    70     4     3    2
    71    38    36    1
    72    30    28    1
    73    59    58    1
    74    21    20    1
    75    21    22   ar
    76    58    55    1
    77    20    17    1
    78    16    17    1
    79    46    44    1
    80    37    36    1
    81    28    29    1
    82    28    25    1
    83    36    35    1
    84    17    18    1
    85    55    56    1
    86    55    54    1
    87    24    18   am
    88    24    25    1
    89    56    57    2
    90    45    43    1
    91    50    49    2
    92    18    19    2
    93    25    26    1
    94    35    32    1
    95    44    43    1
    96    43    40    1
    97    49    48    1
    98    27    26    2
    99    32    31    1
   100    32    33    1
   101    40    41    1
   102    40    39    1
   103    53    51    1
   104    47    48    1
   105    47    41   am
   106    34    33    2
   107    48    51    1
   108    41    42    2
   109    51    52    1
