@<TRIPOS>MOLECULE
tmp/6ax0B00.pdb
 150 137 0 0 0
SMALL
GASTEIGER

@<TRIPOS>ATOM
      1  N         13.4750   19.8950   -1.0870 N.3    25  ALA25      -0.1231
      2  CA        12.6350   20.5140   -0.0940 C.3    25  ALA25       0.1694
      3  C         11.2600   20.8930   -0.5970 C.2    25  ALA25       0.2592
      4  O         10.2680   20.7770    0.1540 O.2    25  ALA25      -0.2718
      5  CB        13.3240   21.7370    0.4770 C.3    25  ALA25       0.0304
      6  N         11.1860   21.3360   -1.8340 N.am   26  ASP26      -0.1974
      7  CA         9.8810   21.6540   -2.4380 C.3    26  ASP26       0.1709
      8  C          8.9440   20.4650   -2.4470 C.2    26  ASP26       0.2293
      9  O          7.7520   20.6180   -2.1980 O.2    26  ASP26      -0.2864
     10  CB         9.9850   22.1720   -3.8820 C.3    26  ASP26       0.1436
     11  CG        10.9390   23.3620   -4.0220 C.2    26  ASP26       0.3671
     12  OD1       11.5500   23.7560   -3.0070 O.co2  26  ASP26      -0.2456
     13  OD2       11.1120   23.8690   -5.1480 O.co2  26  ASP26      -0.2456
     14  N          8.5220   19.1060    1.8700 N.3    29  THR29      -0.1218
     15  CA         7.8200   19.8780    2.8790 C.3    29  THR29       0.1862
     16  C          6.2910   19.8390    2.8470 C.2    29  THR29       0.2287
     17  O          5.6650   19.8570    3.8980 O.2    29  THR29      -0.2866
     18  CB         8.2870   21.3530    2.9390 C.3    29  THR29       0.1770
     19  OG1        8.1110   22.0100    1.6980 O.3    29  THR29      -0.2211
     20  CG2        9.7180   21.3900    3.3370 C.3    29  THR29       0.0375
     21  N          4.9060   18.7630    6.4840 N.3    33  ILE33      -0.1245
     22  CA         4.3810   19.8310    7.3120 C.3    33  ILE33       0.1561
     23  C          2.9400   20.0170    6.8930 C.2    33  ILE33       0.2260
     24  O          2.6690   20.3590    5.7470 O.2    33  ILE33      -0.2867
     25  CB         5.2150   21.1000    7.1320 C.3    33  ILE33       0.0252
     26  CG1        6.6900   20.6860    7.0640 C.3    33  ILE33       0.0019
     27  CG2        4.8800   22.1450    8.2080 C.3    33  ILE33       0.0019
     28  CD1        7.6070   21.8140    6.9680 C.3    33  ILE33       0.0001
     29  N          0.9540   22.3750    7.6880 N.3    35  ASP35      -0.1225
     30  CA         0.7510   23.7820    7.2850 C.3    35  ASP35       0.1805
     31  C          1.2740   24.2060    5.8900 C.2    35  ASP35       0.2597
     32  O          0.9300   25.2830    5.4290 O.2    35  ASP35      -0.2718
     33  CB         1.3610   24.7420    8.3040 C.3    35  ASP35       0.1424
     34  CG         0.5270   24.8940    9.5650 C.2    35  ASP35       0.3668
     35  OD1       -0.4880   24.1640    9.7890 O.co2  35  ASP35      -0.2456
     36  OD2        0.9360   25.7190   10.3870 O.co2  35  ASP35      -0.2456
     37  N          2.1070   23.3820    5.2440 N.am   36  VAL36      -0.1980
     38  CA         2.5930   23.7080    3.9250 C.3    36  VAL36       0.1595
     39  C          1.7350   23.0630    2.8720 C.2    36  VAL36       0.2287
     40  O          1.8170   21.8680    2.7150 O.2    36  VAL36      -0.2864
     41  CB         4.0570   23.2740    3.7240 C.3    36  VAL36       0.0276
     42  CG1        4.5200   23.6020    2.3080 C.3    36  VAL36       0.0022
     43  CG2        4.9810   23.9970    4.7100 C.3    36  VAL36       0.0022
     44  N          4.3620   24.3010   -3.0570 N.3    39  VAL39      -0.1245
     45  CA         5.5480   25.0270   -3.4910 C.3    39  VAL39       0.1561
     46  C          5.6340   24.9540   -5.0060 C.2    39  VAL39       0.2260
     47  O          5.7150   23.8530   -5.5690 O.2    39  VAL39      -0.2867
     48  CB         6.8770   24.4650   -2.9250 C.3    39  VAL39       0.0252
     49  CG1        8.0280   25.3600   -3.3640 C.3    39  VAL39       0.0019
     50  CG2        6.8750   24.3440   -1.3870 C.3    39  VAL39       0.0019
     51  N         10.0040   31.4010   -6.0980 N.3    52  LYS52      -0.1245
     52  CA         8.9580   30.4200   -5.7650 C.3    52  LYS52       0.1561
     53  C          7.8640   31.0510   -4.9010 C.2    52  LYS52       0.2260
     54  O          8.1490   31.9280   -4.0820 O.2    52  LYS52      -0.2867
     55  CB         9.5120   29.2380   -4.9960 C.3    52  LYS52       0.0271
     56  CG        10.6750   28.5420   -5.6310 C.3    52  LYS52       0.0035
     57  CD        11.2440   27.4540   -4.7170 C.3    52  LYS52       0.0206
     58  CE        12.5460   26.9150   -5.2930 C.3    52  LYS52       0.1093
     59  NZ        13.2030   25.8460   -4.4760 N.3    52  LYS52      -0.1314
     60  N          4.6520   30.0520   -2.2310 N.3    54  LEU54      -0.1245
     61  CA         4.2890   29.0070   -1.2550 C.3    54  LEU54       0.1561
     62  C          2.9720   29.3410   -0.6120 C.2    54  LEU54       0.2260
     63  O          2.7510   30.4720   -0.2040 O.2    54  LEU54      -0.2867
     64  CB         5.3330   28.9060   -0.1190 C.3    54  LEU54       0.0270
     65  CG         6.6900   28.3070   -0.4940 C.3    54  LEU54       0.0019
     66  CD1        7.5490   29.3450   -1.1910 C.3    54  LEU54       0.0001
     67  CD2        7.4220   27.7610    0.7310 C.3    54  LEU54       0.0001
     68  N          0.6970   28.5190    2.4950 N.3    56  ILE56      -0.1245
     69  CA         0.9220   28.1100    3.8710 C.3    56  ILE56       0.1561
     70  C         -0.3370   28.4860    4.6660 C.2    56  ILE56       0.2260
     71  O         -1.0890   29.3790    4.2590 O.2    56  ILE56      -0.2867
     72  CB         2.1270   28.9060    4.4270 C.3    56  ILE56       0.0252
     73  CG1        3.3960   28.6590    3.5820 C.3    56  ILE56       0.0019
     74  CG2        2.4380   28.6470    5.8860 C.3    56  ILE56       0.0019
     75  CD1        3.8350   27.2350    3.4580 C.3    56  ILE56       0.0001
     76  N          3.8670   32.9600    0.7180 N.3    65  ILE65      -0.1245
     77  CA         5.2660   33.2790    0.9730 C.3    65  ILE65       0.1561
     78  C          6.0780   33.2800   -0.3290 C.2    65  ILE65       0.2260
     79  O          5.9680   32.3620   -1.1350 O.2    65  ILE65      -0.2867
     80  CB         5.8670   32.2930    1.9770 C.3    65  ILE65       0.0252
     81  CG1        5.2940   32.5630    3.3760 C.3    65  ILE65       0.0019
     82  CG2        7.3840   32.4150    2.0340 C.3    65  ILE65       0.0019
     83  CD1        5.6450   31.4990    4.4210 C.3    65  ILE65       0.0001
     84  N          9.7760   32.9850   -2.0270 N.3    67  HIS67      -0.1241
     85  CA        11.1880   32.6240   -1.8970 C.3    67  HIS67       0.1621
     86  C         11.9950   32.9930   -3.1630 C.2    67  HIS67       0.2264
     87  O         11.4730   32.9910   -4.2580 O.2    67  HIS67      -0.2867
     88  CB        11.3750   31.1230   -1.5920 C.3    67  HIS67       0.0745
     89  CG        11.0490   30.7390   -0.1820 C.ar   67  HIS67       0.0817
     90  ND1       11.3050   29.4830    0.3300 N.ar   67  HIS67      -0.2268
     91  CD2       10.4520   31.4330    0.8150 C.ar   67  HIS67       0.1154
     92  CE1       10.8860   29.4280    1.5790 C.ar   67  HIS67       0.1986
     93  NE2       10.3840   30.6050    1.9030 N.ar   67  HIS67      -0.2212
     94  N         22.9690   25.2550    0.6910 N.3    79  TYR79      -0.1241
     95  CA        21.6880   25.6010    0.0680 C.3    79  TYR79       0.1605
     96  C         21.2720   26.8940    0.7510 C.2    79  TYR79       0.2264
     97  O         21.1010   26.9250    1.9710 O.2    79  TYR79      -0.2867
     98  CB        20.6110   24.5150    0.2590 C.3    79  TYR79       0.0534
     99  CG        19.3620   24.8390   -0.5210 C.ar   79  TYR79      -0.0201
    100  CD1       18.3600   25.6090    0.0370 C.ar   79  TYR79      -0.0009
    101  CD2       19.1990   24.4070   -1.8370 C.ar   79  TYR79      -0.0009
    102  CE1       17.2220   25.9370   -0.6850 C.ar   79  TYR79       0.0417
    103  CE2       18.0690   24.7230   -2.5660 C.ar   79  TYR79       0.0417
    104  CZ        17.0910   25.5120   -1.9960 C.ar   79  TYR79       0.1957
    105  OH        15.9620   25.8500   -2.7120 O.3    79  TYR79      -0.2866
    106  N         18.5650   30.2770    0.5160 N.3    81  TYR81      -0.1241
    107  CA        17.3980   30.9280   -0.0660 C.3    81  TYR81       0.1605
    108  C         16.9910   32.0640    0.8180 C.2    81  TYR81       0.2264
    109  O         17.4180   32.1800    1.9550 O.2    81  TYR81      -0.2867
    110  CB        16.2300   29.9750   -0.2300 C.3    81  TYR81       0.0534
    111  CG        15.7180   29.4810    1.0830 C.ar   81  TYR81      -0.0201
    112  CD1       16.3750   28.4700    1.7520 C.ar   81  TYR81      -0.0009
    113  CD2       14.6000   30.0520    1.6780 C.ar   81  TYR81      -0.0009
    114  CE1       15.9410   28.0310    2.9720 C.ar   81  TYR81       0.0417
    115  CE2       14.1550   29.6160    2.9220 C.ar   81  TYR81       0.0417
    116  CZ        14.8550   28.6140    3.5610 C.ar   81  TYR81       0.1957
    117  OH        14.4690   28.1850    4.8000 O.3    81  TYR81      -0.2866
    118  N         13.6280   34.8560    1.8880 N.3    83  VAL83      -0.1245
    119  CA        12.2150   35.2250    1.8550 C.3    83  VAL83       0.1561
    120  C         12.1320   36.6930    1.3430 C.2    83  VAL83       0.2260
    121  O         12.6760   37.5770    1.9750 O.2    83  VAL83      -0.2867
    122  CB        11.5650   35.0640    3.2370 C.3    83  VAL83       0.0252
    123  CG1       10.2620   35.8150    3.3550 C.3    83  VAL83       0.0019
    124  CG2       11.2870   33.5990    3.5070 C.3    83  VAL83       0.0019
    125  N         12.3540   28.9010   12.0600 N.3   137  LYS137     -0.1245
    126  CA        12.1820   28.4870   10.6510 C.3   137  LYS137      0.1561
    127  C         13.4430   27.7200   10.1530 C.2   137  LYS137      0.2260
    128  O         13.3370   26.7730    9.3920 O.2   137  LYS137     -0.2867
    129  CB        11.9510   29.7260    9.7880 C.3   137  LYS137      0.0271
    130  CG        11.0090   29.5640    8.6190 C.3   137  LYS137      0.0035
    131  CD         9.6000   29.2160    9.0630 C.3   137  LYS137      0.0206
    132  CE         8.6120   29.4550    7.9550 C.3   137  LYS137      0.1093
    133  NZ         7.2160   29.4700    8.4930 N.3   137  LYS137     -0.1314
    134  N         13.7620   24.3860   12.0530 N.3   140  GLY140     -0.1210
    135  CA        12.5540   23.6220   11.7210 C.3   140  GLY140      0.1956
    136  C         12.7040   22.8830   10.3990 C.2   140  GLY140      0.2611
    137  O         12.3960   21.6980   10.2930 O.2   140  GLY140     -0.2717
    138  N         13.1880   23.5980    9.3930 N.am  141  LEU141     -0.1979
    139  CA        13.3850   22.9940    8.0870 C.3   141  LEU141      0.1596
    140  C         14.4290   21.8690    8.1870 C.2   141  LEU141      0.2287
    141  O         14.1870   20.7480    7.7210 O.2   141  LEU141     -0.2864
    142  CB        13.8270   24.0200    7.0520 C.3   141  LEU141      0.0297
    143  CG        14.2970   23.3950    5.6970 C.3   141  LEU141      0.0022
    144  CD1       13.0830   22.8520    4.9570 C.3   141  LEU141      0.0001
    145  CD2       15.0490   24.3650    4.8130 C.3   141  LEU141      0.0001
    146  N         12.9540   19.0940    9.8020 N.3   144  ALA144     -0.1245
    147  CA        11.9520   18.4140    8.9850 C.3   144  ALA144      0.1562
    148  C         12.6390   17.5180    7.8950 C.2   144  ALA144      0.2260
    149  O         12.3340   16.3160    7.8040 O.2   144  ALA144     -0.2867
    150  CB        11.0340   19.4350    8.3420 C.3   144  ALA144      0.0290
@<TRIPOS>BOND
     1    51    52    1
     2    52    55    1
     3    52    53    1
     4    56    55    1
     5    56    57    1
     6    47    46    2
     7    58    57    1
     8    58    59    1
     9    13    11   ar
    10    46    45    1
    11    53    54    2
    12    87    86    2
    13    11    10    1
    14    11    12   ar
    15    10     7    1
    16    45    44    1
    17    45    48    1
    18    49    48    1
    19    86    85    1
    20    48    50    1
    21   105   104    1
    22   103   104   ar
    23   103   101   ar
    24     8     7    1
    25     8     9    2
    26     7     6    1
    27    60    61    1
    28    84    85    1
    29   104   102   ar
    30    85    88    1
    31   101    99   ar
    32     6     3   am
    33    88    89    1
    34    61    62    1
    35    61    64    1
    36    66    65    1
    37    79    78    2
    38     1     2    1
    39   102   100   ar
    40    62    63    2
    41     3     2    1
    42     3     4    2
    43    99   100   ar
    44    99    98    1
    45    65    64    1
    46    65    67    1
    47    78    77    1
    48   110   107    1
    49   110   111    1
    50    89    90   ar
    51    89    91   ar
    52     2     5    1
    53   107   106    1
    54   107   108    1
    55    95    98    1
    56    95    94    1
    57    95    96    1
    58    90    92   ar
    59    76    77    1
    60    96    97    2
    61    91    93   ar
    62   108   109    2
    63    77    80    1
    64   111   113   ar
    65   111   112   ar
    66   120   119    1
    67   120   121    2
    68    92    93   ar
    69   113   115   ar
    70    19    18    1
    71   112   114   ar
    72   119   118    1
    73   119   122    1
    74    14    15    1
    75    80    82    1
    76    80    81    1
    77    42    41    1
    78    68    69    1
    79    40    39    2
    80    16    15    1
    81    16    17    2
    82    39    38    1
    83    15    18    1
    84   115   116   ar
    85    18    20    1
    86   114   116   ar
    87   122   123    1
    88   122   124    1
    89    81    83    1
    90    75    73    1
    91   116   117    1
    92    73    72    1
    93    41    38    1
    94    41    43    1
    95    69    72    1
    96    69    70    1
    97    38    37    1
    98    71    70    2
    99    72    74    1
   100   145   143    1
   101   144   143    1
   102    37    31   am
   103    32    31    2
   104   143   142    1
   105    24    23    2
   106    31    30    1
   107    21    22    1
   108    23    22    1
   109    28    26    1
   110   142   139    1
   111    26    25    1
   112    25    22    1
   113    25    27    1
   114    30    29    1
   115    30    33    1
   116   141   140    2
   117   149   148    2
   118   148   147    1
   119   132   133    1
   120   132   131    1
   121   139   140    1
   122   139   138    1
   123    33    34    1
   124   150   147    1
   125   130   131    1
   126   130   129    1
   127   147   146    1
   128   128   127    2
   129   138   136   am
   130    34    35   ar
   131    34    36   ar
   132   129   126    1
   133   127   126    1
   134   137   136    2
   135   136   135    1
   136   126   125    1
   137   135   134    1
