@<TRIPOS>MOLECULE
tmp/6ax1A00.pdb
 133 121 0 0 0
SMALL
GASTEIGER

@<TRIPOS>ATOM
      1  N        -22.7000  -10.8010  -20.7430 N.3    33  GLY33      -0.1210
      2  CA       -21.4050  -10.8950  -20.0780 C.3    33  GLY33       0.1956
      3  C        -20.6560   -9.5840  -19.9480 C.2    33  GLY33       0.2611
      4  O        -21.1500   -8.5190  -20.3580 O.2    33  GLY33      -0.2717
      5  N        -19.4430   -9.6600  -19.3770 N.am   34  ALA34      -0.1979
      6  CA       -18.5570   -8.4970  -19.1850 C.3    34  ALA34       0.1597
      7  C        -18.1160   -7.9290  -20.5360 C.2    34  ALA34       0.2287
      8  O        -17.8160   -8.6890  -21.4510 O.2    34  ALA34      -0.2864
      9  CB       -17.3250   -8.9000  -18.3630 C.3    34  ALA34       0.0319
     10  N        -21.4890  -16.0610  -19.1860 N.3   105  SER105     -0.1202
     11  CA       -20.2550  -15.6070  -18.5270 C.3   105  SER105      0.2020
     12  C        -20.5860  -14.8460  -17.2080 C.2   105  SER105      0.2618
     13  O        -21.2780  -15.4210  -16.3640 O.2   105  SER105     -0.2717
     14  CB       -19.4230  -14.8020  -19.5330 C.3   105  SER105      0.2103
     15  OG       -18.0800  -14.5560  -19.1370 O.3   105  SER105     -0.2182
     16  N        -20.1800  -13.5640  -17.0670 N.am  106  MET106     -0.1979
     17  CA       -20.5250  -12.6920  -15.9260 C.3   106  MET106      0.1605
     18  C        -22.0670  -12.6230  -15.7470 C.2   106  MET106      0.2287
     19  O        -22.5350  -12.5930  -14.6120 O.2   106  MET106     -0.2864
     20  CB       -19.9480  -11.2780  -16.1290 C.3   106  MET106      0.0413
     21  CG       -20.1720  -10.3440  -14.9510 C.3   106  MET106      0.0598
     22  SD       -19.7180   -8.6230  -15.2820 S.3   106  MET106     -0.1393
     23  CE       -21.1140   -8.0810  -16.3110 C.3   106  MET106      0.0692
     24  N        -19.6100  -17.5390  -15.3360 N.3   131  LEU131     -0.1245
     25  CA       -18.4570  -17.1870  -14.5310 C.3   131  LEU131      0.1561
     26  C        -18.7160  -17.7310  -13.1260 C.2   131  LEU131      0.2260
     27  O        -19.6280  -17.2570  -12.4470 O.2   131  LEU131     -0.2867
     28  CB       -18.2380  -15.6680  -14.5080 C.3   131  LEU131      0.0270
     29  CG       -17.1080  -15.1880  -13.5750 C.3   131  LEU131      0.0019
     30  CD1      -15.7320  -15.7580  -14.0090 C.3   131  LEU131      0.0001
     31  CD2      -17.0710  -13.6710  -13.4980 C.3   131  LEU131      0.0001
     32  N        -15.7330  -19.6060  -11.3610 N.3   133  LEU133     -0.1231
     33  CA       -14.4140  -19.9400  -10.8480 C.3   133  LEU133      0.1693
     34  C        -13.3980  -18.8630  -11.0870 C.2   133  LEU133      0.2592
     35  O        -13.3330  -18.2820  -12.1700 O.2   133  LEU133     -0.2718
     36  CB       -13.9430  -21.1940  -11.6110 C.3   133  LEU133      0.0284
     37  CG       -13.4700  -22.3800  -10.8240 C.3   133  LEU133      0.0019
     38  CD1      -14.5980  -22.9930  -10.0210 C.3   133  LEU133      0.0001
     39  CD2      -12.9060  -23.3980  -11.7580 C.3   133  LEU133      0.0001
     40  N        -12.5410  -18.6570  -10.1060 N.am  134  ALA134     -0.1966
     41  CA       -11.4430  -17.7180  -10.2540 C.3   134  ALA134      0.1728
     42  C        -10.2320  -18.4950  -10.7480 C.2   134  ALA134      0.2616
     43  O        -10.0170  -19.6550  -10.3650 O.2   134  ALA134     -0.2715
     44  CB       -11.1310  -17.0480   -8.9280 C.3   134  ALA134      0.0334
     45  N         -9.4350  -17.8290  -11.5880 N.am  135  ASN135     -0.1972
     46  CA        -8.1750  -18.2950  -12.1660 C.3   135  ASN135      0.1688
     47  C         -7.1880  -18.7770  -11.0530 C.2   135  ASN135      0.2292
     48  O         -7.3560  -18.3950   -9.8860 O.2   135  ASN135     -0.2864
     49  CB        -7.5720  -17.1680  -13.0280 C.3   135  ASN135      0.1181
     50  CG        -8.6330  -16.3230  -13.7170 C.2   135  ASN135      0.2629
     51  OD1       -9.2470  -16.7310  -14.7160 O.2   135  ASN135     -0.2716
     52  ND2       -8.9350  -15.1630  -13.1410 N.am  135  ASN135     -0.0877
     53  N         -4.7120  -15.6370   -9.6110 N.3   138  SER138     -0.1217
     54  CA        -5.6110  -14.5070   -9.3940 C.3   138  SER138      0.1889
     55  C         -6.2450  -14.3630   -8.0110 C.2   138  SER138      0.2288
     56  O         -6.4230  -13.2200   -7.5840 O.2   138  SER138     -0.2866
     57  CB        -6.7230  -14.5180  -10.4390 C.3   138  SER138      0.2089
     58  OG        -6.1870  -14.3670  -11.7430 O.3   138  SER138     -0.2183
     59  N         -5.4330   -4.3610  -16.7120 N.3   159  LEU159     -0.1245
     60  CA        -4.7500   -5.6510  -16.5680 C.3   159  LEU159      0.1561
     61  C         -4.1560   -6.0950  -17.8980 C.2   159  LEU159      0.2260
     62  O         -3.3000   -6.9860  -17.9230 O.2   159  LEU159     -0.2867
     63  CB        -5.7570   -6.7230  -16.1250 C.3   159  LEU159      0.0270
     64  CG        -5.5240   -7.3670  -14.7790 C.3   159  LEU159      0.0019
     65  CD1       -5.9500   -6.4230  -13.6710 C.3   159  LEU159      0.0001
     66  CD2       -6.3600   -8.6460  -14.6600 C.3   159  LEU159      0.0001
     67  N         -7.3980   -9.1540  -23.5710 N.3   162  ILE162     -0.1245
     68  CA        -7.2550  -10.5650  -23.9350 C.3   162  ILE162      0.1561
     69  C         -7.1990  -10.7190  -25.4490 C.2   162  ILE162      0.2260
     70  O         -7.6020   -9.8110  -26.1920 O.2   162  ILE162     -0.2867
     71  CB        -8.3490  -11.4700  -23.2920 C.3   162  ILE162      0.0252
     72  CG1       -9.8000  -11.0050  -23.6710 C.3   162  ILE162      0.0019
     73  CG2       -8.1470  -11.5780  -21.7670 C.3   162  ILE162      0.0019
     74  CD1      -10.5820  -11.8390  -24.7410 C.3   162  ILE162      0.0001
     75  N         -9.2930   -5.2910  -18.6940 N.3   188  LEU188     -0.1245
     76  CA       -10.0240   -5.3140  -17.4370 C.3   188  LEU188      0.1561
     77  C         -9.3910   -4.3630  -16.4020 C.2   188  LEU188      0.2260
     78  O         -8.1890   -4.4180  -16.1790 O.2   188  LEU188     -0.2867
     79  CB        -9.9730   -6.7650  -16.9520 C.3   188  LEU188      0.0270
     80  CG       -10.9830   -7.2270  -15.9220 C.3   188  LEU188      0.0019
     81  CD1      -10.5010   -6.9600  -14.5840 C.3   188  LEU188      0.0001
     82  CD2      -12.4190   -6.8840  -16.2790 C.3   188  LEU188      0.0001
     83  N        -11.8510   -6.1680  -11.7510 N.3   193  GLY193     -0.1225
     84  CA       -11.2840   -7.4850  -11.4850 C.3   193  GLY193      0.1811
     85  C        -11.5750   -7.9310  -10.0660 C.2   193  GLY193      0.2280
     86  O        -11.9560   -9.0850   -9.8400 O.2   193  GLY193     -0.2866
     87  N        -15.2130   -8.9390   -9.9230 N.3   196  LEU196     -0.1231
     88  CA       -15.3990  -10.2830  -10.5080 C.3   196  LEU196      0.1693
     89  C        -14.9400  -11.3570   -9.5100 C.2   196  LEU196      0.2591
     90  O        -15.5270  -12.4380   -9.4600 O.2   196  LEU196     -0.2718
     91  CB       -14.6930  -10.4280  -11.8630 C.3   196  LEU196      0.0284
     92  CG       -15.2370   -9.5280  -12.9960 C.3   196  LEU196      0.0019
     93  CD1      -14.4180   -9.7060  -14.2720 C.3   196  LEU196      0.0001
     94  CD2      -16.7320   -9.7890  -13.2760 C.3   196  LEU196      0.0001
     95  N        -13.9340  -11.0210   -8.6690 N.am  197  LEU197     -0.1980
     96  CA       -13.4690  -11.8880   -7.5850 C.3   197  LEU197      0.1596
     97  C        -14.6010  -12.0000   -6.5290 C.2   197  LEU197      0.2287
     98  O        -14.9120  -13.1030   -6.0830 O.2   197  LEU197     -0.2864
     99  CB       -12.1920  -11.3160   -6.9600 C.3   197  LEU197      0.0297
    100  CG       -10.9190  -12.0910   -7.2180 C.3   197  LEU197      0.0022
    101  CD1       -9.7730  -11.1460   -7.5780 C.3   197  LEU197      0.0001
    102  CD2      -10.5490  -12.9310   -5.9890 C.3   197  LEU197      0.0001
    103  N        -17.4370  -14.4060   -7.9860 N.3   200  VAL200     -0.1245
    104  CA       -17.0730  -15.8190   -7.8880 C.3   200  VAL200      0.1561
    105  C        -17.1800  -16.3330   -6.4400 C.2   200  VAL200      0.2260
    106  O        -17.6780  -17.4360   -6.2000 O.2   200  VAL200     -0.2867
    107  CB       -15.6830  -16.0390   -8.5350 C.3   200  VAL200      0.0252
    108  CG1      -14.9650  -17.2550   -7.9610 C.3   200  VAL200      0.0019
    109  CG2      -15.8140  -16.1500  -10.0550 C.3   200  VAL200      0.0019
    110  N        -11.5560  -18.7490  -20.7660 N.3   224  LEU224     -0.1231
    111  CA       -12.0460  -17.6910  -19.8790 C.3   224  LEU224      0.1693
    112  C        -12.7790  -18.2770  -18.6890 C.2   224  LEU224      0.2592
    113  O        -12.4850  -17.9180  -17.5590 O.2   224  LEU224     -0.2718
    114  CB       -12.8920  -16.6590  -20.6470 C.3   224  LEU224      0.0284
    115  CG       -12.2160  -16.0190  -21.8620 C.3   224  LEU224      0.0019
    116  CD1      -13.1390  -15.0640  -22.5350 C.3   224  LEU224      0.0001
    117  CD2      -10.9710  -15.2380  -21.4630 C.3   224  LEU224      0.0001
    118  N        -13.7140  -19.2000  -18.9410 N.am  225  CYS225     -0.1970
    119  CA       -14.4420  -19.8930  -17.8840 C.3   225  CYS225      0.1712
    120  C        -14.1240  -21.3770  -18.0610 C.2   225  CYS225      0.2296
    121  O        -14.7050  -22.0500  -18.9220 O.2   225  CYS225     -0.2864
    122  CB       -15.9390  -19.6120  -17.9520 C.3   225  CYS225      0.0983
    123  SG       -16.3830  -17.8840  -17.6570 S.3   225  CYS225     -0.0798
    124  N        -15.4440  -20.0900  -25.7150 N.3   252  HIS252     -0.1241
    125  CA       -16.2770  -19.4290  -24.7140 C.3   252  HIS252      0.1621
    126  C        -17.6780  -19.0080  -25.1930 C.2   252  HIS252      0.2264
    127  O        -18.6530  -19.2240  -24.4760 O.2   252  HIS252     -0.2867
    128  CB       -15.4890  -18.2280  -24.1410 C.3   252  HIS252      0.0745
    129  CG       -16.1390  -17.5120  -22.9990 C.ar  252  HIS252      0.0817
    130  ND1      -16.3680  -18.1340  -21.7870 N.ar  252  HIS252     -0.2268
    131  CD2      -16.5700  -16.2300  -22.9190 C.ar  252  HIS252      0.1154
    132  CE1      -16.9410  -17.2350  -21.0150 C.ar  252  HIS252      0.1986
    133  NE2      -17.1050  -16.0790  -21.6690 N.ar  252  HIS252     -0.2212
@<TRIPOS>BOND
     1    70    69    2
     2   124   125    1
     3    69    68    1
     4   126   125    1
     5   126   127    2
     6    74    72    1
     7   125   128    1
     8   128   129    1
     9    68    67    1
    10    68    71    1
    11    72    71    1
    12    71    73    1
    13   129   131   ar
    14   129   130   ar
    15   131   133   ar
    16   116   115    1
    17   115   117    1
    18   115   114    1
    19   130   132   ar
    20   133   132   ar
    21     8     7    2
    22   110   111    1
    23     1     2    1
    24   114   111    1
    25     7     6    1
    26     4     3    2
    27     2     3    1
    28     3     5   am
    29   111   112    1
    30    14    15    1
    31    14    11    1
    32     5     6    1
    33    10    11    1
    34     6     9    1
    35   118   112   am
    36   118   119    1
    37   121   120    2
    38    75    76    1
    39   112   113    2
    40    11    12    1
    41   120   119    1
    42   122   119    1
    43   122   123    1
    44    62    61    2
    45    61    60    1
    46    76    79    1
    47    76    77    1
    48    12    16   am
    49    12    13    2
    50    16    17    1
    51    79    80    1
    52    59    60    1
    53    60    63    1
    54    77    78    2
    55    23    22    1
    56    82    80    1
    57    20    17    1
    58    20    21    1
    59    63    64    1
    60    17    18    1
    61    80    81    1
    62    18    19    2
    63    24    25    1
    64    22    21    1
    65    64    66    1
    66    64    65    1
    67    51    50    2
    68    25    28    1
    69    25    26    1
    70    28    29    1
    71    93    92    1
    72    30    29    1
    73    50    52   am
    74    50    49    1
    75    29    31    1
    76    94    92    1
    77    26    27    2
    78    49    46    1
    79    92    91    1
    80    35    34    2
    81    46    45    1
    82    46    47    1
    83    91    88    1
    84    39    37    1
    85    83    84    1
    86    58    57    1
    87    36    33    1
    88    36    37    1
    89    45    42   am
    90    84    85    1
    91    32    33    1
    92    34    33    1
    93    34    40   am
    94    47    48    2
    95    37    38    1
    96    42    43    2
    97    42    41    1
    98    88    87    1
    99    88    89    1
   100    57    54    1
   101    41    40    1
   102    41    44    1
   103    85    86    2
   104   109   107    1
   105    53    54    1
   106    89    90    2
   107    89    95   am
   108    54    55    1
   109    95    96    1
   110   107   108    1
   111   107   104    1
   112    55    56    2
   113   103   104    1
   114   104   105    1
   115    96    99    1
   116    96    97    1
   117   101   100    1
   118   100    99    1
   119   100   102    1
   120    97    98    2
   121   105   106    2
