@<TRIPOS>MOLECULE
tmp/6ax3A00.pdb
 168 169 0 0 0
SMALL
GASTEIGER

@<TRIPOS>ATOM
      1  N          2.2250   -5.6040   20.4380 N.3    58  GLU58      -0.1245
      2  CA         2.6940   -6.0680   21.7370 C.3    58  GLU58       0.1567
      3  C          3.8980   -6.9760   21.5340 C.2    58  GLU58       0.2260
      4  O          3.8060   -7.9950   20.8380 O.2    58  GLU58      -0.2867
      5  CB         1.5800   -6.7920   22.4780 C.3    58  GLU58       0.0388
      6  CG         0.3760   -5.9140   22.5550 C.3    58  GLU58       0.1160
      7  CD        -0.8250   -6.5940   23.1130 C.2    58  GLU58       0.3649
      8  OE1       -0.8080   -7.8380   23.2710 O.co2  58  GLU58      -0.2457
      9  OE2       -1.7870   -5.8500   23.3870 O.co2  58  GLU58      -0.2457
     10  N          6.3380  -12.4550   25.0590 N.3    61  SER61      -0.1202
     11  CA         5.5290  -13.6650   25.0140 C.3    61  SER61       0.2020
     12  C          4.1700  -13.4230   25.6480 C.2    61  SER61       0.2619
     13  O          3.1260  -13.6980   25.0440 O.2    61  SER61      -0.2717
     14  CB         6.2730  -14.8030   25.7160 C.3    61  SER61       0.2103
     15  OG         5.5900  -15.9540   25.7690 O.3    61  SER61      -0.2182
     16  N          4.1700  -12.8810   26.8630 N.am   62  ARG62      -0.1965
     17  CA         2.9540  -12.5190   27.5750 C.3    62  ARG62       0.1729
     18  C          3.3010  -11.3450   28.4810 C.2    62  ARG62       0.2616
     19  O          4.4730  -10.9920   28.6420 O.2    62  ARG62      -0.2715
     20  CB         2.4030  -13.7410   28.3230 C.3    62  ARG62       0.0348
     21  CG         3.4890  -14.7820   28.5970 C.3    62  ARG62       0.0492
     22  CD         2.9750  -16.1300   29.1320 C.3    62  ARG62       0.2205
     23  NE         2.2070  -16.0080   30.2960 N.pl3  62  ARG62      -0.0865
     24  CZ         2.7090  -15.9680   31.4710 C.cat  62  ARG62       0.5346
     25  NH1        3.9790  -16.0320   31.6510 N.pl3  62  ARG62       0.1354
     26  NH2        1.9350  -15.8530   32.4880 N.pl3  62  ARG62       0.1354
     27  N          2.2860  -10.7530   29.1090 N.am   63  TYR63      -0.1974
     28  CA         2.4630   -9.3760   29.5580 C.3    63  TYR63       0.1639
     29  C          2.8290   -9.1800   31.0340 C.2    63  TYR63       0.2290
     30  O          2.9620   -8.0200   31.4530 O.2    63  TYR63      -0.2864
     31  CB         1.2320   -8.5160   29.2000 C.3    63  TYR63       0.0560
     32  CG        -0.1850   -9.0500   29.3900 C.ar   63  TYR63      -0.0198
     33  CD1       -0.8600   -8.8550   30.5890 C.ar   63  TYR63      -0.0009
     34  CD2       -0.8930   -9.6290   28.3350 C.ar   63  TYR63      -0.0009
     35  CE1       -2.1760   -9.2810   30.7620 C.ar   63  TYR63       0.0417
     36  CE2       -2.2140  -10.0510   28.5010 C.ar   63  TYR63       0.0417
     37  CZ        -2.8510   -9.8770   29.7190 C.ar   63  TYR63       0.1957
     38  OH        -4.1630  -10.2830   29.9190 O.3    63  TYR63      -0.2866
     39  N          7.5210   -7.7700   28.1570 N.3    68  TRP68      -0.1241
     40  CA         6.4310   -7.2570   27.3490 C.3    68  TRP68       0.1605
     41  C          6.4250   -5.7340   27.3500 C.2    68  TRP68       0.2264
     42  O          6.4310   -5.0910   28.4030 O.2    68  TRP68      -0.2867
     43  CB         5.1140   -7.7850   27.9310 C.3    68  TRP68       0.0550
     44  CG         3.8620   -7.3310   27.2420 C.ar   68  TRP68       0.0003
     45  CD1        3.2060   -7.9740   26.2400 C.ar   68  TRP68       0.0946
     46  CD2        3.1000   -6.1530   27.5280 C.ar   68  TRP68       0.0152
     47  NE1        2.0880   -7.2660   25.8690 N.ar   68  TRP68      -0.2442
     48  CE2        2.0000   -6.1440   26.6450 C.ar   68  TRP68       0.0810
     49  CE3        3.2460   -5.0970   28.4350 C.ar   68  TRP68       0.0012
     50  CZ2        1.0490   -5.1250   26.6420 C.ar   68  TRP68       0.0191
     51  CZ3        2.2960   -4.0840   28.4320 C.ar   68  TRP68       0.0001
     52  CH2        1.2130   -4.1080   27.5390 C.ar   68  TRP68       0.0015
     53  N          2.9050   -9.1820   18.3770 N.3    92  TYR92      -0.1241
     54  CA         1.5050   -9.5380   18.1890 C.3    92  TYR92       0.1605
     55  C          0.7090   -8.2710   17.9000 C.2    92  TYR92       0.2264
     56  O          0.7400   -7.3370   18.7070 O.2    92  TYR92      -0.2867
     57  CB         0.9900  -10.2390   19.4480 C.3    92  TYR92       0.0534
     58  CG        -0.3170  -10.9790   19.3020 C.ar   92  TYR92      -0.0201
     59  CD1       -0.9550  -11.0760   18.0660 C.ar   92  TYR92      -0.0009
     60  CD2       -0.9230  -11.5780   20.4050 C.ar   92  TYR92      -0.0009
     61  CE1       -2.1520  -11.7490   17.9350 C.ar   92  TYR92       0.0417
     62  CE2       -2.1180  -12.2550   20.2750 C.ar   92  TYR92       0.0417
     63  CZ        -2.7240  -12.3490   19.0370 C.ar   92  TYR92       0.1957
     64  OH        -3.9200  -13.0330   18.9020 O.3    92  TYR92      -0.2866
     65  N         -2.5330   -6.9450   18.3230 N.3    94  ALA94      -0.1231
     66  CA        -3.5370   -7.4980   19.2060 C.3    94  ALA94       0.1694
     67  C         -4.5200   -6.4110   19.6080 C.2    94  ALA94       0.2591
     68  O         -4.1640   -5.2320   19.6860 O.2    94  ALA94      -0.2718
     69  CB        -2.8680   -8.1210   20.4480 C.3    94  ALA94       0.0304
     70  N         -5.7710   -6.8230   19.8170 N.am   95  GLN95      -0.1979
     71  CA        -6.8100   -5.9670   20.3990 C.3    95  GLN95       0.1601
     72  C         -6.8660   -4.5760   19.7560 C.2    95  GLN95       0.2287
     73  O         -6.9960   -3.5620   20.4330 O.2    95  GLN95      -0.2864
     74  CB        -6.6230   -5.8620   21.9140 C.3    95  GLN95       0.0394
     75  CG        -7.9180   -5.5350   22.6630 C.3    95  GLN95       0.0908
     76  CD        -7.7420   -5.5370   24.1640 C.2    95  GLN95       0.2608
     77  OE1       -6.7650   -6.0690   24.6800 O.2    95  GLN95      -0.2717
     78  NE2       -8.6780   -4.9290   24.8710 N.am   95  GLN95      -0.0878
     79  N         -6.7650   -9.4380   15.3890 N.3   130  TRP130     -0.1241
     80  CA        -5.7020  -10.1420   16.1080 C.3   130  TRP130      0.1605
     81  C         -4.8500  -10.8730   15.0780 C.2   130  TRP130      0.2264
     82  O         -5.2860  -11.8770   14.5130 O.2   130  TRP130     -0.2867
     83  CB        -6.2730  -11.1300   17.1250 C.3   130  TRP130      0.0550
     84  CG        -7.3270  -10.5670   18.0280 C.ar  130  TRP130      0.0003
     85  CD1       -8.6360  -10.3230   17.7180 C.ar  130  TRP130      0.0946
     86  CD2       -7.1690  -10.2070   19.4000 C.ar  130  TRP130      0.0152
     87  NE1       -9.2990   -9.8300   18.8110 N.ar  130  TRP130     -0.2442
     88  CE2       -8.4210   -9.7490   19.8580 C.ar  130  TRP130      0.0810
     89  CE3       -6.0920  -10.2310   20.2910 C.ar  130  TRP130      0.0012
     90  CZ2       -8.6230   -9.3160   21.1570 C.ar  130  TRP130      0.0191
     91  CZ3       -6.2940   -9.7930   21.5800 C.ar  130  TRP130      0.0001
     92  CH2       -7.5490   -9.3360   21.9970 C.ar  130  TRP130      0.0015
     93  N          0.5770  -15.7880   22.6170 N.3   137  ILE137     -0.1231
     94  CA        -0.2220  -16.2980   23.7260 C.3   137  ILE137      0.1692
     95  C         -0.9770  -15.1300   24.3520 C.2   137  ILE137      0.2593
     96  O         -0.3590  -14.1580   24.8090 O.2   137  ILE137     -0.2718
     97  CB         0.6420  -17.0080   24.7830 C.3   137  ILE137      0.0266
     98  CG1        1.2130  -18.3150   24.2250 C.3   137  ILE137      0.0019
     99  CG2       -0.1580  -17.2780   26.0430 C.3   137  ILE137      0.0020
    100  CD1        2.2700  -18.9520   25.1110 C.3   137  ILE137      0.0001
    101  N         -2.3050  -15.2270   24.3820 N.am  138  SER138     -0.1939
    102  CA        -3.1200  -14.3540   25.2180 C.3   138  SER138      0.2040
    103  C         -3.3690  -15.0380   26.5530 C.2   138  SER138      0.2485
    104  O         -4.0560  -16.0700   26.5870 O.2   138  SER138     -0.2729
    105  CB        -4.4370  -14.0320   24.5390 C.3   138  SER138      0.2129
    106  OG        -4.2140  -13.2650   23.3700 O.3   138  SER138     -0.2179
    107  N         -2.8370  -14.5270   27.6560 N.am  139  PRO139     -0.2726
    108  CA        -3.0190  -15.1920   28.9490 C.3   139  PRO139      0.1402
    109  C         -4.4810  -15.2460   29.3630 C.2   139  PRO139      0.2269
    110  O         -5.3310  -14.5100   28.8570 O.2   139  PRO139     -0.2865
    111  CB        -2.2050  -14.3310   29.9140 C.3   139  PRO139      0.0296
    112  CG        -1.2230  -13.6190   29.0440 C.3   139  PRO139      0.0237
    113  CD        -1.9450  -13.3660   27.7540 C.3   139  PRO139      0.0939
    114  N         -7.8560  -14.7290   30.6970 N.3   141  HIS141     -0.1226
    115  CA        -8.4660  -13.4550   31.0220 C.3   141  HIS141      0.1752
    116  C         -9.9580  -13.5520   30.7140 C.2   141  HIS141      0.2596
    117  O        -10.4010  -14.4460   29.9830 O.2   141  HIS141     -0.2718
    118  CB        -7.7900  -12.3470   30.2170 C.3   141  HIS141      0.0759
    119  CG        -8.3590  -12.2060   28.8490 C.ar  141  HIS141      0.0818
    120  ND1       -7.9090  -12.9350   27.7690 N.ar  141  HIS141     -0.2268
    121  CD2       -9.3890  -11.4540   28.3970 C.ar  141  HIS141      0.1154
    122  CE1       -8.6200  -12.6180   26.7020 C.ar  141  HIS141      0.1986
    123  NE2       -9.5200  -11.7160   27.0550 N.ar  141  HIS141     -0.2212
    124  N        -10.7340  -12.6170   31.2720 N.am  142  GLN142     -0.1965
    125  CA       -12.1450  -12.4480   30.9410 C.3   142  GLN142      0.1733
    126  C        -12.4190  -11.0350   30.4330 C.2   142  GLN142      0.2616
    127  O        -11.6990  -10.0800   30.7510 O.2   142  GLN142     -0.2715
    128  CB       -13.0580  -12.7420   32.1400 C.3   142  GLN142      0.0408
    129  CG       -12.8620  -11.8050   33.3190 C.3   142  GLN142      0.0908
    130  CD       -13.6530  -12.2170   34.5370 C.2   142  GLN142      0.2608
    131  OE1      -14.3690  -13.2360   34.5270 O.2   142  GLN142     -0.2717
    132  NE2      -13.5340  -11.4360   35.6020 N.am  142  GLN142     -0.0878
    133  N        -13.4860  -10.9220   29.6370 N.am  143  ASP143     -0.1958
    134  CA       -13.9200   -9.7240   28.9480 C.3   143  ASP143      0.1825
    135  C        -15.3330   -9.3460   29.3550 C.2   143  ASP143      0.2464
    136  O        -16.1210  -10.2110   29.7620 O.2   143  ASP143     -0.2730
    137  CB       -13.8850   -9.8870   27.4270 C.3   143  ASP143      0.1450
    138  CG       -12.4900  -10.0120   26.9190 C.2   143  ASP143      0.3671
    139  OD1      -11.6390   -9.1780   27.2870 O.co2 143  ASP143     -0.2456
    140  OD2      -12.2540  -10.9900   26.1870 O.co2 143  ASP143     -0.2456
    141  N        -15.6450   -8.0390   29.3250 N.am  144  PRO144     -0.2727
    142  CA       -16.9150   -7.5430   29.8650 C.3   144  PRO144      0.1402
    143  C        -18.1440   -7.7570   28.9980 C.2   144  PRO144      0.2269
    144  O        -19.2380   -7.4350   29.4710 O.2   144  PRO144     -0.2865
    145  CB       -16.6390   -6.0440   30.0670 C.3   144  PRO144      0.0296
    146  CG       -15.6520   -5.7170   29.0070 C.3   144  PRO144      0.0237
    147  CD       -14.7570   -6.9330   28.9210 C.3   144  PRO144      0.0939
    148  N         -7.5650  -10.6590   34.8350 N.3   180  THR180     -0.1218
    149  CA        -6.5330  -11.5320   34.2740 C.3   180  THR180      0.1862
    150  C         -6.0610  -12.5510   35.3110 C.2   180  THR180      0.2287
    151  O         -5.8750  -12.2180   36.4860 O.2   180  THR180     -0.2866
    152  CB        -5.3310  -10.7120   33.7800 C.3   180  THR180      0.1770
    153  OG1       -5.7460   -9.8580   32.7050 O.3   180  THR180     -0.2211
    154  CG2       -4.1920  -11.6200   33.2910 C.3   180  THR180      0.0375
    155  N        -17.0300   -7.7920   20.0360 N.3   234  TRP234     -0.1241
    156  CA       -17.5340   -7.5990   21.3880 C.3   234  TRP234      0.1605
    157  C        -18.8910   -6.9200   21.2850 C.2   234  TRP234      0.2264
    158  O        -19.0080   -5.8400   20.6980 O.2   234  TRP234     -0.2867
    159  CB       -16.5620   -6.7640   22.2230 C.3   234  TRP234      0.0550
    160  CG       -15.2760   -7.4630   22.4720 C.ar  234  TRP234      0.0003
    161  CD1      -15.0090   -8.8030   22.2680 C.ar  234  TRP234      0.0946
    162  CD2      -14.0640   -6.8830   22.9580 C.ar  234  TRP234      0.0152
    163  NE1      -13.7070   -9.0820   22.6040 N.ar  234  TRP234     -0.2442
    164  CE2      -13.1040   -7.9230   23.0320 C.ar  234  TRP234      0.0810
    165  CE3      -13.6930   -5.5910   23.3450 C.ar  234  TRP234      0.0012
    166  CZ2      -11.7970   -7.6960   23.4760 C.ar  234  TRP234      0.0191
    167  CZ3      -12.3950   -5.3670   23.7750 C.ar  234  TRP234      0.0001
    168  CH2      -11.4640   -6.4120   23.8390 C.ar  234  TRP234      0.0015
@<TRIPOS>BOND
     1    82    81    2
     2    81    80    1
     3    79    80    1
     4    80    83    1
     5    83    84    1
     6    85    84   ar
     7    85    87   ar
     8    55    54    1
     9    55    56    2
    10    61    59   ar
    11    61    63   ar
    12    84    86   ar
    13    59    58   ar
    14    54    53    1
    15    54    57    1
    16    65    66    1
    17    87    88   ar
    18    64    63    1
    19    63    62   ar
    20    66    67    1
    21    66    69    1
    22    58    57    1
    23    58    60   ar
    24    86    88   ar
    25    86    89   ar
    26    67    68    2
    27    67    70   am
    28    72    71    1
    29    72    73    2
    30    70    71    1
    31    88    90   ar
    32   155   156    1
    33    62    60   ar
    34    89    91   ar
    35    71    74    1
    36     1     2    1
    37   158   157    2
    38     4     3    2
    39    90    92   ar
    40   157   156    1
    41   156   159    1
    42     3     2    1
    43    91    92   ar
    44     2     5    1
    45    74    75    1
    46   159   160    1
    47   161   160   ar
    48   161   163   ar
    49   160   162   ar
    50     5     6    1
    51     6     7    1
    52   163   164   ar
    53    93    94    1
    54    75    76    1
    55   162   164   ar
    56   162   165   ar
    57   164   166   ar
    58     7     8   ar
    59     7     9   ar
    60   165   167   ar
    61   106   105    1
    62   166   168   ar
    63    94    95    1
    64    94    97    1
    65   167   168   ar
    66    76    77    2
    67    76    78   am
    68    98    97    1
    69    98   100    1
    70    95   101   am
    71    95    96    2
    72   101   102    1
    73   105   102    1
    74    97    99    1
    75    11    10    1
    76    11    12    1
    77    11    14    1
    78    13    12    2
    79   102   103    1
    80    12    16   am
    81    14    15    1
    82    47    45   ar
    83    47    48   ar
    84   140   138   ar
    85    45    44   ar
    86   103   104    2
    87   103   107   am
    88    50    48   ar
    89    50    52   ar
    90    48    46   ar
    91   122   123   ar
    92   122   120   ar
    93    16    17    1
    94   138   139   ar
    95   138   137    1
    96   123   121   ar
    97    44    46   ar
    98    44    43    1
    99    40    41    1
   100    40    43    1
   101    40    39    1
   102    41    42    2
   103   137   134    1
   104    46    49   ar
   105    52    51   ar
   106    17    20    1
   107    17    18    1
   108   107   113    1
   109   107   108    1
   110   113   112    1
   111   120   119   ar
   112    20    21    1
   113    34    36   ar
   114    34    32   ar
   115   121   119   ar
   116    51    49   ar
   117    18    19    2
   118    18    27   am
   119    36    37   ar
   120    21    22    1
   121   119   118    1
   122   110   109    2
   123   147   146    1
   124   147   141    1
   125   134   135    1
   126   134   133    1
   127   108   109    1
   128   108   111    1
   129   143   144    2
   130   143   142    1
   131   146   145    1
   132   112   111    1
   133    27    28    1
   134    22    23    1
   135    31    32    1
   136    31    28    1
   137   141   135   am
   138   141   142    1
   139   135   136    2
   140    32    33   ar
   141    28    29    1
   142   133   126   am
   143    37    38    1
   144    37    35   ar
   145   142   145    1
   146   117   116    2
   147   118   115    1
   148    23    24    2
   149   126   127    2
   150   126   125    1
   151    33    35   ar
   152   114   115    1
   153   116   115    1
   154   116   124   am
   155   125   124    1
   156   125   128    1
   157    29    30    2
   158    24    25    1
   159    24    26    1
   160   128   129    1
   161   153   152    1
   162   154   152    1
   163   129   130    1
   164   152   149    1
   165   149   148    1
   166   149   150    1
   167   131   130    2
   168   130   132   am
   169   150   151    2
