@<TRIPOS>MOLECULE
tmp/6ax8A00.pdb
 220 216 0 0 0
SMALL
GASTEIGER

@<TRIPOS>ATOM
      1  N        276.4360  200.5440   -4.3360 N.3     9  ALA9       -0.1231
      2  CA       274.9970  200.6860   -4.3400 C.3     9  ALA9        0.1694
      3  C        274.6980  201.7320   -5.3990 C.2     9  ALA9        0.2592
      4  O        275.4730  202.6530   -5.5980 O.2     9  ALA9       -0.2718
      5  CB       274.4820  201.1270   -2.9830 C.3     9  ALA9        0.0304
      6  N        273.5920  201.5570   -6.0990 N.am   10  ILE10      -0.1966
      7  CA       273.2220  202.4530   -7.1950 C.3    10  ILE10       0.1727
      8  C        272.2100  203.4520   -6.6310 C.2    10  ILE10       0.2616
      9  O        271.3280  203.0760   -5.8640 O.2    10  ILE10      -0.2715
     10  CB       272.7280  201.6770   -8.4430 C.3    10  ILE10       0.0290
     11  CG1      271.6430  200.6590   -8.1070 C.3    10  ILE10       0.0022
     12  CG2      273.8920  200.9270   -9.0860 C.3    10  ILE10       0.0023
     13  CD1      270.9520  200.0850   -9.3230 C.3    10  ILE10       0.0001
     14  N        272.3660  204.7250   -6.9750 N.am   11  ALA11      -0.1963
     15  CA       271.6180  205.8010   -6.3130 C.3    11  ALA11       0.1728
     16  C        270.2580  206.0600   -6.9600 C.2    11  ALA11       0.2616
     17  O        270.1050  205.8770   -8.1610 O.2    11  ALA11      -0.2715
     18  CB       272.4430  207.0780   -6.3150 C.3    11  ALA11       0.0334
     19  N        269.2750  206.4770   -6.1580 N.am   12  TYR12      -0.1974
     20  CA       268.0450  207.0470   -6.6870 C.3    12  TYR12       0.1639
     21  C        268.4100  208.4090   -7.2590 C.2    12  TYR12       0.2290
     22  O        269.0230  209.2130   -6.5590 O.2    12  TYR12      -0.2864
     23  CB       267.0030  207.2470   -5.5950 C.3    12  TYR12       0.0560
     24  CG       266.4980  205.9750   -4.9520 C.ar   12  TYR12      -0.0198
     25  CD1      265.9100  204.9570   -5.7170 C.ar   12  TYR12      -0.0009
     26  CD2      266.5640  205.8010   -3.5690 C.ar   12  TYR12      -0.0009
     27  CE1      265.4380  203.7940   -5.1200 C.ar   12  TYR12       0.0417
     28  CE2      266.0900  204.6430   -2.9660 C.ar   12  TYR12       0.0417
     29  CZ       265.5360  203.6420   -3.7400 C.ar   12  TYR12       0.1957
     30  OH       265.0820  202.5020   -3.1210 O.3    12  TYR12      -0.2866
     31  N        274.7350  214.0860   -2.9100 N.3    18  HIS18      -0.1241
     32  CA       275.3740  214.6650   -1.7620 C.3    18  HIS18       0.1621
     33  C        276.7100  213.9840   -1.5440 C.2    18  HIS18       0.2264
     34  O        277.0990  213.1310   -2.2860 O.2    18  HIS18      -0.2867
     35  CB       274.5140  214.5950   -0.5250 C.3    18  HIS18       0.0745
     36  CG       273.8930  213.2610   -0.2860 C.ar   18  HIS18       0.0817
     37  ND1      272.5520  213.0270   -0.4630 N.ar   18  HIS18      -0.2268
     38  CD2      274.4230  212.0980    0.1430 C.ar   18  HIS18       0.1154
     39  CE1      272.2810  211.7750   -0.1580 C.ar   18  HIS18       0.1986
     40  NE2      273.4040  211.1880    0.2040 N.ar   18  HIS18      -0.2212
     41  N        277.6490  211.9820    0.8440 N.3    20  GLY20      -0.1210
     42  CA       277.4890  210.5680    1.1670 C.3    20  GLY20       0.1956
     43  C        277.5830  209.6340   -0.0340 C.2    20  GLY20       0.2611
     44  O        278.1460  208.5330    0.0690 O.2    20  GLY20      -0.2717
     45  N        277.0340  210.0580   -1.1730 N.am   21  HIS21      -0.1975
     46  CA       277.1770  209.2850   -2.4100 C.3    21  HIS21       0.1656
     47  C        278.6480  209.2320   -2.8350 C.2    21  HIS21       0.2291
     48  O        279.2100  208.1540   -3.0490 O.2    21  HIS21      -0.2864
     49  CB       276.3320  209.8810   -3.5360 C.3    21  HIS21       0.0771
     50  CG       274.8580  209.7620   -3.3220 C.ar   21  HIS21       0.0820
     51  ND1      274.0450  210.8590   -3.1340 N.ar   21  HIS21      -0.2267
     52  CD2      274.0400  208.6850   -3.2980 C.ar   21  HIS21       0.1154
     53  CE1      272.7970  210.4660   -2.9930 C.ar   21  HIS21       0.1986
     54  NE2      272.7650  209.1490   -3.0820 N.ar   21  HIS21      -0.2212
     55  N        281.2320  209.7300   -1.0740 N.3    23  TYR23      -0.1227
     56  CA       281.9620  208.8980   -0.1120 C.3    23  TYR23       0.1736
     57  C        281.9910  207.4040   -0.5250 C.2    23  TYR23       0.2595
     58  O        283.0420  206.7580   -0.5350 O.2    23  TYR23      -0.2718
     59  CB       281.3180  209.0680    1.2660 C.3    23  TYR23       0.0548
     60  CG       281.9930  208.3800    2.4310 C.ar   23  TYR23      -0.0200
     61  CD1      283.3760  208.3730    2.5680 C.ar   23  TYR23      -0.0009
     62  CD2      281.2390  207.7910    3.4350 C.ar   23  TYR23      -0.0009
     63  CE1      283.9860  207.7620    3.6490 C.ar   23  TYR23       0.0417
     64  CE2      281.8430  207.1880    4.5260 C.ar   23  TYR23       0.0417
     65  CZ       283.2140  207.1750    4.6280 C.ar   23  TYR23       0.1957
     66  OH       283.8230  206.5750    5.7130 O.3    23  TYR23      -0.2866
     67  N        280.8400  206.8710   -0.8880 N.am   24  GLU24      -0.1979
     68  CA       280.7380  205.4740   -1.3060 C.3    24  GLU24       0.1602
     69  C        281.5100  205.1960   -2.5910 C.2    24  GLU24       0.2287
     70  O        282.1580  204.1660   -2.7100 O.2    24  GLU24      -0.2864
     71  CB       279.2710  205.0940   -1.4950 C.3    24  GLU24       0.0415
     72  CG       279.0270  203.6010   -1.6500 C.3    24  GLU24       0.1163
     73  CD       277.5740  203.2700   -1.9510 C.2    24  GLU24       0.3649
     74  OE1      277.3510  202.2510   -2.6350 O.co2  24  GLU24      -0.2457
     75  OE2      276.6560  204.0140   -1.5200 O.co2  24  GLU24      -0.2457
     76  N        269.4680  203.9210   -9.8420 N.3    49  ASP49      -0.1239
     77  CA       268.2900  203.1270   -9.6130 C.3    49  ASP49       0.1674
     78  C        267.0930  204.0040   -9.9710 C.2    49  ASP49       0.2266
     79  O        266.5510  204.7060   -9.1210 O.2    49  ASP49      -0.2867
     80  CB       268.2680  202.7380   -8.1380 C.3    49  ASP49       0.1410
     81  CG       267.1350  201.8020   -7.7750 C.2    49  ASP49       0.3668
     82  OD1      266.2350  201.5580   -8.6050 O.co2  49  ASP49      -0.2456
     83  OD2      267.1520  201.3110   -6.6220 O.co2  49  ASP49      -0.2456
     84  N        259.4570  207.0170   -5.3180 N.3    54  LYS54      -0.1245
     85  CA       260.3100  208.1210   -4.8680 C.3    54  LYS54       0.1561
     86  C        260.7300  209.0210   -6.0240 C.2    54  LYS54       0.2260
     87  O        260.6750  210.2460   -5.9080 O.2    54  LYS54      -0.2867
     88  CB       261.5560  207.5780   -4.1600 C.3    54  LYS54       0.0271
     89  CG       262.3300  208.5910   -3.3390 C.3    54  LYS54       0.0035
     90  CD       263.4710  207.9040   -2.6090 C.3    54  LYS54       0.0206
     91  CE       264.2470  208.8820   -1.7480 C.3    54  LYS54       0.1093
     92  NZ       265.4960  208.2780   -1.2040 N.3    54  LYS54      -0.1314
     93  N        263.4040  197.4910   -5.3140 N.3   228  TRP228     -0.1241
     94  CA       264.5460  196.7470   -4.7730 C.3   228  TRP228      0.1605
     95  C        264.8530  195.4020   -5.4180 C.2   228  TRP228      0.2264
     96  O        266.0150  195.0170   -5.4770 O.2   228  TRP228     -0.2867
     97  CB       264.3770  196.5290   -3.2810 C.3   228  TRP228      0.0550
     98  CG       264.7980  197.7090   -2.5310 C.ar  228  TRP228      0.0003
     99  CD1      264.0060  198.6850   -2.0280 C.ar  228  TRP228      0.0946
    100  CD2      266.1370  198.0710   -2.2240 C.ar  228  TRP228      0.0152
    101  NE1      264.7640  199.6340   -1.3980 N.ar  228  TRP228     -0.2442
    102  CE2      266.0840  199.2800   -1.5010 C.ar  228  TRP228      0.0810
    103  CE3      267.3830  197.4840   -2.4820 C.ar  228  TRP228      0.0012
    104  CZ2      267.2300  199.9190   -1.0290 C.ar  228  TRP228      0.0191
    105  CZ3      268.5210  198.1130   -2.0080 C.ar  228  TRP228      0.0001
    106  CH2      268.4350  199.3220   -1.2920 C.ar  228  TRP228      0.0015
    107  N        266.4590  196.4530   -8.5700 N.3   231  ALA231     -0.1231
    108  CA       267.6800  197.2340   -8.2920 C.3   231  ALA231      0.1694
    109  C        268.8550  196.3360   -7.9230 C.2   231  ALA231      0.2591
    110  O        269.9490  196.4920   -8.4710 O.2   231  ALA231     -0.2718
    111  CB       267.4400  198.2640   -7.2030 C.3   231  ALA231      0.0304
    112  N        268.6200  195.3870   -7.0160 N.am  232  LEU232     -0.1980
    113  CA       269.6480  194.4000   -6.6310 C.3   232  LEU232      0.1596
    114  C        270.1470  193.5990   -7.8230 C.2   232  LEU232      0.2287
    115  O        271.3240  193.2270   -7.8900 O.2   232  LEU232     -0.2864
    116  CB       269.1130  193.4270   -5.5870 C.3   232  LEU232      0.0297
    117  CG       268.8460  193.9930   -4.2000 C.3   232  LEU232      0.0022
    118  CD1      267.9840  193.0340   -3.3930 C.3   232  LEU232      0.0001
    119  CD2      270.1630  194.2840   -3.4960 C.3   232  LEU232      0.0001
    120  N        270.9180  194.6510  -10.6330 N.3   234  ASN234     -0.1225
    121  CA       271.9550  195.3820  -11.3860 C.3   234  ASN234      0.1785
    122  C        273.3240  194.7240  -11.2980 C.2   234  ASN234      0.2597
    123  O        274.1250  194.8430  -12.2170 O.2   234  ASN234     -0.2718
    124  CB       272.0590  196.8600  -10.9430 C.3   234  ASN234      0.1169
    125  CG       273.0930  197.0810   -9.8490 C.2   234  ASN234      0.2627
    126  OD1      274.2890  197.2590  -10.1240 O.2   234  ASN234     -0.2716
    127  ND2      272.6380  197.0870   -8.6040 N.am  234  ASN234     -0.0877
    128  N        273.5940  194.0550  -10.1800 N.am  235  TYR235     -0.1976
    129  CA       274.8670  193.3700   -9.9670 C.3   235  TYR235      0.1639
    130  C        275.0050  192.1700  -10.8800 C.2   235  TYR235      0.2290
    131  O        276.0950  191.8910  -11.3520 O.2   235  TYR235     -0.2864
    132  CB       274.9930  192.9230   -8.5220 C.3   235  TYR235      0.0560
    133  CG       274.8370  194.0340   -7.4980 C.ar  235  TYR235     -0.0198
    134  CD1      275.5080  195.2480   -7.6360 C.ar  235  TYR235     -0.0009
    135  CD2      274.0340  193.8590   -6.3780 C.ar  235  TYR235     -0.0009
    136  CE1      275.3760  196.2540   -6.6920 C.ar  235  TYR235      0.0417
    137  CE2      273.8970  194.8570   -5.4290 C.ar  235  TYR235      0.0417
    138  CZ       274.5750  196.0510   -5.5900 C.ar  235  TYR235      0.1957
    139  OH       274.4470  197.0410   -4.6450 O.3   235  TYR235     -0.2866
    140  N        275.9330  201.3270    2.1250 N.3   261  GLY261     -0.1225
    141  CA       275.8760  202.0070    3.4230 C.3   261  GLY261      0.1811
    142  C        274.9630  201.2550    4.3720 C.2   261  GLY261      0.2280
    143  O        274.1540  200.4450    3.9410 O.2   261  GLY261     -0.2866
    144  N        272.2510  201.6700    6.0530 N.3   263  ASP263     -0.1225
    145  CA       270.7800  201.7240    5.9600 C.3   263  ASP263      0.1805
    146  C        270.1440  200.7310    4.9950 C.2   263  ASP263      0.2597
    147  O        268.9560  200.4370    5.1160 O.2   263  ASP263     -0.2718
    148  CB       270.3040  203.1100    5.5420 C.3   263  ASP263      0.1424
    149  CG       270.8620  203.5280    4.1970 C.2   263  ASP263      0.3668
    150  OD1      272.0450  203.1870    3.9370 O.co2 263  ASP263     -0.2456
    151  OD2      270.1260  204.1800    3.4140 O.co2 263  ASP263     -0.2456
    152  N        270.9080  200.2520    4.0210 N.am  264  ILE264     -0.1980
    153  CA       270.3840  199.3230    3.0170 C.3   264  ILE264      0.1595
    154  C        270.9450  197.9180    3.1830 C.2   264  ILE264      0.2287
    155  O        270.8110  197.0910    2.2810 O.2   264  ILE264     -0.2864
    156  CB       270.6340  199.8370    1.5880 C.3   264  ILE264      0.0276
    157  CG1      272.1380  200.0120    1.3050 C.3   264  ILE264      0.0022
    158  CG2      269.8560  201.1360    1.3780 C.3   264  ILE264      0.0022
    159  CD1      272.4390  200.4350   -0.1120 C.3   264  ILE264      0.0001
    160  N        270.7260  193.7470    1.1830 N.3   268  HIS268     -0.1241
    161  CA       271.9260  193.0910    0.6810 C.3   268  HIS268      0.1621
    162  C        272.3300  191.8270    1.4330 C.2   268  HIS268      0.2264
    163  O        272.8850  190.9350    0.8330 O.2   268  HIS268     -0.2867
    164  CB       273.0920  194.0740    0.6410 C.3   268  HIS268      0.0745
    165  CG       272.9800  195.0780   -0.4660 C.ar  268  HIS268      0.0817
    166  ND1      272.2130  196.2200   -0.3600 N.ar  268  HIS268     -0.2268
    167  CD2      273.5100  195.0980   -1.7110 C.ar  268  HIS268      0.1154
    168  CE1      272.2780  196.8980   -1.4900 C.ar  268  HIS268      0.1986
    169  NE2      273.0580  196.2410   -2.3280 N.ar  268  HIS268     -0.2212
    170  N        279.3620  200.7640    4.9490 N.3   290  HIS290     -0.1226
    171  CA       280.0360  201.9200    5.4570 C.3   290  HIS290      0.1752
    172  C        279.0720  202.7890    6.2480 C.2   290  HIS290      0.2597
    173  O        277.8820  202.6980    6.0760 O.2   290  HIS290     -0.2718
    174  CB       280.6940  202.6940    4.3290 C.3   290  HIS290      0.0759
    175  CG       279.7360  203.2980    3.3620 C.ar  290  HIS290      0.0818
    176  ND1      278.9510  204.3760    3.6720 N.ar  290  HIS290     -0.2268
    177  CD2      279.4510  202.9870    2.0850 C.ar  290  HIS290      0.1154
    178  CE1      278.2120  204.6960    2.6340 C.ar  290  HIS290      0.1986
    179  NE2      278.5030  203.8730    1.6540 N.ar  290  HIS290     -0.2212
    180  N        279.6100  203.6130    7.1300 N.am  291  GLY291     -0.1942
    181  CA       278.8470  204.4910    7.9760 C.3   291  GLY291      0.2014
    182  C        278.3800  205.7760    7.3640 C.2   291  GLY291      0.2639
    183  O        278.8040  206.1320    6.3030 O.2   291  GLY291     -0.2714
    184  N        277.4880  206.4660    8.0510 N.am  292  PHE292     -0.1959
    185  CA       276.9740  207.7300    7.5670 C.3   292  PHE292      0.1771
    186  C        277.9240  208.8970    7.7480 C.2   292  PHE292      0.2619
    187  O        278.8680  208.8230    8.4770 O.2   292  PHE292     -0.2715
    188  CB       275.6900  208.0540    8.2760 C.3   292  PHE292      0.0574
    189  CG       274.5580  207.1810    7.8870 C.ar  292  PHE292     -0.0200
    190  CD1      274.1130  207.1590    6.5900 C.ar  292  PHE292     -0.0042
    191  CD2      273.9230  206.4060    8.8190 C.ar  292  PHE292     -0.0042
    192  CE1      273.0550  206.3750    6.2190 C.ar  292  PHE292     -0.0003
    193  CE2      272.8650  205.6190    8.4610 C.ar  292  PHE292     -0.0003
    194  CZ       272.4270  205.6070    7.1590 C.ar  292  PHE292     -0.0000
    195  N        277.6550  209.9820    7.0560 N.am  293  LEU293     -0.1977
    196  CA       278.4760  211.1620    7.1550 C.3   293  LEU293      0.1596
    197  C        277.5730  212.3210    7.4830 C.2   293  LEU293      0.2287
    198  O        276.6170  212.5510    6.7930 O.2   293  LEU293     -0.2864
    199  CB       279.1400  211.3760    5.8190 C.3   293  LEU293      0.0297
    200  CG       280.2710  212.3500    5.6340 C.3   293  LEU293      0.0022
    201  CD1      281.0250  212.5010    6.9180 C.3   293  LEU293      0.0001
    202  CD2      281.1740  211.7960    4.5680 C.3   293  LEU293      0.0001
    203  N        272.6290  214.8140   10.7730 N.3   298  GLU298     -0.1231
    204  CA       272.4700  214.1450    9.4840 C.3   298  GLU298      0.1699
    205  C        272.0830  215.2480    8.5040 C.2   298  GLU298      0.2592
    206  O        271.2840  216.1210    8.8460 O.2   298  GLU298     -0.2718
    207  CB       271.3780  213.0750    9.5520 C.3   298  GLU298      0.0402
    208  CG       271.2220  212.2440    8.2950 C.3   298  GLU298      0.1161
    209  CD       272.4340  211.3810    7.9990 C.2   298  GLU298      0.3649
    210  OE1      273.1240  210.9750    8.9650 O.co2 298  GLU298     -0.2457
    211  OE2      272.6960  211.1180    6.8030 O.co2 298  GLU298     -0.2457
    212  N        272.5340  215.1890    7.2570 N.am  299  LYS299     -0.1980
    213  CA       272.1590  216.2470    6.3220 C.3   299  LYS299      0.1596
    214  C        270.7150  216.1180    5.9440 C.2   299  LYS299      0.2287
    215  O        270.3190  215.1670    5.3000 O.2   299  LYS299     -0.2864
    216  CB       272.9530  216.1200    5.0380 C.3   299  LYS299      0.0298
    217  CG       274.4340  215.9270    5.2220 C.3   299  LYS299      0.0038
    218  CD       275.0990  215.7010    3.8870 C.3   299  LYS299      0.0206
    219  CE       276.5350  215.3270    4.0920 C.3   299  LYS299      0.1093
    220  NZ       277.1440  216.1750    5.1370 N.3   299  LYS299     -0.1314
@<TRIPOS>BOND
     1   123   122    2
     2   121   122    1
     3   121   124    1
     4   121   120    1
     5   131   130    2
     6   122   128   am
     7   124   125    1
     8   130   129    1
     9   128   129    1
    10   126   125    2
    11    78    77    1
    12    78    79    2
    13   129   132    1
    14   125   127   am
    15    76    77    1
    16    77    80    1
    17    13    11    1
    18    12    10    1
    19    82    81   ar
    20   107   108    1
    21   132   133    1
    22   110   109    2
    23    10    11    1
    24    10     7    1
    25   108   109    1
    26   108   111    1
    27    17    16    2
    28    80    81    1
    29   109   112   am
    30   115   114    2
    31   114   113    1
    32    81    83   ar
    33   134   133   ar
    34   134   136   ar
    35   133   135   ar
    36    21    20    1
    37    21    22    2
    38     7     8    1
    39     7     6    1
    40   112   113    1
    41    14     8   am
    42    14    15    1
    43    16    15    1
    44    16    19   am
    45   136   138   ar
    46    20    19    1
    47    20    23    1
    48     8     9    2
    49   113   116    1
    50   135   137   ar
    51    18    15    1
    52     6     3   am
    53    86    87    2
    54    86    85    1
    55    25    27   ar
    56    25    24   ar
    57     4     3    2
    58    23    24    1
    59   138   137   ar
    60   138   139    1
    61   116   117    1
    62    96    95    2
    63    95    94    1
    64     3     2    1
    65    84    85    1
    66    93    94    1
    67    27    29   ar
    68    24    26   ar
    69    85    88    1
    70    94    97    1
    71     2     1    1
    72     2     5    1
    73   117   119    1
    74   117   118    1
    75    88    89    1
    76    29    30    1
    77    29    28   ar
    78    26    28   ar
    79    49    50    1
    80    49    46    1
    81    89    90    1
    82    50    52   ar
    83    50    51   ar
    84    52    54   ar
    85    97    98    1
    86    51    53   ar
    87    54    53   ar
    88    48    47    2
    89    31    32    1
    90    47    46    1
    91    70    69    2
    92    74    73   ar
    93    90    91    1
    94    69    68    1
    95    98   100   ar
    96    98    99   ar
    97   103   100   ar
    98   103   105   ar
    99    46    45    1
   100   169   167   ar
   101   169   168   ar
   102    34    33    2
   103   100   102   ar
   104    99   101   ar
   105   105   106   ar
   106    73    72    1
   107    73    75   ar
   108    32    33    1
   109    32    35    1
   110    91    92    1
   111   167   165   ar
   112    72    71    1
   113   102   101   ar
   114   102   104   ar
   115    71    68    1
   116   168   166   ar
   117    68    67    1
   118   106   104   ar
   119    45    43   am
   120    55    56    1
   121    67    57   am
   122    58    57    2
   123    57    56    1
   124    35    36    1
   125   165   166   ar
   126   165   164    1
   127    37    36   ar
   128    37    39   ar
   129    36    38   ar
   130    39    40   ar
   131   159   157    1
   132    56    59    1
   133    43    44    2
   134    43    42    1
   135    38    40   ar
   136   164   161    1
   137   161   160    1
   138   161   162    1
   139   163   162    2
   140    41    42    1
   141    59    60    1
   142   157   156    1
   143   158   156    1
   144   156   153    1
   145   179   177   ar
   146   179   178   ar
   147   177   175   ar
   148   140   141    1
   149   155   154    2
   150    60    61   ar
   151    60    62   ar
   152    61    63   ar
   153   178   176   ar
   154   153   154    1
   155   153   152    1
   156   175   176   ar
   157   175   174    1
   158   151   149   ar
   159   141   142    1
   160    62    64   ar
   161    63    65   ar
   162   218   219    1
   163   218   217    1
   164   150   149   ar
   165   143   142    2
   166   152   146   am
   167   219   220    1
   168   149   148    1
   169   174   171    1
   170    64    65   ar
   171   202   200    1
   172    65    66    1
   173   170   171    1
   174   146   147    2
   175   146   145    1
   176   216   217    1
   177   216   213    1
   178   215   214    2
   179   171   172    1
   180   148   145    1
   181   200   199    1
   182   200   201    1
   183   199   196    1
   184   214   213    1
   185   145   144    1
   186   173   172    2
   187   192   190   ar
   188   192   194   ar
   189   172   180   am
   190   183   182    2
   191   213   212    1
   192   190   189   ar
   193   198   197    2
   194   211   209   ar
   195   195   196    1
   196   195   186   am
   197   180   181    1
   198   196   197    1
   199   194   193   ar
   200   212   205   am
   201   182   181    1
   202   182   184   am
   203   185   186    1
   204   185   184    1
   205   185   188    1
   206   186   187    2
   207   189   188    1
   208   189   191   ar
   209   209   208    1
   210   209   210   ar
   211   208   207    1
   212   193   191   ar
   213   205   206    2
   214   205   204    1
   215   204   207    1
   216   204   203    1
