@<TRIPOS>MOLECULE
tmp/6axaA00.pdb
 93 87 0 0 0
SMALL
GASTEIGER

@<TRIPOS>ATOM
      1  N          1.0910   22.6560   49.9600 N.3   113  LEU113     -0.1231
      2  CA        -0.2570   23.1840   50.1940 C.3   113  LEU113      0.1693
      3  C         -0.1700   24.6320   50.6790 C.2   113  LEU113      0.2592
      4  O          0.6990   24.9720   51.4990 O.2   113  LEU113     -0.2718
      5  CB        -0.9850   22.3140   51.2070 C.3   113  LEU113      0.0284
      6  CG        -1.5310   20.9800   50.6560 C.3   113  LEU113      0.0019
      7  CD1       -1.5490   19.9670   51.7540 C.3   113  LEU113      0.0001
      8  CD2       -2.9130   21.2200   50.1630 C.3   113  LEU113      0.0001
      9  N         -1.0390   25.5010   50.1530 N.am  114  ALA114     -0.1966
     10  CA        -0.9710   26.9340   50.4570 C.3   114  ALA114      0.1728
     11  C         -2.3580   27.5670   50.5400 C.2   114  ALA114      0.2616
     12  O         -3.3350   27.0260   50.0260 O.2   114  ALA114     -0.2715
     13  CB        -0.1450   27.6790   49.4010 C.3   114  ALA114      0.0334
     14  N         -2.4210   28.7340   51.1930 N.am  115  GLY115     -0.1955
     15  CA        -3.6300   29.5630   51.1910 C.3   115  GLY115      0.1869
     16  C         -3.6250   30.5690   50.0470 C.2   115  GLY115      0.2309
     17  O         -2.5800   31.1220   49.6780 O.2   115  GLY115     -0.2863
     18  N          5.3020   32.4030   55.2490 N.3   192  ASN192     -0.1240
     19  CA         4.9000   32.5620   56.6570 C.3   192  ASN192      0.1653
     20  C          5.6570   31.5290   57.4870 C.2   192  ASN192      0.2266
     21  O          5.4400   30.3290   57.3370 O.2   192  ASN192     -0.2867
     22  CB         3.3780   32.3360   56.7470 C.3   192  ASN192      0.1155
     23  CG         2.8420   32.1710   58.1600 C.2   192  ASN192      0.2627
     24  OD1        3.3660   32.7000   59.1590 O.2   192  ASN192     -0.2716
     25  ND2        1.7150   31.4250   58.2400 N.am  192  ASN192     -0.0877
     26  N         -1.8560   29.4780   61.0650 N.3   197  TYR197     -0.1227
     27  CA        -2.3380   30.0210   59.8010 C.3   197  TYR197      0.1736
     28  C         -2.3020   31.5420   59.9050 C.2   197  TYR197      0.2595
     29  O         -2.5110   32.0970   60.9860 O.2   197  TYR197     -0.2718
     30  CB        -3.7750   29.5360   59.5100 C.3   197  TYR197      0.0548
     31  CG        -3.8760   28.0210   59.2450 C.ar  197  TYR197     -0.0200
     32  CD1       -3.3890   27.4760   58.0580 C.ar  197  TYR197     -0.0009
     33  CD2       -4.4140   27.1570   60.1830 C.ar  197  TYR197     -0.0009
     34  CE1       -3.4510   26.0930   57.8150 C.ar  197  TYR197      0.0417
     35  CE2       -4.4990   25.7780   59.9380 C.ar  197  TYR197      0.0417
     36  CZ        -3.9790   25.2670   58.7620 C.ar  197  TYR197      0.1957
     37  OH        -4.0510   23.8820   58.5320 O.3   197  TYR197     -0.2866
     38  N         -2.0360   32.2150   58.7810 N.am  198  GLU198     -0.1979
     39  CA        -2.1890   33.6790   58.7510 C.3   198  GLU198      0.1602
     40  C         -3.5420   34.1170   59.3230 C.2   198  GLU198      0.2287
     41  O         -4.6030   33.5670   58.9920 O.2   198  GLU198     -0.2864
     42  CB        -2.0030   34.2020   57.2970 C.3   198  GLU198      0.0415
     43  CG        -3.1800   33.9250   56.2840 C.3   198  GLU198      0.1163
     44  CD        -3.1700   32.5730   55.6840 C.2   198  GLU198      0.3649
     45  OE1       -2.3670   31.7610   56.1280 O.co2 198  GLU198     -0.2457
     46  OE2       -4.0030   32.2530   54.7670 O.co2 198  GLU198     -0.2457
     47  N          0.1870   31.9670   50.2330 N.3   214  VAL214     -0.1231
     48  CA         0.9680   31.9700   51.4770 C.3   214  VAL214      0.1692
     49  C          1.1490   30.5400   51.9950 C.2   214  VAL214      0.2593
     50  O          0.2000   29.7410   52.0070 O.2   214  VAL214     -0.2718
     51  CB         0.3240   32.8830   52.5550 C.3   214  VAL214      0.0266
     52  CG1       -1.1320   32.5240   52.8020 C.3   214  VAL214      0.0020
     53  CG2        1.1530   32.8740   53.8600 C.3   214  VAL214      0.0020
     54  N          2.3930   30.1910   52.3710 N.am  215  GLY215     -0.1942
     55  CA         2.6980   28.8950   52.9730 C.3   215  GLY215      0.2014
     56  C          3.8910   28.9200   53.9200 C.2   215  GLY215      0.2638
     57  O          4.5880   29.9300   54.0310 O.2   215  GLY215     -0.2714
     58  N          4.1320   27.7610   54.5710 N.am  216  MET216     -0.1976
     59  CA         5.1390   27.6090   55.6210 C.3   216  MET216      0.1605
     60  C          6.3500   26.7620   55.2200 C.2   216  MET216      0.2287
     61  O          7.0580   26.2620   56.1030 O.2   216  MET216     -0.2864
     62  CB         4.4980   26.9860   56.8780 C.3   216  MET216      0.0413
     63  CG         3.3080   27.7140   57.4230 C.3   216  MET216      0.0598
     64  SD         2.4690   26.7040   58.7200 S.3   216  MET216     -0.1393
     65  CE         0.8700   27.5350   58.7920 C.3   216  MET216      0.0692
     66  N         -5.7390   25.4870   49.0790 N.3   239  ALA239     -0.1231
     67  CA        -6.7850   24.8530   49.8850 C.3   239  ALA239      0.1694
     68  C         -8.0050   25.7460   50.1150 C.2   239  ALA239      0.2592
     69  O         -9.0920   25.2230   50.3640 O.2   239  ALA239     -0.2718
     70  CB        -6.1980   24.4310   51.2380 C.3   239  ALA239      0.0304
     71  N         -7.8570   27.0660   49.9860 N.am  240  ASN240     -0.1974
     72  CA        -8.8870   28.0310   50.3600 C.3   240  ASN240      0.1688
     73  C         -8.4800   29.3970   49.8360 C.2   240  ASN240      0.2292
     74  O         -7.3250   29.5980   49.4480 O.2   240  ASN240     -0.2864
     75  CB        -9.0560   28.0730   51.8860 C.3   240  ASN240      0.1181
     76  CG        -7.8410   28.6640   52.6100 C.2   240  ASN240      0.2629
     77  OD1       -6.7070   28.1920   52.4570 O.2   240  ASN240     -0.2716
     78  ND2       -8.0740   29.7160   53.4180 N.am  240  ASN240     -0.0877
     79  N        -10.2370   28.2200   58.3810 N.3   252  ILE252     -0.1245
     80  CA        -9.5510   27.0610   57.8130 C.3   252  ILE252      0.1561
     81  C         -9.0380   26.2020   58.9700 C.2   252  ILE252      0.2260
     82  O         -8.9110   26.6660   60.1100 O.2   252  ILE252     -0.2867
     83  CB        -8.4010   27.5200   56.8690 C.3   252  ILE252      0.0252
     84  CG1       -7.7950   26.3580   56.0490 C.3   252  ILE252      0.0019
     85  CG2       -7.3440   28.2760   57.6730 C.3   252  ILE252      0.0019
     86  CD1       -8.7800   25.6990   55.0670 C.3   252  ILE252      0.0001
     87  N         -7.7320   21.1910   54.9820 N.3   257  VAL257     -0.1245
     88  CA        -6.6140   21.2050   54.0440 C.3   257  VAL257      0.1561
     89  C         -6.3560   19.8060   53.4890 C.2   257  VAL257      0.2260
     90  O         -6.1730   19.6350   52.2800 O.2   257  VAL257     -0.2867
     91  CB        -5.3640   21.7900   54.7320 C.3   257  VAL257      0.0252
     92  CG1       -4.1140   21.5550   53.8900 C.3   257  VAL257      0.0019
     93  CG2       -5.5530   23.3040   54.9690 C.3   257  VAL257      0.0019
@<TRIPOS>BOND
     1    66    67    1
     2    13    10    1
     3    74    73    2
     4    17    16    2
     5    73    72    1
     6    67    68    1
     7    67    70    1
     8     1     2    1
     9    71    68   am
    10    71    72    1
    11    12    11    2
    12    16    15    1
    13    68    69    2
    14     9    10    1
    15     9     3   am
    16     8     6    1
    17     2     3    1
    18     2     5    1
    19    47    48    1
    20    72    75    1
    21    10    11    1
    22    11    14   am
    23     6     5    1
    24     6     7    1
    25     3     4    2
    26    15    14    1
    27    48    49    1
    28    48    51    1
    29    75    76    1
    30    49    50    2
    31    49    54   am
    32    90    89    2
    33    54    55    1
    34    77    76    2
    35    51    52    1
    36    51    53    1
    37    76    78   am
    38    55    56    1
    39    89    88    1
    40    92    91    1
    41    56    57    2
    42    56    58   am
    43    88    91    1
    44    88    87    1
    45    58    59    1
    46    91    93    1
    47    46    44   ar
    48    86    84    1
    49    60    59    1
    50    60    61    2
    51    18    19    1
    52    59    62    1
    53    44    45   ar
    54    44    43    1
    55    84    83    1
    56    43    42    1
    57    19    22    1
    58    19    20    1
    59    22    23    1
    60    83    85    1
    61    83    80    1
    62    62    63    1
    63    42    39    1
    64    21    20    2
    65    63    64    1
    66    80    79    1
    67    80    81    1
    68    34    32   ar
    69    34    36   ar
    70    32    31   ar
    71    23    25   am
    72    23    24    2
    73    37    36    1
    74    64    65    1
    75    39    38    1
    76    39    40    1
    77    36    35   ar
    78    38    28   am
    79    81    82    2
    80    41    40    2
    81    31    30    1
    82    31    33   ar
    83    30    27    1
    84    27    28    1
    85    27    26    1
    86    28    29    2
    87    35    33   ar
