@<TRIPOS>MOLECULE
tmp/6axbA00.pdb
 162 152 0 0 0
SMALL
GASTEIGER

@<TRIPOS>ATOM
      1  N         27.1260   82.0430   61.1710 N.3   117  VAL117     -0.1245
      2  CA        28.0390   81.7490   60.0700 C.3   117  VAL117      0.1561
      3  C         27.6120   80.4440   59.4090 C.2   117  VAL117      0.2260
      4  O         27.3800   79.4430   60.1000 O.2   117  VAL117     -0.2867
      5  CB        29.4950   81.6570   60.5570 C.3   117  VAL117      0.0252
      6  CG1       30.4360   81.5560   59.3730 C.3   117  VAL117      0.0019
      7  CG2       29.8330   82.8590   61.3980 C.3   117  VAL117      0.0019
      8  N         28.1630   77.8910   55.6050 N.3   119  PRO119     -0.2116
      9  CA        28.9230   77.6670   54.3650 C.3   119  PRO119      0.1372
     10  C         28.0880   78.0630   53.1530 C.2   119  PRO119      0.2244
     11  O         27.0090   77.5030   52.9200 O.2   119  PRO119     -0.2868
     12  CB        29.2080   76.1590   54.3880 C.3   119  PRO119      0.0268
     13  CG        28.7470   75.6550   55.6690 C.3   119  PRO119      0.0207
     14  CD        27.8080   76.6270   56.2710 C.3   119  PRO119      0.0892
     15  N         35.1470   81.1260   53.1830 N.3   272  GLU272     -0.1231
     16  CA        36.4630   80.7810   53.7170 C.3   272  GLU272      0.1699
     17  C         36.4370   79.4600   54.4850 C.2   272  GLU272      0.2592
     18  O         36.2210   78.4020   53.8810 O.2   272  GLU272     -0.2718
     19  CB        36.9930   81.9330   54.5840 C.3   272  GLU272      0.0402
     20  CG        38.5130   81.9090   54.7810 C.3   272  GLU272      0.1161
     21  CD        38.9310   82.1950   56.2280 C.2   272  GLU272      0.3649
     22  OE1       38.0840   82.1140   57.1610 O.co2 272  GLU272     -0.2457
     23  OE2       40.1260   82.4870   56.4440 O.co2 272  GLU272     -0.2457
     24  N         36.5970   79.4870   55.8160 N.am  273  ASP273     -0.1960
     25  CA        37.0560   78.2820   56.5030 C.3   273  ASP273      0.1840
     26  C         35.9960   77.1950   56.6570 C.2   273  ASP273      0.2622
     27  O         36.3530   76.0680   57.0170 O.2   273  ASP273     -0.2715
     28  CB        37.6290   78.6240   57.8920 C.3   273  ASP273      0.1450
     29  CG        39.1320   78.8600   57.8500 C.2   273  ASP273      0.3671
     30  OD1       39.7430   79.0260   58.9300 O.co2 273  ASP273     -0.2456
     31  OD2       39.7010   78.9100   56.7170 O.co2 273  ASP273     -0.2456
     32  N         34.7190   77.4740   56.4020 N.am  274  SER274     -0.1950
     33  CA        33.7130   76.4220   56.4770 C.3   274  SER274      0.1924
     34  C         33.3860   75.8050   55.1140 C.2   274  SER274      0.2314
     35  O         32.4530   74.9990   55.0310 O.2   274  SER274     -0.2863
     36  CB        32.4340   76.9400   57.1470 C.3   274  SER274      0.2116
     37  OG        31.7090   77.8670   56.3460 O.3   274  SER274     -0.2180
     38  N         31.9020   86.4950   53.8810 N.3   330  ARG330     -0.1245
     39  CA        33.2960   86.3700   54.2970 C.3   330  ARG330      0.1563
     40  C         34.1090   85.9250   53.0890 C.2   330  ARG330      0.2260
     41  O         33.9640   84.7860   52.6260 O.2   330  ARG330     -0.2867
     42  CB        33.4840   85.3910   55.4580 C.3   330  ARG330      0.0307
     43  CG        34.9560   85.2560   55.8650 C.3   330  ARG330      0.0489
     44  CD        35.1680   84.7890   57.3000 C.3   330  ARG330      0.2205
     45  NE        34.8500   83.3790   57.4890 N.pl3 330  ARG330     -0.0865
     46  CZ        35.1950   82.6550   58.5510 C.cat 330  ARG330      0.5346
     47  NH1       35.9040   83.1980   59.5310 N.pl3 330  ARG330      0.1354
     48  NH2       34.8520   81.3720   58.6140 N.pl3 330  ARG330      0.1354
     49  N         38.4830   90.3750   61.2080 N.3   421  MET421     -0.1245
     50  CA        38.8060   89.2940   62.1400 C.3   421  MET421      0.1570
     51  C         40.1240   89.6030   62.8430 C.2   421  MET421      0.2261
     52  O         41.1410   89.8680   62.1890 O.2   421  MET421     -0.2867
     53  CB        38.9230   87.9460   61.4190 C.3   421  MET421      0.0387
     54  CG        37.6920   87.4570   60.6520 C.3   421  MET421      0.0595
     55  SD        36.1980   87.2020   61.6450 S.3   421  MET421     -0.1393
     56  CE        36.8260   86.1640   62.9980 C.3   421  MET421      0.0692
     57  N         42.3940   87.5250   64.4840 N.3   423  GLU423     -0.1245
     58  CA        42.6330   86.0940   64.6120 C.3   423  GLU423      0.1567
     59  C         44.0680   85.7410   64.2450 C.2   423  GLU423      0.2260
     60  O         44.3670   84.5700   63.9890 O.2   423  GLU423     -0.2867
     61  CB        41.6440   85.2960   63.7660 C.3   423  GLU423      0.0388
     62  CG        41.7620   85.5130   62.2450 C.3   423  GLU423      0.1160
     63  CD        40.6370   84.8700   61.4900 C.2   423  GLU423      0.3649
     64  OE1       40.4760   85.1470   60.2850 O.co2 423  GLU423     -0.2457
     65  OE2       39.9170   84.0550   62.0870 O.co2 423  GLU423     -0.2457
     66  N         38.4620   85.8790   66.3270 N.3   448  GLY448     -0.1210
     67  CA        38.5030   84.5300   65.8080 C.3   448  GLY448      0.1956
     68  C         39.4770   83.6560   66.5740 C.2   448  GLY448      0.2612
     69  O         40.6040   83.4190   66.1160 O.2   448  GLY448     -0.2717
     70  N         39.0290   83.1270   67.7230 N.am  449  PHE449     -0.1962
     71  CA        39.9610   82.5500   68.6950 C.3   449  PHE449      0.1771
     72  C         40.5940   81.2580   68.1960 C.2   449  PHE449      0.2619
     73  O         41.6950   80.9200   68.6300 O.2   449  PHE449     -0.2715
     74  CB        39.2670   82.3090   70.0550 C.3   449  PHE449      0.0574
     75  CG        38.3260   81.1210   70.0790 C.ar  449  PHE449     -0.0200
     76  CD1       38.6610   79.9620   70.7760 C.ar  449  PHE449     -0.0042
     77  CD2       37.0980   81.1730   69.4310 C.ar  449  PHE449     -0.0042
     78  CE1       37.8020   78.8730   70.8050 C.ar  449  PHE449     -0.0003
     79  CE2       36.2310   80.0860   69.4500 C.ar  449  PHE449     -0.0003
     80  CZ        36.5910   78.9320   70.1370 C.ar  449  PHE449     -0.0000
     81  N         39.9470   80.5310   67.2830 N.am  450  LEU450     -0.1963
     82  CA        40.5400   79.2700   66.8480 C.3   450  LEU450      0.1728
     83  C         41.7510   79.5310   65.9630 C.2   450  LEU450      0.2616
     84  O         42.8520   79.0170   66.2260 O.2   450  LEU450     -0.2715
     85  CB        39.4930   78.4070   66.1450 C.3   450  LEU450      0.0311
     86  CG        38.3210   77.9690   67.0400 C.3   450  LEU450      0.0022
     87  CD1       37.1460   77.4520   66.2000 C.3   450  LEU450      0.0001
     88  CD2       38.7480   76.9230   68.0700 C.3   450  LEU450      0.0001
     89  N         41.5830   80.3660   64.9330 N.am  451  ASP451     -0.1971
     90  CA        42.7320   80.7690   64.1250 C.3   451  ASP451      0.1709
     91  C         43.8050   81.3880   64.9990 C.2   451  ASP451      0.2293
     92  O         44.9970   81.1140   64.8180 O.2   451  ASP451     -0.2864
     93  CB        42.3230   81.7670   63.0420 C.3   451  ASP451      0.1436
     94  CG        42.0440   81.0910   61.7100 C.2   451  ASP451      0.3671
     95  OD1       40.9840   81.3640   61.1220 O.co2 451  ASP451     -0.2456
     96  OD2       42.8880   80.2720   61.2940 O.co2 451  ASP451     -0.2456
     97  N         33.6730   84.6360   69.5140 N.3   503  GLY503     -0.1210
     98  CA        33.8250   83.4880   68.6370 C.3   503  GLY503      0.1956
     99  C         32.7400   82.4160   68.7190 C.2   503  GLY503      0.2611
    100  O         31.7460   82.5240   69.4410 O.2   503  GLY503     -0.2717
    101  N         32.9970   81.3280   68.0010 N.am  504  MET504     -0.1979
    102  CA        32.0040   80.3150   67.6650 C.3   504  MET504      0.1605
    103  C         31.8420   79.2580   68.7560 C.2   504  MET504      0.2287
    104  O         32.8230   78.7640   69.3260 O.2   504  MET504     -0.2864
    105  CB        32.3960   79.6300   66.3580 C.3   504  MET504      0.0413
    106  CG        31.4680   78.4910   65.9170 C.3   504  MET504      0.0598
    107  SD        29.8180   79.0940   65.4820 S.3   504  MET504     -0.1393
    108  CE        30.0750   79.6860   63.8110 C.3   504  MET504      0.0692
    109  N         31.1510   75.5570   69.0920 N.3   506  THR506     -0.1218
    110  CA        31.3170   74.4440   68.1560 C.3   506  THR506      0.1862
    111  C         30.5840   73.1650   68.5540 C.2   506  THR506      0.2287
    112  O         30.4460   72.2720   67.7130 O.2   506  THR506     -0.2866
    113  CB        32.8040   74.1120   67.9790 C.3   506  THR506      0.1770
    114  OG1       33.3690   73.7950   69.2570 O.3   506  THR506     -0.2211
    115  CG2       33.5290   75.2940   67.3980 C.3   506  THR506      0.0375
    116  N         29.2880   84.3280   67.6370 N.3   530  TRP530     -0.1241
    117  CA        29.0180   83.4150   66.5330 C.3   530  TRP530      0.1605
    118  C         28.3230   82.1420   67.0030 C.2   530  TRP530      0.2264
    119  O         28.7150   81.5310   68.0070 O.2   530  TRP530     -0.2867
    120  CB        30.3200   83.0570   65.8130 C.3   530  TRP530      0.0550
    121  CG        30.8010   84.1340   64.8770 C.ar  530  TRP530      0.0003
    122  CD1       30.2970   85.3920   64.7530 C.ar  530  TRP530      0.0946
    123  CD2       31.8920   84.0410   63.9490 C.ar  530  TRP530      0.0152
    124  NE1       31.0020   86.0910   63.7960 N.ar  530  TRP530     -0.2442
    125  CE2       31.9870   85.2830   63.2900 C.ar  530  TRP530      0.0810
    126  CE3       32.7920   83.0210   63.6060 C.ar  530  TRP530      0.0012
    127  CZ2       32.9490   85.5380   62.3040 C.ar  530  TRP530      0.0191
    128  CZ3       33.7520   83.2760   62.6260 C.ar  530  TRP530      0.0001
    129  CH2       33.8210   84.5220   61.9930 C.ar  530  TRP530      0.0015
    130  N         26.4810   78.3630   65.3110 N.3   532  PRO532     -0.2116
    131  CA        26.6640   77.5050   64.1380 C.3   532  PRO532      0.1372
    132  C         25.3720   77.0920   63.4500 C.2   532  PRO532      0.2244
    133  O         25.4310   76.4540   62.4000 O.2   532  PRO532     -0.2868
    134  CB        27.3840   76.2900   64.7340 C.3   532  PRO532      0.0268
    135  CG        26.8460   76.1910   66.0990 C.3   532  PRO532      0.0207
    136  CD        26.5000   77.5870   66.5620 C.3   532  PRO532      0.0892
    137  N         32.9240   72.0020   56.5840 N.3   608  ALA608     -0.1245
    138  CA        32.5000   72.0750   57.9770 C.3   608  ALA608      0.1562
    139  C         31.6690   70.8330   58.2360 C.2   608  ALA608      0.2260
    140  O         30.6990   70.5810   57.5130 O.2   608  ALA608     -0.2867
    141  CB        31.6960   73.3420   58.2560 C.3   608  ALA608      0.0290
    142  N         31.4020   70.6830   65.6020 N.3   620  MET620     -0.1245
    143  CA        31.3090   71.2620   64.2590 C.3   620  MET620      0.1570
    144  C         32.6560   71.8960   63.9330 C.2   620  MET620      0.2261
    145  O         32.9170   73.0520   64.2660 O.2   620  MET620     -0.2867
    146  CB        30.1770   72.2740   64.1710 C.3   620  MET620      0.0387
    147  CG        29.8640   72.7030   62.7460 C.3   620  MET620      0.0595
    148  SD        29.2640   71.3530   61.7130 S.3   620  MET620     -0.1393
    149  CE        27.5060   71.4650   62.0720 C.3   620  MET620      0.0692
    150  N         35.8050   73.3610   61.6470 N.3   622  ASP622     -0.1239
    151  CA        36.2060   74.0870   60.4410 C.3   622  ASP622      0.1674
    152  C         37.7260   74.0120   60.2880 C.2   622  ASP622      0.2266
    153  O         38.4180   73.3610   61.0700 O.2   622  ASP622     -0.2867
    154  CB        35.7450   75.5440   60.4810 C.3   622  ASP622      0.1410
    155  CG        36.6570   76.4220   61.3250 C.2   622  ASP622      0.3668
    156  OD1       37.0830   75.9840   62.4240 O.co2 622  ASP622     -0.2456
    157  OD2       36.9390   77.5530   60.8870 O.co2 622  ASP622     -0.2456
    158  N         40.0240   76.2430   60.8880 N.3   624  ALA624     -0.1245
    159  CA        40.8120   76.8000   61.9860 C.3   624  ALA624      0.1562
    160  C         41.0870   75.7680   63.0740 C.2   624  ALA624      0.2260
    161  O         42.1770   75.7560   63.6570 O.2   624  ALA624     -0.2867
    162  CB        40.1220   78.0230   62.5860 C.3   624  ALA624      0.0290
@<TRIPOS>BOND
     1    41    40    2
     2    11    10    2
     3    40    39    1
     4    10     9    1
     5    15    16    1
     6    16    17    1
     7    16    19    1
     8    38    39    1
     9    18    17    2
    10    39    42    1
    11     9    12    1
    12     9     8    1
    13    12    13    1
    14    17    24   am
    15    19    20    1
    16    20    21    1
    17    35    34    2
    18    34    33    1
    19    42    43    1
    20     8    14    1
    21    13    14    1
    22    24    25    1
    23    43    44    1
    24    21    23   ar
    25    21    22   ar
    26    37    36    1
    27    32    33    1
    28    32    26   am
    29    33    36    1
    30    25    26    1
    31    25    28    1
    32   137   138    1
    33    26    27    2
    34    31    29   ar
    35    44    45    1
    36    45    46    2
    37   140   139    2
    38    29    28    1
    39    29    30   ar
    40   138   139    1
    41   138   141    1
    42    46    48    1
    43    46    47    1
    44     6     5    1
    45     3     2    1
    46     3     4    2
    47     2     5    1
    48     2     1    1
    49    64    63   ar
    50   152   151    1
    51   152   153    2
    52   151   154    1
    53   151   150    1
    54   154   155    1
    55     5     7    1
    56    54    53    1
    57    54    55    1
    58   157   155   ar
    59   158   159    1
    60    95    94   ar
    61    49    50    1
    62    96    94   ar
    63   155   156   ar
    64    53    50    1
    65    63    65   ar
    66    63    62    1
    67    55    56    1
    68    94    93    1
    69   148   149    1
    70   148   147    1
    71   159   162    1
    72   159   160    1
    73   129   127   ar
    74   129   128   ar
    75    50    51    1
    76    52    51    2
    77    62    61    1
    78   127   125   ar
    79   133   132    2
    80   128   126   ar
    81   147   146    1
    82    93    90    1
    83   160   161    2
    84   125   124   ar
    85   125   123   ar
    86   132   131    1
    87   126   123   ar
    88    61    58    1
    89   124   122   ar
    90   108   107    1
    91   144   143    1
    92   144   145    2
    93   123   121   ar
    94    60    59    2
    95    90    89    1
    96    90    91    1
    97   131   134    1
    98   131   130    1
    99   146   143    1
   100    59    58    1
   101   143   142    1
   102    57    58    1
   103   134   135    1
   104   122   121   ar
   105    92    91    2
   106   121   120    1
   107    89    83   am
   108   130   136    1
   109   107   106    1
   110    67    66    1
   111    67    68    1
   112   120   117    1
   113   106   105    1
   114    83    84    2
   115    83    82    1
   116   135   136    1
   117    69    68    2
   118    85    82    1
   119    85    86    1
   120    87    86    1
   121   105   102    1
   122   117   118    1
   123   117   116    1
   124    68    70   am
   125    82    81    1
   126   118   119    2
   127    86    88    1
   128    81    72   am
   129   115   113    1
   130   102   101    1
   131   102   103    1
   132   112   111    2
   133    70    71    1
   134   113   110    1
   135   113   114    1
   136   101    99   am
   137   110   111    1
   138   110   109    1
   139    72    73    2
   140    72    71    1
   141    98    99    1
   142    98    97    1
   143    71    74    1
   144    99   100    2
   145   103   104    2
   146    77    79   ar
   147    77    75   ar
   148    79    80   ar
   149    74    75    1
   150    75    76   ar
   151    80    78   ar
   152    76    78   ar
