@<TRIPOS>MOLECULE
tmp/6axbA02.pdb
 89 83 0 0 0
SMALL
GASTEIGER

@<TRIPOS>ATOM
      1  N         51.7040  102.3630   68.8540 N.3    93  GLU93      -0.1245
      2  CA        50.2620  102.4980   68.9840 C.3    93  GLU93       0.1567
      3  C         49.8370  103.9230   68.6410 C.2    93  GLU93       0.2260
      4  O         50.3840  104.8770   69.2020 O.2    93  GLU93      -0.2867
      5  CB        49.8450  102.1430   70.3990 C.3    93  GLU93       0.0388
      6  CG        48.4210  102.4680   70.7440 C.3    93  GLU93       0.1160
      7  CD        48.0390  101.8980   72.0930 C.2    93  GLU93       0.3649
      8  OE1       48.3310  100.6990   72.3240 O.co2  93  GLU93      -0.2457
      9  OE2       47.4680  102.6500   72.9250 O.co2  93  GLU93      -0.2457
     10  N         44.5690  108.1760   70.1870 N.3    96  ASP96      -0.1225
     11  CA        43.1540  107.8280   70.2700 C.3    96  ASP96       0.1805
     12  C         42.3970  108.4220   69.0870 C.2    96  ASP96       0.2597
     13  O         42.7210  109.5070   68.6010 O.2    96  ASP96      -0.2718
     14  CB        42.5410  108.3300   71.5860 C.3    96  ASP96       0.1424
     15  CG        43.0200  107.5490   72.8100 C.2    96  ASP96       0.3668
     16  OD1       43.4280  108.1970   73.8000 O.co2  96  ASP96      -0.2456
     17  OD2       42.9630  106.2980   72.7980 O.co2  96  ASP96      -0.2456
     18  N         41.3980  107.6860   68.6000 N.am   97  PHE97      -0.1976
     19  CA        40.5980  108.1260   67.4650 C.3    97  PHE97       0.1639
     20  C         39.2180  107.4970   67.5910 C.2    97  PHE97       0.2290
     21  O         39.0180  106.5450   68.3510 O.2    97  PHE97      -0.2864
     22  CB        41.2630  107.7520   66.1280 C.3    97  PHE97       0.0560
     23  CG        41.2480  106.2800   65.8520 C.ar   97  PHE97      -0.0200
     24  CD1       40.2620  105.7210   65.0420 C.ar   97  PHE97      -0.0042
     25  CD2       42.1960  105.4470   66.4370 C.ar   97  PHE97      -0.0042
     26  CE1       40.2270  104.3610   64.8130 C.ar   97  PHE97      -0.0003
     27  CE2       42.1740  104.0850   66.2200 C.ar   97  PHE97      -0.0003
     28  CZ        41.1850  103.5330   65.4160 C.ar   97  PHE97      -0.0000
     29  N         44.7840   98.4060   67.5510 N.3   432  LYS432     -0.1245
     30  CA        44.3640   99.7990   67.4160 C.3   432  LYS432      0.1561
     31  C         44.7600  100.3640   66.0550 C.2   432  LYS432      0.2260
     32  O         43.9460  101.0010   65.3750 O.2   432  LYS432     -0.2867
     33  CB        44.9580  100.6410   68.5410 C.3   432  LYS432      0.0271
     34  CG        44.6600  102.1300   68.4350 C.3   432  LYS432      0.0035
     35  CD        45.1450  102.8670   69.6850 C.3   432  LYS432      0.0206
     36  CE        44.4290  104.1900   69.9020 C.3   432  LYS432      0.1093
     37  NZ        44.9810  104.9200   71.0820 N.3   432  LYS432     -0.1314
     38  N         42.4140   98.8030   63.3220 N.3   435  ILE435     -0.1245
     39  CA        41.1430   99.5240   63.2710 C.3   435  ILE435      0.1561
     40  C         41.3200  100.8760   62.5880 C.2   435  ILE435      0.2260
     41  O         40.5130  101.2730   61.7350 O.2   435  ILE435     -0.2867
     42  CB        40.5760   99.6990   64.6960 C.3   435  ILE435      0.0252
     43  CG1       40.3110   98.3420   65.3570 C.3   435  ILE435      0.0019
     44  CG2       39.3270  100.5590   64.6530 C.3   435  ILE435      0.0019
     45  CD1       39.7750   98.4320   66.7730 C.3   435  ILE435      0.0001
     46  N         41.5290   92.6100   75.3950 N.3   484  HIS484     -0.1241
     47  CA        42.1890   93.6310   74.5760 C.3   484  HIS484      0.1621
     48  C         41.3430   94.0100   73.3690 C.2   484  HIS484      0.2264
     49  O         41.2780   95.1880   72.9910 O.2   484  HIS484     -0.2867
     50  CB        43.5650   93.1260   74.1370 C.3   484  HIS484      0.0745
     51  CG        44.3230   94.0730   73.2590 C.ar  484  HIS484      0.0817
     52  ND1       44.9580   95.1980   73.7450 N.ar  484  HIS484     -0.2268
     53  CD2       44.5820   94.0420   71.9270 C.ar  484  HIS484      0.1154
     54  CE1       45.5690   95.8200   72.7510 C.ar  484  HIS484      0.1986
     55  NE2       45.3480   95.1450   71.6370 N.ar  484  HIS484     -0.2212
     56  N         38.3940   96.2470   74.5680 N.3   487  ASP487     -0.1225
     57  CA        38.9160   97.5670   74.9180 C.3   487  ASP487      0.1805
     58  C         39.2020   98.4030   73.6650 C.2   487  ASP487      0.2597
     59  O         38.8000   99.5710   73.5780 O.2   487  ASP487     -0.2718
     60  CB        40.1840   97.4300   75.7640 C.3   487  ASP487      0.1424
     61  CG        39.9340   96.8280   77.1460 C.2   487  ASP487      0.3668
     62  OD1       38.7670   96.7150   77.5980 O.co2 487  ASP487     -0.2456
     63  OD2       40.9320   96.4520   77.7870 O.co2 487  ASP487     -0.2456
     64  N         39.9010   97.8190   72.6820 N.am  488  ALA488     -0.1979
     65  CA        40.2130   98.5390   71.4450 C.3   488  ALA488      0.1597
     66  C         38.9540   98.9900   70.7230 C.2   488  ALA488      0.2287
     67  O         38.8660  100.1340   70.2690 O.2   488  ALA488     -0.2864
     68  CB        41.0640   97.6700   70.5220 C.3   488  ALA488      0.0319
     69  N         37.1750  101.7600   72.6880 N.3   491  ALA491     -0.1231
     70  CA        37.9720  102.9830   72.6730 C.3   491  ALA491      0.1694
     71  C         37.9870  103.6510   71.3080 C.2   491  ALA491      0.2591
     72  O         38.2270  104.8590   71.2290 O.2   491  ALA491     -0.2718
     73  CB        39.3990  102.7000   73.1140 C.3   491  ALA491      0.0304
     74  N         37.7490  102.8970   70.2390 N.am  492  ALA492     -0.1980
     75  CA        37.6260  103.4600   68.9050 C.3   492  ALA492      0.1597
     76  C         36.2070  103.9150   68.6100 C.2   492  ALA492      0.2287
     77  O         35.9180  104.3130   67.4790 O.2   492  ALA492     -0.2864
     78  CB        38.0880  102.4450   67.8570 C.3   492  ALA492      0.0319
     79  N         41.5960   99.8040   80.4120 N.3   560  ARG560     -0.1245
     80  CA        42.7290   99.2110   79.7010 C.3   560  ARG560      0.1563
     81  C         43.1130   97.9470   80.4630 C.2   560  ARG560      0.2260
     82  O         43.9230   98.0050   81.3910 O.2   560  ARG560     -0.2867
     83  CB        43.8820  100.1990   79.5980 C.3   560  ARG560      0.0307
     84  CG        45.0390   99.6740   78.7760 C.3   560  ARG560      0.0489
     85  CD        44.5220   99.1180   77.4500 C.3   560  ARG560      0.2205
     86  NE        44.7560  100.0120   76.3220 N.pl3 560  ARG560     -0.0865
     87  CZ        45.9470  100.2230   75.7670 C.cat 560  ARG560      0.5346
     88  NH1       46.0610  101.0670   74.7460 N.pl3 560  ARG560      0.1354
     89  NH2       47.0230   99.5930   76.2330 N.pl3 560  ARG560      0.1354
@<TRIPOS>BOND
     1    41    40    2
     2    40    39    1
     3    39    38    1
     4    39    42    1
     5    44    42    1
     6    42    43    1
     7    26    24   ar
     8    26    28   ar
     9    24    23   ar
    10    43    45    1
    11    32    31    2
    12    28    27   ar
    13    23    22    1
    14    23    25   ar
    15    31    30    1
    16    22    19    1
    17    27    25   ar
    18    30    29    1
    19    30    33    1
    20    19    20    1
    21    19    18    1
    22    77    76    2
    23    20    21    2
    24    78    75    1
    25    34    33    1
    26    34    35    1
    27    18    12   am
    28    13    12    2
    29    76    75    1
    30     3     2    1
    31     3     4    2
    32     1     2    1
    33    75    74    1
    34     2     5    1
    35    12    11    1
    36    35    36    1
    37    36    37    1
    38    10    11    1
    39    74    71   am
    40    67    66    2
    41    11    14    1
    42     5     6    1
    43    68    65    1
    44    66    65    1
    45     6     7    1
    46    72    71    2
    47    71    70    1
    48    65    64    1
    49    14    15    1
    50    55    53   ar
    51    55    54   ar
    52    53    51   ar
    53     7     8   ar
    54     7     9   ar
    55    70    69    1
    56    70    73    1
    57    64    58   am
    58    54    52   ar
    59    17    15   ar
    60    15    16   ar
    61    49    48    2
    62    51    52   ar
    63    51    50    1
    64    48    47    1
    65    59    58    2
    66    58    57    1
    67    50    47    1
    68    56    57    1
    69    47    46    1
    70    88    87    1
    71    57    60    1
    72    60    61    1
    73    87    89    1
    74    87    86    2
    75    86    85    1
    76    61    62   ar
    77    61    63   ar
    78    85    84    1
    79    84    83    1
    80    83    80    1
    81    80    79    1
    82    80    81    1
    83    81    82    2
