@<TRIPOS>MOLECULE
tmp/6axkB02.pdb
 74 70 0 0 0
SMALL
GASTEIGER

@<TRIPOS>ATOM
      1  N          1.7010   21.0960  -19.8960 N.3     7  PRO7       -0.2116
      2  CA         0.7500   22.2140  -19.9890 C.3     7  PRO7        0.1372
      3  C          1.3900   23.5190  -20.4250 C.2     7  PRO7        0.2244
      4  O          0.7070   24.3610  -21.0220 O.2     7  PRO7       -0.2868
      5  CB         0.1780   22.3070  -18.5680 C.3     7  PRO7        0.0268
      6  CG         1.2200   21.7010  -17.6960 C.3     7  PRO7        0.0207
      7  CD         1.8620   20.6190  -18.5120 C.3     7  PRO7        0.0892
      8  N         -0.7870   28.4290  -28.1310 N.3    86  ASP86      -0.1239
      9  CA        -0.9890   27.0610  -27.6800 C.3    86  ASP86       0.1674
     10  C         -0.6880   26.1060  -28.8280 C.2    86  ASP86       0.2266
     11  O         -1.0860   26.3500  -29.9700 O.2    86  ASP86      -0.2867
     12  CB        -2.4190   26.8540  -27.1760 C.3    86  ASP86       0.1410
     13  CG        -2.7280   27.6850  -25.9460 C.2    86  ASP86       0.3668
     14  OD1       -1.7750   28.0780  -25.2400 O.co2  86  ASP86      -0.2456
     15  OD2       -3.9210   27.9430  -25.6820 O.co2  86  ASP86      -0.2456
     16  N         -0.7400   22.0570  -30.1830 N.3    88  TYR88      -0.1241
     17  CA        -1.3850   20.7600  -30.0320 C.3    88  TYR88       0.1605
     18  C         -0.7650   19.7510  -30.9880 C.2    88  TYR88       0.2264
     19  O         -0.5240   20.0620  -32.1580 O.2    88  TYR88      -0.2867
     20  CB        -2.8920   20.8470  -30.3240 C.3    88  TYR88       0.0534
     21  CG        -3.6840   21.6900  -29.3520 C.ar   88  TYR88      -0.0201
     22  CD1       -3.8200   23.0580  -29.5410 C.ar   88  TYR88      -0.0009
     23  CD2       -4.3120   21.1130  -28.2560 C.ar   88  TYR88      -0.0009
     24  CE1       -4.5500   23.8310  -28.6580 C.ar   88  TYR88       0.0417
     25  CE2       -5.0410   21.8760  -27.3690 C.ar   88  TYR88       0.0417
     26  CZ        -5.1580   23.2330  -27.5740 C.ar   88  TYR88       0.1957
     27  OH        -5.8840   23.9950  -26.6910 O.3    88  TYR88      -0.2866
     28  N         -3.3180   17.3270  -25.0090 N.3   104  GLY104     -0.1210
     29  CA        -3.8820   18.3310  -24.1230 C.3   104  GLY104      0.1956
     30  C         -3.5110   19.7560  -24.4780 C.2   104  GLY104      0.2612
     31  O         -4.1980   20.6870  -24.0460 O.2   104  GLY104     -0.2717
     32  N         -2.4500   19.9480  -25.2460 N.am  105  GLY105     -0.1942
     33  CA        -2.0180   21.2920  -25.6050 C.3   105  GLY105      0.2014
     34  C         -0.9490   21.8250  -24.6740 C.2   105  GLY105      0.2640
     35  O         -0.8680   21.4750  -23.4960 O.2   105  GLY105     -0.2714
     36  N         -0.1070   22.7010  -25.2220 N.am  106  THR106     -0.1936
     37  CA         0.9970   23.3050  -24.4870 C.3   106  THR106      0.2028
     38  C          0.9890   24.8060  -24.7320 C.2   106  THR106      0.2642
     39  O          1.0050   25.2500  -25.8850 O.2   106  THR106     -0.2714
     40  CB         2.3450   22.7090  -24.9160 C.3   106  THR106      0.1808
     41  OG1        2.3570   21.3000  -24.6570 O.3   106  THR106     -0.2208
     42  CG2        3.4950   23.3670  -24.1600 C.3   106  THR106      0.0379
     43  N          0.9690   25.5830  -23.6530 N.am  107  LYS107     -0.1977
     44  CA         1.0110   27.0370  -23.7430 C.3   107  LYS107      0.1596
     45  C          2.4650   27.4950  -23.7780 C.2   107  LYS107      0.2287
     46  O          3.2300   27.2220  -22.8470 O.2   107  LYS107     -0.2864
     47  CB         0.2710   27.6710  -22.5660 C.3   107  LYS107      0.0298
     48  CG         0.3300   29.1930  -22.5400 C.3   107  LYS107      0.0038
     49  CD        -0.5160   29.7590  -21.4120 C.3   107  LYS107      0.0206
     50  CE        -0.3470   31.2650  -21.2870 C.3   107  LYS107      0.1093
     51  NZ        -0.8280   31.9930  -22.4920 N.3   107  LYS107     -0.1314
     52  N         -0.0540   28.0600  -14.8070 N.3   149  VAL149     -0.1231
     53  CA         0.0470   27.4770  -13.4770 C.3   149  VAL149      0.1692
     54  C         -0.7850   26.2050  -13.4400 C.2   149  VAL149      0.2592
     55  O         -1.7820   26.0720  -14.1550 O.2   149  VAL149     -0.2718
     56  CB        -0.3990   28.4940  -12.3950 C.3   149  VAL149      0.0266
     57  CG1       -1.6680   28.0420  -11.6680 C.3   149  VAL149      0.0020
     58  CG2        0.7300   28.7510  -11.4110 C.3   149  VAL149      0.0020
     59  N         -0.3600   25.2630  -12.6020 N.am  150  THR150     -0.1953
     60  CA        -1.0930   24.0310  -12.3470 C.3   150  THR150      0.1897
     61  C         -1.4840   23.9930  -10.8770 C.2   150  THR150      0.2313
     62  O         -0.6290   24.1490   -9.9990 O.2   150  THR150     -0.2863
     63  CB        -0.2550   22.7980  -12.7040 C.3   150  THR150      0.1794
     64  OG1        0.0770   22.8270  -14.0970 O.3   150  THR150     -0.2208
     65  CG2       -1.0170   21.5110  -12.3960 C.3   150  THR150      0.0378
     66  N         -8.7240   30.3780  -15.6320 N.3   168  LYS168     -0.1245
     67  CA        -7.5570   30.6170  -16.4590 C.3   168  LYS168      0.1561
     68  C         -6.8260   31.8600  -15.9530 C.2   168  LYS168      0.2260
     69  O         -7.4570   32.7930  -15.4490 O.2   168  LYS168     -0.2867
     70  CB        -7.9640   30.8080  -17.9170 C.3   168  LYS168      0.0271
     71  CG        -8.4950   29.6430  -18.6560 C.3   168  LYS168      0.0035
     72  CD        -7.6290   28.4110  -18.6850 C.3   168  LYS168      0.0206
     73  CE        -8.4270   27.2070  -19.2530 C.3   168  LYS168      0.1093
     74  NZ        -9.9170   27.2770  -18.8430 N.3   168  LYS168     -0.1314
@<TRIPOS>BOND
     1    19    18    2
     2    18    17    1
     3    20    17    1
     4    20    21    1
     5    16    17    1
     6    11    10    2
     7    22    21   ar
     8    22    24   ar
     9    21    23   ar
    10    10     9    1
    11    24    26   ar
    12    23    25   ar
    13     8     9    1
    14     9    12    1
    15    26    25   ar
    16    26    27    1
    17    12    13    1
    18    13    15   ar
    19    13    14   ar
    20    39    38    2
    21    33    32    1
    22    33    34    1
    23    32    30   am
    24    36    34   am
    25    36    37    1
    26    28    29    1
    27    40    41    1
    28    40    37    1
    29    40    42    1
    30    38    37    1
    31    38    43   am
    32    34    35    2
    33    30    29    1
    34    30    31    2
    35    45    44    1
    36    45    46    2
    37    44    43    1
    38    44    47    1
    39    47    48    1
    40    48    49    1
    41    51    50    1
    42    49    50    1
    43     4     3    2
    44     3     2    1
    45     2     1    1
    46     2     5    1
    47     1     7    1
    48    73    74    1
    49    73    72    1
    50    72    71    1
    51    71    70    1
    52     5     6    1
    53     7     6    1
    54    70    67    1
    55    67    68    1
    56    67    66    1
    57    68    69    2
    58    52    53    1
    59    55    54    2
    60    64    63    1
    61    53    54    1
    62    53    56    1
    63    54    59   am
    64    63    65    1
    65    63    60    1
    66    59    60    1
    67    56    57    1
    68    56    58    1
    69    60    61    1
    70    61    62    2
