@<TRIPOS>MOLECULE
tmp/6axlD01.pdb
 116 112 0 0 0
SMALL
GASTEIGER

@<TRIPOS>ATOM
      1  N          6.9620   19.9150  -46.4210 N.3    31  THR31      -0.1218
      2  CA         5.9730   18.8460  -46.3440 C.3    31  THR31       0.1862
      3  C          5.8290   18.0860  -47.6580 C.2    31  THR31       0.2287
      4  O          4.9210   17.2560  -47.7840 O.2    31  THR31      -0.2866
      5  CB         4.6090   19.4030  -45.9250 C.3    31  THR31       0.1770
      6  OG1        4.0490   20.1640  -47.0010 O.3    31  THR31      -0.2211
      7  CG2        4.7340   20.2840  -44.6880 C.3    31  THR31       0.0375
      8  N          7.7390   15.8760  -50.9560 N.3    33  ALA33      -0.1245
      9  CA         8.8370   15.3000  -51.7140 C.3    33  ALA33       0.1562
     10  C          9.0810   16.1360  -52.9630 C.2    33  ALA33       0.2260
     11  O          8.1540   16.7160  -53.5370 O.2    33  ALA33      -0.2867
     12  CB         8.5250   13.8550  -52.1010 C.3    33  ALA33       0.0290
     13  N         11.3470   16.5140  -56.7870 N.3    35  HIS35      -0.1241
     14  CA        11.9450   15.7520  -57.8700 C.3    35  HIS35       0.1621
     15  C         12.8060   16.6500  -58.7480 C.2    35  HIS35       0.2264
     16  O         12.6500   17.8740  -58.7740 O.2    35  HIS35      -0.2867
     17  CB        10.8720   15.0870  -58.7440 C.3    35  HIS35       0.0745
     18  CG         9.9950   14.1250  -58.0060 C.ar   35  HIS35       0.0817
     19  ND1       10.0860   12.7600  -58.1690 N.ar   35  HIS35      -0.2268
     20  CD2        8.9980   14.3310  -57.1150 C.ar   35  HIS35       0.1154
     21  CE1        9.1870   12.1650  -57.4050 C.ar   35  HIS35       0.1986
     22  NE2        8.5160   13.0960  -56.7530 N.ar   35  HIS35      -0.2212
     23  N         14.4330   11.7960  -56.7200 N.3    50  VAL50      -0.1245
     24  CA        13.4510   12.2990  -55.7690 C.3    50  VAL50       0.1561
     25  C         14.0730   12.2790  -54.3790 C.2    50  VAL50       0.2260
     26  O         14.9560   11.4680  -54.0840 O.2    50  VAL50      -0.2867
     27  CB        12.1430   11.4690  -55.7870 C.3    50  VAL50       0.0252
     28  CG1       12.4080   10.0200  -55.3970 C.3    50  VAL50       0.0019
     29  CG2       11.0950   12.0850  -54.8720 C.3    50  VAL50       0.0019
     30  N         12.5950   12.6470  -50.2100 N.3    52  SER52      -0.1202
     31  CA        11.4240   12.7470  -49.3540 C.3    52  SER52       0.2020
     32  C         11.4600   14.0520  -48.5600 C.2    52  SER52       0.2618
     33  O         12.4340   14.8080  -48.5910 O.2    52  SER52      -0.2717
     34  CB        11.3430   11.5430  -48.4160 C.3    52  SER52       0.2103
     35  OG        12.5030   11.4400  -47.6090 O.3    52  SER52      -0.2182
     36  N         10.3710   14.3120  -47.8310 N.am   53  TYR53      -0.1975
     37  CA        10.1950   15.6200  -47.2100 C.3    53  TYR53       0.1639
     38  C         11.2530   15.8820  -46.1420 C.2    53  TYR53       0.2290
     39  O         11.6950   17.0250  -45.9710 O.2    53  TYR53      -0.2864
     40  CB         8.7810   15.7410  -46.6310 C.3    53  TYR53       0.0560
     41  CG         8.4970   14.9000  -45.4030 C.ar   53  TYR53      -0.0198
     42  CD1        8.3900   13.5190  -45.4870 C.ar   53  TYR53      -0.0009
     43  CD2        8.3030   15.4940  -44.1650 C.ar   53  TYR53      -0.0009
     44  CE1        8.1200   12.7540  -44.3670 C.ar   53  TYR53       0.0417
     45  CE2        8.0320   14.7380  -43.0410 C.ar   53  TYR53       0.0417
     46  CZ         7.9400   13.3690  -43.1480 C.ar   53  TYR53       0.1957
     47  OH         7.6680   12.6090  -42.0340 O.3    53  TYR53      -0.2866
     48  N         14.5160    9.3720  -47.6590 N.3    57  ASN57      -0.1240
     49  CA        14.4590    8.5300  -48.8450 C.3    57  ASN57       0.1653
     50  C         14.9530    9.3100  -50.0530 C.2    57  ASN57       0.2266
     51  O         14.5050   10.4350  -50.3020 O.2    57  ASN57      -0.2867
     52  CB        13.0370    8.0200  -49.0860 C.3    57  ASN57       0.1155
     53  CG        12.5090    7.2080  -47.9220 C.2    57  ASN57       0.2627
     54  OD1       13.2340    6.4080  -47.3300 O.2    57  ASN57      -0.2716
     55  ND2       11.2440    7.4160  -47.5800 N.am   57  ASN57      -0.0877
     56  N         15.9470    8.4720  -54.2520 N.3    59  TYR59      -0.1241
     57  CA        15.9690    7.5180  -55.3490 C.3    59  TYR59       0.1605
     58  C         16.4530    8.2090  -56.6130 C.2    59  TYR59       0.2264
     59  O         16.2440    9.4090  -56.8050 O.2    59  TYR59      -0.2867
     60  CB        14.5880    6.8940  -55.5810 C.3    59  TYR59       0.0534
     61  CG        14.0050    6.2410  -54.3480 C.ar   59  TYR59      -0.0201
     62  CD1       14.5600    5.0820  -53.8230 C.ar   59  TYR59      -0.0009
     63  CD2       12.8940    6.7830  -53.7120 C.ar   59  TYR59      -0.0009
     64  CE1       14.0300    4.4830  -52.6950 C.ar   59  TYR59       0.0417
     65  CE2       12.3550    6.1900  -52.5840 C.ar   59  TYR59       0.0417
     66  CZ        12.9270    5.0410  -52.0820 C.ar   59  TYR59       0.1957
     67  OH        12.3940    4.4480  -50.9610 O.3    59  TYR59      -0.2866
     68  N          6.0270   17.2580  -55.6940 N.3    99  ASP99      -0.1239
     69  CA         5.1740   16.0700  -55.6620 C.3    99  ASP99       0.1674
     70  C          3.9970   16.3770  -54.7410 C.2    99  ASP99       0.2266
     71  O          3.9290   15.9340  -53.5940 O.2    99  ASP99      -0.2867
     72  CB         5.9650   14.8560  -55.1900 C.3    99  ASP99       0.1410
     73  CG         5.2680   13.5480  -55.4990 C.2    99  ASP99       0.3668
     74  OD1        4.0220   13.5440  -55.6120 O.co2  99  ASP99      -0.2456
     75  OD2        5.9710   12.5220  -55.6300 O.co2  99  ASP99      -0.2456
     76  N          0.9600   15.4660  -54.4470 N.3   101  TYR101     -0.1227
     77  CA         0.1110   14.3940  -53.9430 C.3   101  TYR101      0.1736
     78  C          0.9040   13.2520  -53.3190 C.2   101  TYR101      0.2596
     79  O          0.3140   12.2230  -52.9720 O.2   101  TYR101     -0.2718
     80  CB        -0.7700   13.8500  -55.0680 C.3   101  TYR101      0.0548
     81  CG        -1.7480   14.8550  -55.6260 C.ar  101  TYR101     -0.0200
     82  CD1       -2.9940   15.0390  -55.0410 C.ar  101  TYR101     -0.0009
     83  CD2       -1.4290   15.6130  -56.7430 C.ar  101  TYR101     -0.0009
     84  CE1       -3.8930   15.9530  -55.5510 C.ar  101  TYR101      0.0417
     85  CE2       -2.3210   16.5320  -57.2610 C.ar  101  TYR101      0.0417
     86  CZ        -3.5510   16.6970  -56.6610 C.ar  101  TYR101      0.1957
     87  OH        -4.4430   17.6100  -57.1720 O.3   101  TYR101     -0.2866
     88  N          2.2180   13.4070  -53.1650 N.am  102  SER102     -0.1938
     89  CA         3.0700   12.3550  -52.6130 C.3   102  SER102      0.2055
     90  C          2.8340   11.0370  -53.3450 C.2   102  SER102      0.2644
     91  O          2.5730    9.9940  -52.7400 O.2   102  SER102     -0.2714
     92  CB         2.8290   12.2000  -51.1120 C.3   102  SER102      0.2130
     93  OG         2.9940   13.4380  -50.4460 O.3   102  SER102     -0.2179
     94  N          2.9300   11.0930  -54.6770 N.am  103  SER103     -0.1935
     95  CA         2.5820    9.9410  -55.5000 C.3   103  SER103      0.2055
     96  C          3.4750    9.8090  -56.7310 C.2   103  SER103      0.2644
     97  O          3.0940    9.1270  -57.6910 O.2   103  SER103     -0.2714
     98  CB         1.1190   10.0340  -55.9250 C.3   103  SER103      0.2130
     99  OG         0.6930    8.8600  -56.5920 O.3   103  SER103     -0.2179
    100  N          4.6450   10.4460  -56.7270 N.am  104  SER104     -0.1935
    101  CA         5.6210   10.3160  -57.8110 C.3   104  SER104      0.2055
    102  C          5.0760   10.8380  -59.1400 C.2   104  SER104      0.2643
    103  O          5.3680   10.2930  -60.2060 O.2   104  SER104     -0.2714
    104  CB         6.0970    8.8680  -57.9560 C.3   104  SER104      0.2130
    105  OG         6.9340    8.4940  -56.8720 O.3   104  SER104     -0.2179
    106  N          4.2790   11.9040  -59.0830 N.am  105  PHE105     -0.1973
    107  CA         3.9910   12.7090  -60.2630 C.3   105  PHE105      0.1639
    108  C          3.9350   14.1710  -59.8390 C.2   105  PHE105      0.2290
    109  O          3.9060   14.4980  -58.6500 O.2   105  PHE105     -0.2864
    110  CB         2.7090   12.2610  -60.9820 C.3   105  PHE105      0.0560
    111  CG         1.4520   12.4640  -60.1950 C.ar  105  PHE105     -0.0200
    112  CD1        0.9740   11.4670  -59.3600 C.ar  105  PHE105     -0.0042
    113  CD2        0.7260   13.6370  -60.3140 C.ar  105  PHE105     -0.0042
    114  CE1       -0.1910   11.6460  -58.6470 C.ar  105  PHE105     -0.0003
    115  CE2       -0.4380   13.8220  -59.5990 C.ar  105  PHE105     -0.0003
    116  CZ        -0.8960   12.8230  -58.7640 C.ar  105  PHE105     -0.0000
@<TRIPOS>BOND
     1   110   107    1
     2   110   111    1
     3   113   111   ar
     4   113   115   ar
     5   107   108    1
     6   107   106    1
     7   103   102    2
     8   111   112   ar
     9   108   109    2
    10   115   116   ar
    11   112   114   ar
    12   102   106   am
    13   102   101    1
    14    16    15    2
    15   116   114   ar
    16    15    14    1
    17    17    18    1
    18    17    14    1
    19    19    18   ar
    20    19    21   ar
    21    18    20   ar
    22   104   101    1
    23   104   105    1
    24    14    13    1
    25   101   100    1
    26    97    96    2
    27    21    22   ar
    28    85    83   ar
    29    85    86   ar
    30    87    86    1
    31    20    22   ar
    32    59    58    2
    33    83    81   ar
    34    96   100   am
    35    96    95    1
    36    23    24    1
    37    86    84   ar
    38    58    57    1
    39    99    98    1
    40    98    95    1
    41    27    24    1
    42    27    28    1
    43    27    29    1
    44    24    25    1
    45    68    69    1
    46    69    72    1
    47    69    70    1
    48    75    73   ar
    49    81    80    1
    50    81    82   ar
    51    74    73   ar
    52    60    57    1
    53    60    61    1
    54    84    82   ar
    55    95    94    1
    56    73    72    1
    57    57    56    1
    58    80    77    1
    59    70    71    2
    60    94    90   am
    61    76    77    1
    62    25    26    2
    63    61    62   ar
    64    61    63   ar
    65    77    78    1
    66    62    64   ar
    67    63    65   ar
    68    11    10    2
    69    90    91    2
    70    90    89    1
    71    78    88   am
    72    78    79    2
    73    88    89    1
    74    10     9    1
    75    64    66   ar
    76    89    92    1
    77    65    66   ar
    78    12     9    1
    79    66    67    1
    80     9     8    1
    81    92    93    1
    82    51    50    2
    83    30    31    1
    84    50    49    1
    85    31    32    1
    86    31    34    1
    87    52    49    1
    88    52    53    1
    89    49    48    1
    90    33    32    2
    91    32    36   am
    92    34    35    1
    93    53    55   am
    94    53    54    2
    95    36    37    1
    96     4     3    2
    97     3     2    1
    98    37    40    1
    99    37    38    1
   100     6     5    1
   101    40    41    1
   102     1     2    1
   103     2     5    1
   104    38    39    2
   105     5     7    1
   106    42    41   ar
   107    42    44   ar
   108    41    43   ar
   109    44    46   ar
   110    43    45   ar
   111    46    45   ar
   112    46    47    1
