@<TRIPOS>MOLECULE
tmp/6axlD00.pdb
 89 87 0 0 0
SMALL
GASTEIGER

@<TRIPOS>ATOM
      1  N          4.6010   25.3570  -48.4600 N.3    28  THR28      -0.1218
      2  CA         5.3790   24.7390  -47.3840 C.3    28  THR28       0.1862
      3  C          6.3100   23.6990  -47.9940 C.2    28  THR28       0.2287
      4  O          5.9490   22.5380  -48.1860 O.2    28  THR28      -0.2866
      5  CB         4.4630   24.1270  -46.3320 C.3    28  THR28       0.1770
      6  OG1        3.4570   23.3270  -46.9690 O.3    28  THR28      -0.2211
      7  CG2        3.8050   25.2250  -45.4990 C.3    28  THR28       0.0375
      8  N          6.9620   19.9150  -46.4210 N.3    31  THR31      -0.1203
      9  CA         5.9730   18.8460  -46.3440 C.3    31  THR31       0.1994
     10  C          5.8290   18.0860  -47.6580 C.2    31  THR31       0.2617
     11  O          4.9210   17.2560  -47.7840 O.2    31  THR31      -0.2717
     12  CB         4.6090   19.4030  -45.9250 C.3    31  THR31       0.1784
     13  OG1        4.0490   20.1640  -47.0010 O.3    31  THR31      -0.2211
     14  CG2        4.7340   20.2840  -44.6880 C.3    31  THR31       0.0376
     15  N          6.6970   18.3440  -48.6360 N.am   32  TYR32      -0.1975
     16  CA         6.5810   17.7470  -49.9580 C.3    32  TYR32       0.1639
     17  C          7.8740   17.0560  -50.3600 C.2    32  TYR32       0.2290
     18  O          8.9690   17.5860  -50.1470 O.2    32  TYR32      -0.2864
     19  CB         6.2450   18.8010  -51.0180 C.3    32  TYR32       0.0560
     20  CG         4.8970   19.4560  -50.8470 C.ar   32  TYR32      -0.0198
     21  CD1        3.7380   18.8160  -51.2560 C.ar   32  TYR32      -0.0009
     22  CD2        4.7860   20.7200  -50.2900 C.ar   32  TYR32      -0.0009
     23  CE1        2.5030   19.4120  -51.1070 C.ar   32  TYR32       0.0417
     24  CE2        3.5570   21.3260  -50.1380 C.ar   32  TYR32       0.0417
     25  CZ         2.4170   20.6670  -50.5490 C.ar   32  TYR32       0.1957
     26  OH         1.1860   21.2640  -50.4000 O.3    32  TYR32      -0.2866
     27  N         10.3710   14.3120  -47.8310 N.3    53  TYR53      -0.1227
     28  CA        10.1950   15.6200  -47.2100 C.3    53  TYR53       0.1736
     29  C         11.2530   15.8820  -46.1420 C.2    53  TYR53       0.2595
     30  O         11.6950   17.0250  -45.9710 O.2    53  TYR53      -0.2718
     31  CB         8.7810   15.7410  -46.6310 C.3    53  TYR53       0.0548
     32  CG         8.4970   14.9000  -45.4030 C.ar   53  TYR53      -0.0200
     33  CD1        8.3900   13.5190  -45.4870 C.ar   53  TYR53      -0.0009
     34  CD2        8.3030   15.4940  -44.1650 C.ar   53  TYR53      -0.0009
     35  CE1        8.1200   12.7540  -44.3670 C.ar   53  TYR53       0.0417
     36  CE2        8.0320   14.7380  -43.0410 C.ar   53  TYR53       0.0417
     37  CZ         7.9400   13.3690  -43.1480 C.ar   53  TYR53       0.1957
     38  OH         7.6680   12.6090  -42.0340 O.3    53  TYR53      -0.2866
     39  N         11.6760   14.8460  -45.4150 N.am   54  HIS54      -0.1975
     40  CA        12.7280   14.9810  -44.4130 C.3    54  HIS54       0.1656
     41  C         14.0150   14.2610  -44.8150 C.2    54  HIS54       0.2291
     42  O         14.8120   13.8920  -43.9470 O.2    54  HIS54      -0.2864
     43  CB        12.2350   14.4780  -43.0560 C.3    54  HIS54       0.0771
     44  CG        11.3850   15.4650  -42.3150 C.ar   54  HIS54       0.0820
     45  ND1       10.9600   16.6520  -42.8720 N.ar   54  HIS54      -0.2267
     46  CD2       10.8890   15.4420  -41.0550 C.ar   54  HIS54       0.1154
     47  CE1       10.2350   17.3170  -41.9890 C.ar   54  HIS54       0.1986
     48  NE2       10.1760   16.6040  -40.8780 N.ar   54  HIS54      -0.2212
     49  N          7.4580   19.7630  -57.7510 N.3    98  ARG98      -0.1245
     50  CA         6.8360   19.3990  -56.4870 C.3    98  ARG98       0.1563
     51  C          5.9540   18.1700  -56.6650 C.2    98  ARG98       0.2260
     52  O          5.2180   18.0550  -57.6490 O.2    98  ARG98      -0.2867
     53  CB         5.9960   20.5580  -55.9510 C.3    98  ARG98       0.0307
     54  CG         5.3080   20.2660  -54.6260 C.3    98  ARG98       0.0489
     55  CD         4.3970   21.4040  -54.2080 C.3    98  ARG98       0.2205
     56  NE         3.1620   21.4390  -54.9870 N.pl3  98  ARG98      -0.0865
     57  CZ         2.1450   22.2620  -54.7410 C.cat  98  ARG98       0.5346
     58  NH1        1.0570   22.2230  -55.4990 N.pl3  98  ARG98       0.1354
     59  NH2        2.2110   23.1260  -53.7360 N.pl3  98  ARG98       0.1354
     60  N          3.0460   17.1470  -55.2750 N.3   100  GLY100     -0.1210
     61  CA         1.9750   17.6820  -54.4490 C.3   100  GLY100      0.1956
     62  C          1.1050   16.6210  -53.8030 C.2   100  GLY100      0.2612
     63  O          0.5550   16.8420  -52.7220 O.2   100  GLY100     -0.2717
     64  N          0.9600   15.4660  -54.4470 N.am  101  TYR101     -0.1962
     65  CA         0.1110   14.3940  -53.9430 C.3   101  TYR101      0.1771
     66  C          0.9040   13.2520  -53.3190 C.2   101  TYR101      0.2620
     67  O          0.3140   12.2230  -52.9720 O.2   101  TYR101     -0.2715
     68  CB        -0.7700   13.8500  -55.0680 C.3   101  TYR101      0.0574
     69  CG        -1.7480   14.8550  -55.6260 C.ar  101  TYR101     -0.0198
     70  CD1       -2.9940   15.0390  -55.0410 C.ar  101  TYR101     -0.0009
     71  CD2       -1.4290   15.6130  -56.7430 C.ar  101  TYR101     -0.0009
     72  CE1       -3.8930   15.9530  -55.5510 C.ar  101  TYR101      0.0417
     73  CE2       -2.3210   16.5320  -57.2610 C.ar  101  TYR101      0.0417
     74  CZ        -3.5510   16.6970  -56.6610 C.ar  101  TYR101      0.1957
     75  OH        -4.4430   17.6100  -57.1720 O.3   101  TYR101     -0.2866
     76  N          2.2180   13.4070  -53.1650 N.am  102  SER102     -0.1950
     77  CA         3.0700   12.3550  -52.6130 C.3   102  SER102      0.1924
     78  C          2.8340   11.0370  -53.3450 C.2   102  SER102      0.2314
     79  O          2.5730    9.9940  -52.7400 O.2   102  SER102     -0.2863
     80  CB         2.8290   12.2000  -51.1120 C.3   102  SER102      0.2116
     81  OG         2.9940   13.4380  -50.4460 O.3   102  SER102     -0.2180
     82  N          2.8700   18.1360  -59.9880 N.3   107  ASP107     -0.1239
     83  CA         1.7920   19.0980  -60.1580 C.3   107  ASP107      0.1674
     84  C          2.2760   20.5370  -60.2770 C.2   107  ASP107      0.2266
     85  O          1.4710   21.4150  -60.6050 O.2   107  ASP107     -0.2867
     86  CB         0.8070   18.9920  -58.9860 C.3   107  ASP107      0.1410
     87  CG         1.3830   19.5260  -57.6880 C.2   107  ASP107      0.3668
     88  OD1        2.6210   19.4910  -57.5230 O.co2 107  ASP107     -0.2456
     89  OD2        0.5930   19.9800  -56.8330 O.co2 107  ASP107     -0.2456
@<TRIPOS>BOND
     1    85    84    2
     2    84    83    1
     3    83    82    1
     4    83    86    1
     5    86    87    1
     6    49    50    1
     7    87    88   ar
     8    87    89   ar
     9    52    51    2
    10    73    71   ar
    11    73    74   ar
    12    75    74    1
    13    71    69   ar
    14    51    50    1
    15    74    72   ar
    16    50    53    1
    17    53    54    1
    18    69    68    1
    19    69    70   ar
    20    72    70   ar
    21    58    57    1
    22    60    61    1
    23    68    65    1
    24    56    57    2
    25    56    55    1
    26    57    59    1
    27    54    55    1
    28    61    62    1
    29    64    65    1
    30    64    62   am
    31    65    66    1
    32    62    63    2
    33    78    79    2
    34    78    77    1
    35    66    76   am
    36    66    67    2
    37    76    77    1
    38    77    80    1
    39    21    23   ar
    40    21    20   ar
    41    80    81    1
    42    23    25   ar
    43    19    20    1
    44    19    16    1
    45    20    22   ar
    46    25    26    1
    47    25    24   ar
    48    17    18    2
    49    17    16    1
    50    22    24   ar
    51    16    15    1
    52    15    10   am
    53     1     2    1
    54     4     3    2
    55     3     2    1
    56    27    28    1
    57    11    10    2
    58    10     9    1
    59     2     5    1
    60    28    31    1
    61    28    29    1
    62    13    12    1
    63     6     5    1
    64    31    32    1
    65     8     9    1
    66     9    12    1
    67     5     7    1
    68    29    30    2
    69    29    39   am
    70    12    14    1
    71    33    32   ar
    72    33    35   ar
    73    39    40    1
    74    32    34   ar
    75    41    40    1
    76    41    42    2
    77    40    43    1
    78    35    37   ar
    79    34    36   ar
    80    37    36   ar
    81    37    38    1
    82    43    44    1
    83    45    44   ar
    84    45    47   ar
    85    44    46   ar
    86    47    48   ar
    87    46    48   ar
