@<TRIPOS>MOLECULE
tmp/6axlB00.pdb
 113 109 0 0 0
SMALL
GASTEIGER

@<TRIPOS>ATOM
      1  N         -6.5770    1.3370  -51.5910 N.3    31  THR31      -0.1218
      2  CA        -5.5400    2.3610  -51.6250 C.3    31  THR31       0.1862
      3  C         -5.6220    3.3280  -50.4490 C.2    31  THR31       0.2287
      4  O         -4.8880    4.3210  -50.4330 O.2    31  THR31      -0.2866
      5  CB        -5.6070    3.1570  -52.9340 C.3    31  THR31       0.1770
      6  OG1       -6.8350    3.8950  -52.9800 O.3    31  THR31      -0.2211
      7  CG2       -5.5150    2.2420  -54.1500 C.3    31  THR31       0.0375
      8  N         -5.8820    4.1240  -46.1170 N.3    33  ALA33      -0.1245
      9  CA        -5.9570    3.8110  -44.7010 C.3    33  ALA33       0.1562
     10  C         -7.3880    4.0180  -44.2160 C.2    33  ALA33       0.2260
     11  O         -8.1140    4.8850  -44.7090 O.2    33  ALA33      -0.2867
     12  CB        -4.9930    4.6920  -43.9050 C.3    33  ALA33       0.0290
     13  N         -6.5630    2.7860  -36.4810 N.3    50  VAL50      -0.1245
     14  CA        -6.3170    2.9540  -37.9080 C.3    50  VAL50       0.1561
     15  C         -5.5690    1.7350  -38.4290 C.2    50  VAL50       0.2260
     16  O         -4.8270    1.0750  -37.6950 O.2    50  VAL50      -0.2867
     17  CB        -5.5060    4.2340  -38.2180 C.3    50  VAL50       0.0252
     18  CG1       -4.1120    4.1530  -37.6090 C.3    50  VAL50       0.0019
     19  CG2       -5.4230    4.4720  -39.7260 C.3    50  VAL50       0.0019
     20  N         -3.3100    0.6670  -42.1060 N.3    52  SER52      -0.1202
     21  CA        -2.7480    1.1320  -43.3640 C.3    52  SER52       0.2020
     22  C         -3.3540    0.3600  -44.5360 C.2    52  SER52       0.2618
     23  O         -4.0400   -0.6520  -44.3650 O.2    52  SER52      -0.2717
     24  CB        -1.2290    0.9820  -43.3570 C.3    52  SER52       0.2103
     25  OG        -0.8580   -0.3590  -43.1020 O.3    52  SER52      -0.2182
     26  N         -3.0750    0.8440  -45.7490 N.am   53  TYR53      -0.1975
     27  CA        -3.7910    0.3480  -46.9210 C.3    53  TYR53       0.1639
     28  C         -3.5620   -1.1460  -47.1320 C.2    53  TYR53       0.2290
     29  O         -4.4850   -1.8660  -47.5300 O.2    53  TYR53      -0.2864
     30  CB        -3.3990    1.1510  -48.1670 C.3    53  TYR53       0.0560
     31  CG        -1.9900    0.9510  -48.6940 C.ar   53  TYR53      -0.0198
     32  CD1       -0.8810    1.3550  -47.9610 C.ar   53  TYR53      -0.0009
     33  CD2       -1.7740    0.4000  -49.9520 C.ar   53  TYR53      -0.0009
     34  CE1        0.4020    1.1890  -48.4550 C.ar   53  TYR53       0.0417
     35  CE2       -0.4970    0.2300  -50.4530 C.ar   53  TYR53       0.0417
     36  CZ         0.5870    0.6270  -49.7010 C.ar   53  TYR53       0.1957
     37  OH         1.8600    0.4590  -50.2000 O.3    53  TYR53      -0.2866
     38  N          0.2000   -3.1250  -43.1360 N.3    56  THR56      -0.1203
     39  CA         1.5150   -3.1470  -42.5040 C.3    56  THR56       0.1994
     40  C          1.5040   -2.4440  -41.1520 C.2    56  THR56       0.2617
     41  O          2.2410   -2.8420  -40.2420 O.2    56  THR56      -0.2717
     42  CB         2.5530   -2.5020  -43.4270 C.3    56  THR56       0.1784
     43  OG1        2.6030   -3.2200  -44.6670 O.3    56  THR56      -0.2211
     44  CG2        3.9390   -2.5220  -42.7900 C.3    56  THR56       0.0376
     45  N          0.6800   -1.4110  -40.9950 N.am   57  ASN57      -0.1974
     46  CA         0.6700   -0.5910  -39.7900 C.3    57  ASN57       0.1688
     47  C         -0.7130   -0.5990  -39.1570 C.2    57  ASN57       0.2292
     48  O         -1.7210   -0.4330  -39.8520 O.2    57  ASN57      -0.2864
     49  CB         1.0850    0.8490  -40.1030 C.3    57  ASN57       0.1181
     50  CG         2.4780    0.9400  -40.6790 C.2    57  ASN57       0.2629
     51  OD1        3.3590    0.1540  -40.3300 O.2    57  ASN57      -0.2716
     52  ND2        2.6880    1.9020  -41.5670 N.am   57  ASN57      -0.0877
     53  N         -2.4510    1.2090  -35.5950 N.3    59  TYR59      -0.1241
     54  CA        -2.2880    2.0620  -34.4280 C.3    59  TYR59       0.1605
     55  C         -3.6120    2.1660  -33.6860 C.2    59  TYR59       0.2264
     56  O         -4.6880    2.1560  -34.2910 O.2    59  TYR59      -0.2867
     57  CB        -1.7780    3.4610  -34.8130 C.3    59  TYR59       0.0534
     58  CG        -0.4740    3.4400  -35.5850 C.ar   59  TYR59      -0.0201
     59  CD1        0.7090    3.0430  -34.9780 C.ar   59  TYR59      -0.0009
     60  CD2       -0.4270    3.8210  -36.9210 C.ar   59  TYR59      -0.0009
     61  CE1        1.9020    3.0210  -35.6800 C.ar   59  TYR59       0.0417
     62  CE2        0.7600    3.8030  -37.6310 C.ar   59  TYR59       0.0417
     63  CZ         1.9220    3.4030  -37.0070 C.ar   59  TYR59       0.1957
     64  OH         3.1050    3.3850  -37.7120 O.3    59  TYR59      -0.2866
     65  N         -9.5440    7.6490  -44.7650 N.3    99  ASP99      -0.1239
     66  CA        -8.4610    8.6290  -44.6680 C.3    99  ASP99       0.1674
     67  C         -8.1100    9.0600  -46.0900 C.2    99  ASP99       0.2266
     68  O         -7.1080    8.6390  -46.6730 O.2    99  ASP99      -0.2867
     69  CB        -7.2600    8.0320  -43.9380 C.3    99  ASP99       0.1410
     70  CG        -6.2940    9.0870  -43.4230 C.2    99  ASP99       0.3668
     71  OD1       -6.2580   10.2030  -43.9860 O.co2  99  ASP99      -0.2456
     72  OD2       -5.5650    8.7940  -42.4490 O.co2  99  ASP99      -0.2456
     73  N         -6.9180   11.6360  -47.5470 N.3   101  TYR101     -0.1227
     74  CA        -5.6570   12.3110  -47.8180 C.3   101  TYR101      0.1736
     75  C         -4.4640   11.6210  -47.1700 C.2   101  TYR101      0.2596
     76  O         -3.3510   12.1510  -47.2330 O.2   101  TYR101     -0.2718
     77  CB        -5.7270   13.7650  -47.3490 C.3   101  TYR101      0.0548
     78  CG        -6.8110   14.5740  -48.0260 C.ar  101  TYR101     -0.0200
     79  CD1       -6.5750   15.2120  -49.2380 C.ar  101  TYR101     -0.0009
     80  CD2       -8.0700   14.7000  -47.4530 C.ar  101  TYR101     -0.0009
     81  CE1       -7.5660   15.9540  -49.8610 C.ar  101  TYR101      0.0417
     82  CE2       -9.0660   15.4380  -48.0680 C.ar  101  TYR101      0.0417
     83  CZ        -8.8080   16.0630  -49.2710 C.ar  101  TYR101      0.1957
     84  OH        -9.7980   16.7970  -49.8860 O.3   101  TYR101     -0.2866
     85  N         -4.6640   10.4550  -46.5570 N.am  102  SER102     -0.1938
     86  CA        -3.5830    9.7380  -45.8820 C.3   102  SER102      0.2055
     87  C         -2.9000   10.6370  -44.8520 C.2   102  SER102      0.2644
     88  O         -1.6800   10.8200  -44.8620 O.2   102  SER102     -0.2714
     89  CB        -2.5720    9.2040  -46.8980 C.3   102  SER102      0.2130
     90  OG        -3.2170    8.4270  -47.8900 O.3   102  SER102     -0.2179
     91  N         -3.7090   11.2050  -43.9470 N.am  103  SER103     -0.1935
     92  CA        -3.1900   12.2110  -43.0270 C.3   103  SER103      0.2055
     93  C         -3.8690   12.1790  -41.6600 C.2   103  SER103      0.2644
     94  O         -3.7930   13.1720  -40.9260 O.2   103  SER103     -0.2714
     95  CB        -3.3490   13.6020  -43.6460 C.3   103  SER103      0.2130
     96  OG        -2.6820   14.5830  -42.8750 O.3   103  SER103     -0.2179
     97  N         -4.5330   11.0830  -41.3020 N.am  104  SER104     -0.1935
     98  CA        -5.1630   10.9350  -39.9910 C.3   104  SER104      0.2055
     99  C         -6.2710   11.9660  -39.7750 C.2   104  SER104      0.2643
    100  O         -6.4510   12.4920  -38.6740 O.2   104  SER104     -0.2714
    101  CB        -4.1240   11.0110  -38.8700 C.3   104  SER104      0.2130
    102  OG        -3.2930    9.8600  -38.8640 O.3   104  SER104     -0.2179
    103  N         -7.0190   12.2630  -40.8340 N.am  105  PHE105     -0.1973
    104  CA        -8.3130   12.9150  -40.6940 C.3   105  PHE105      0.1639
    105  C         -9.2500   12.3390  -41.7460 C.2   105  PHE105      0.2290
    106  O         -8.8210   11.7070  -42.7140 O.2   105  PHE105     -0.2864
    107  CB        -8.2160   14.4500  -40.7760 C.3   105  PHE105      0.0560
    108  CG        -7.8210   14.9810  -42.1200 C.ar  105  PHE105     -0.0200
    109  CD1       -8.7790   15.2550  -43.0820 C.ar  105  PHE105     -0.0042
    110  CD2       -6.4940   15.2510  -42.4080 C.ar  105  PHE105     -0.0042
    111  CE1       -8.4200   15.7610  -44.3120 C.ar  105  PHE105     -0.0003
    112  CE2       -6.1300   15.7590  -43.6350 C.ar  105  PHE105     -0.0003
    113  CZ        -7.0930   16.0140  -44.5900 C.ar  105  PHE105     -0.0000
@<TRIPOS>BOND
     1     7     5    1
     2     6     5    1
     3     5     2    1
     4     2     1    1
     5     2     3    1
     6    35    33   ar
     7    35    36   ar
     8     3     4    2
     9    37    36    1
    10    33    31   ar
    11    84    83    1
    12    81    83   ar
    13    81    79   ar
    14    36    34   ar
    15    83    82   ar
    16    79    78   ar
    17    31    30    1
    18    31    32   ar
    19    34    32   ar
    20    30    27    1
    21    82    80   ar
    22    78    80   ar
    23    78    77    1
    24    90    89    1
    25    74    73    1
    26    74    77    1
    27    74    75    1
    28    29    28    2
    29    76    75    2
    30    75    85   am
    31    28    27    1
    32    27    26    1
    33    89    86    1
    34    68    67    2
    35    85    86    1
    36     8     9    1
    37    67    66    1
    38    86    87    1
    39    26    22   am
    40    88    87    2
    41    87    91   am
    42    65    66    1
    43    11    10    2
    44     9    10    1
    45     9    12    1
    46    66    69    1
    47    43    42    1
    48   113   111   ar
    49   113   112   ar
    50    22    23    2
    51    22    21    1
    52   111   109   ar
    53    71    70   ar
    54    91    92    1
    55    69    70    1
    56    95    92    1
    57    95    96    1
    58   112   110   ar
    59    42    44    1
    60    42    39    1
    61    70    72   ar
    62    21    24    1
    63    21    20    1
    64    24    25    1
    65    38    39    1
    66   109   108   ar
    67    92    93    1
    68   106   105    2
    69    39    40    1
    70   110   108   ar
    71   108   107    1
    72   105   104    1
    73    93    97   am
    74    93    94    2
    75    52    50   am
    76    97    98    1
    77    40    45   am
    78    40    41    2
    79    45    46    1
    80   103   104    1
    81   103    99   am
    82   107   104    1
    83    50    51    2
    84    50    49    1
    85    49    46    1
    86    98    99    1
    87    98   101    1
    88    48    47    2
    89    46    47    1
    90    99   100    2
    91    19    17    1
    92   101   102    1
    93    15    14    1
    94    15    16    2
    95    17    14    1
    96    17    18    1
    97    14    13    1
    98    64    63    1
    99    62    63   ar
   100    62    60   ar
   101    63    61   ar
   102    60    58   ar
   103    61    59   ar
   104    53    54    1
   105    58    59   ar
   106    58    57    1
   107    57    54    1
   108    54    55    1
   109    56    55    2
