@<TRIPOS>MOLECULE
tmp/6axmA01.pdb
 173 171 0 0 0
SMALL
GASTEIGER

@<TRIPOS>ATOM
      1  N          5.1700    8.1360   12.6740 N.3    57  LEU57      -0.1245
      2  CA         4.6240    6.7970   12.4940 C.3    57  LEU57       0.1561
      3  C          3.1020    6.8270   12.4530 C.2    57  LEU57       0.2260
      4  O          2.4790    6.2430   11.5610 O.2    57  LEU57      -0.2867
      5  CB         5.1070    5.8910   13.6270 C.3    57  LEU57       0.0270
      6  CG         4.5560    4.4700   13.6790 C.3    57  LEU57       0.0019
      7  CD1        5.1420    3.6390   12.5320 C.3    57  LEU57       0.0001
      8  CD2        4.8920    3.8450   15.0270 C.3    57  LEU57       0.0001
      9  N          0.3300    6.5610   21.5700 N.3    77  SER77      -0.1217
     10  CA         1.3860    5.7510   20.9720 C.3    77  SER77       0.1889
     11  C          2.7450    6.1100   21.5500 C.2    77  SER77       0.2288
     12  O          3.5600    5.2300   21.8340 O.2    77  SER77      -0.2866
     13  CB         1.3790    5.9380   19.4600 C.3    77  SER77       0.2089
     14  OG         0.1050    5.6030   18.9310 O.3    77  SER77      -0.2183
     15  N          2.9330    4.5340   24.7700 N.3    80  TYR80      -0.1227
     16  CA         3.1620    3.1030   24.6210 C.3    80  TYR80       0.1736
     17  C          4.6490    2.7930   24.4460 C.2    80  TYR80       0.2595
     18  O          5.1590    1.8330   25.0340 O.2    80  TYR80      -0.2718
     19  CB         2.3280    2.6220   23.4400 C.3    80  TYR80       0.0548
     20  CG         1.9800    1.1440   23.3880 C.ar   80  TYR80      -0.0200
     21  CD1        2.8880    0.1730   23.7690 C.ar   80  TYR80      -0.0009
     22  CD2        0.7460    0.7310   22.8920 C.ar   80  TYR80      -0.0009
     23  CE1        2.5700   -1.1870   23.6720 C.ar   80  TYR80       0.0417
     24  CE2        0.4220   -0.6250   22.7870 C.ar   80  TYR80       0.0417
     25  CZ         1.3340   -1.5680   23.1870 C.ar   80  TYR80       0.1957
     26  OH         1.0160   -2.9110   23.0700 O.3    80  TYR80      -0.2866
     27  N          5.3750    3.6200   23.6800 N.am   81  PHE81      -0.1976
     28  CA         6.8270    3.4430   23.5670 C.3    81  PHE81       0.1639
     29  C          7.5160    3.6260   24.9180 C.2    81  PHE81       0.2290
     30  O          8.4210    2.8620   25.2780 O.2    81  PHE81      -0.2864
     31  CB         7.4090    4.4280   22.5520 C.3    81  PHE81       0.0560
     32  CG         7.2330    4.0100   21.0990 C.ar   81  PHE81      -0.0200
     33  CD1        7.9870    2.9770   20.5620 C.ar   81  PHE81      -0.0042
     34  CD2        6.3130    4.6600   20.2810 C.ar   81  PHE81      -0.0042
     35  CE1        7.8400    2.6050   19.2320 C.ar   81  PHE81      -0.0003
     36  CE2        6.1580    4.2930   18.9480 C.ar   81  PHE81      -0.0003
     37  CZ         6.9210    3.2540   18.4240 C.ar   81  PHE81      -0.0000
     38  N          6.9490    0.5800   27.0300 N.3    84  ASP84      -0.1239
     39  CA         7.8640   -0.4820   26.6260 C.3    84  ASP84       0.1674
     40  C          9.2490   -0.2690   27.2340 C.2    84  ASP84       0.2266
     41  O          9.8910   -1.2240   27.6810 O.2    84  ASP84      -0.2867
     42  CB         7.9340   -0.5280   25.1010 C.3    84  ASP84       0.1410
     43  CG         8.4750   -1.8390   24.5770 C.2    84  ASP84       0.3668
     44  OD1        7.7830   -2.8660   24.7100 O.co2  84  ASP84      -0.2456
     45  OD2        9.5860   -1.8180   24.0360 O.co2  84  ASP84      -0.2456
     46  N          2.2280   -8.2300   28.3140 N.3   157  TYR157     -0.1241
     47  CA         3.4460   -7.6550   28.8740 C.3   157  TYR157      0.1605
     48  C          3.8590   -8.3850   30.1440 C.2   157  TYR157      0.2264
     49  O          5.0510   -8.6020   30.3860 O.2   157  TYR157     -0.2867
     50  CB         3.2570   -6.1540   29.1450 C.3   157  TYR157      0.0534
     51  CG         3.7400   -5.3060   27.9800 C.ar  157  TYR157     -0.0201
     52  CD1        3.2160   -5.4800   26.7020 C.ar  157  TYR157     -0.0009
     53  CD2        4.7290   -4.3370   28.1550 C.ar  157  TYR157     -0.0009
     54  CE1        3.6660   -4.7050   25.6180 C.ar  157  TYR157      0.0417
     55  CE2        5.1850   -3.5690   27.0840 C.ar  157  TYR157      0.0417
     56  CZ         4.6520   -3.7640   25.8200 C.ar  157  TYR157      0.1957
     57  OH         5.1230   -3.0000   24.7690 O.3   157  TYR157     -0.2866
     58  N          2.8120  -12.3650   20.2210 N.3   179  ARG179     -0.1245
     59  CA         3.1820  -11.1160   19.5600 C.3   179  ARG179      0.1563
     60  C          1.9590  -10.3390   19.0980 C.2   179  ARG179      0.2260
     61  O          2.0070   -9.1010   19.0120 O.2   179  ARG179     -0.2867
     62  CB         4.1230  -11.4150   18.3900 C.3   179  ARG179      0.0307
     63  CG         4.6670  -10.1770   17.6850 C.3   179  ARG179      0.0489
     64  CD         5.3360   -9.2180   18.6680 C.3   179  ARG179      0.2205
     65  NE         6.2920   -8.3210   18.0130 N.pl3 179  ARG179     -0.0865
     66  CZ         6.6670   -7.1420   18.4970 C.cat 179  ARG179      0.5346
     67  NH1        6.1520   -6.6910   19.6370 N.pl3 179  ARG179      0.1354
     68  NH2        7.5550   -6.4070   17.8380 N.pl3 179  ARG179      0.1354
     69  N          1.3980   -8.4000   22.3880 N.3   182  THR182     -0.1203
     70  CA         2.3570   -7.3820   22.8270 C.3   182  THR182      0.1994
     71  C          2.4720   -6.2420   21.8230 C.2   182  THR182      0.2617
     72  O          2.7770   -5.1090   22.2050 O.2   182  THR182     -0.2717
     73  CB         3.7390   -7.9830   23.0650 C.3   182  THR182      0.1784
     74  OG1        4.2410   -8.5330   21.8390 O.3   182  THR182     -0.2211
     75  CG2        3.6890   -9.0680   24.1730 C.3   182  THR182      0.0376
     76  N          2.2500   -6.5270   20.5440 N.am  183  PHE183     -0.1975
     77  CA         2.2180   -5.4880   19.5280 C.3   183  PHE183      0.1639
     78  C          0.9010   -4.7320   19.5320 C.2   183  PHE183      0.2290
     79  O          0.8290   -3.6430   18.9630 O.2   183  PHE183     -0.2864
     80  CB         2.4540   -6.1070   18.1460 C.3   183  PHE183      0.0560
     81  CG         2.8470   -5.1160   17.0890 C.ar  183  PHE183     -0.0200
     82  CD1        4.1520   -4.6800   16.9990 C.ar  183  PHE183     -0.0042
     83  CD2        1.9200   -4.6580   16.1620 C.ar  183  PHE183     -0.0042
     84  CE1        4.5330   -3.8140   16.0040 C.ar  183  PHE183     -0.0003
     85  CE2        2.2770   -3.7620   15.1780 C.ar  183  PHE183     -0.0003
     86  CZ         3.5880   -3.3320   15.0920 C.ar  183  PHE183     -0.0000
     87  N         -4.5550   -1.2500   17.4440 N.3   188  TRP188     -0.1241
     88  CA        -4.3940   -0.4560   16.2270 C.3   188  TRP188      0.1605
     89  C         -5.5710   -0.6700   15.2820 C.2   188  TRP188      0.2264
     90  O         -6.0000    0.2630   14.5930 O.2   188  TRP188     -0.2867
     91  CB        -3.0670   -0.8010   15.5450 C.3   188  TRP188      0.0550
     92  CG        -1.9010   -0.7600   16.4740 C.ar  188  TRP188      0.0003
     93  CD1       -1.0290   -1.7820   16.7490 C.ar  188  TRP188      0.0946
     94  CD2       -1.4950    0.3410   17.2980 C.ar  188  TRP188      0.0152
     95  NE1       -0.1030   -1.3830   17.6830 N.ar  188  TRP188     -0.2442
     96  CE2       -0.3620   -0.0840   18.0350 C.ar  188  TRP188      0.0810
     97  CE3       -1.9670    1.6460   17.4760 C.ar  188  TRP188      0.0012
     98  CZ2        0.2900    0.7390   18.9450 C.ar  188  TRP188      0.0191
     99  CZ3       -1.3150    2.4670   18.3870 C.ar  188  TRP188      0.0001
    100  CH2       -0.1940    2.0090   19.1070 C.ar  188  TRP188      0.0015
    101  N          9.1540   -4.9550   12.5720 N.3   225  ASN225     -0.1240
    102  CA         9.8290   -4.4770   13.7670 C.3   225  ASN225      0.1653
    103  C         10.8140   -5.5170   14.2770 C.2   225  ASN225      0.2266
    104  O         11.9600   -5.1920   14.6100 O.2   225  ASN225     -0.2867
    105  CB         8.8240   -4.1340   14.8530 C.3   225  ASN225      0.1155
    106  CG         9.5110   -3.8200   16.1510 C.2   225  ASN225      0.2627
    107  OD1        9.7260   -4.6950   16.9570 O.2   225  ASN225     -0.2716
    108  ND2        9.9400   -2.5790   16.3080 N.am  225  ASN225     -0.0877
    109  N         -0.3670    1.4250    6.9150 N.3   310  TRP310     -0.1241
    110  CA         0.4750    0.9010    7.9910 C.3   310  TRP310      0.1605
    111  C          1.7410    0.2620    7.4390 C.2   310  TRP310      0.2264
    112  O          2.8090    0.3570    8.0570 O.2   310  TRP310     -0.2867
    113  CB        -0.3150   -0.1180    8.8140 C.3   310  TRP310      0.0550
    114  CG         0.1520   -0.4220   10.2510 C.ar  310  TRP310      0.0003
    115  CD1        0.0080   -1.6170   10.9040 C.ar  310  TRP310      0.0946
    116  CD2        0.7180    0.4870   11.2150 C.ar  310  TRP310      0.0152
    117  NE1        0.4960   -1.5230   12.1910 N.ar  310  TRP310     -0.2442
    118  CE2        0.9260   -0.2390   12.4060 C.ar  310  TRP310      0.0810
    119  CE3        1.1070    1.8320   11.1730 C.ar  310  TRP310      0.0012
    120  CZ2        1.4880    0.3380   13.5500 C.ar  310  TRP310      0.0191
    121  CZ3        1.6510    2.4080   12.3210 C.ar  310  TRP310      0.0001
    122  CH2        1.8360    1.6610   13.4870 C.ar  310  TRP310      0.0015
    123  N          5.2280    1.9660    8.8390 N.3   314  VAL314     -0.1245
    124  CA         6.1110    1.1410    9.6580 C.3   314  VAL314      0.1561
    125  C          7.4460    0.9110    8.9650 C.2   314  VAL314      0.2260
    126  O          8.5100    0.9580    9.5980 O.2   314  VAL314     -0.2867
    127  CB         5.4180   -0.1900    9.9980 C.3   314  VAL314      0.0252
    128  CG1        6.4360   -1.2110   10.5060 C.3   314  VAL314      0.0019
    129  CG2        4.3300    0.0460   11.0200 C.3   314  VAL314      0.0019
    130  N          9.4460    4.2080    9.1370 N.3   317  PHE317     -0.1227
    131  CA         9.7120    4.5450   10.5330 C.3   317  PHE317      0.1736
    132  C         10.9720    3.8590   11.0420 C.2   317  PHE317      0.2595
    133  O         11.7970    4.4790   11.7180 O.2   317  PHE317     -0.2718
    134  CB         8.5020    4.1600   11.3910 C.3   317  PHE317      0.0547
    135  CG         8.7580    4.1920   12.8840 C.ar  317  PHE317     -0.0202
    136  CD1        8.7790    5.3980   13.5840 C.ar  317  PHE317     -0.0042
    137  CD2        8.9490    3.0200   13.5890 C.ar  317  PHE317     -0.0042
    138  CE1        8.9880    5.4240   14.9610 C.ar  317  PHE317     -0.0003
    139  CE2        9.1600    3.0430   14.9750 C.ar  317  PHE317     -0.0003
    140  CZ         9.1730    4.2400   15.6550 C.ar  317  PHE317     -0.0000
    141  N         11.1290    2.5610   10.7480 N.am  318  HIS318     -0.1975
    142  CA        12.2790    1.8380   11.2770 C.3   318  HIS318      0.1656
    143  C         13.6050    2.3010   10.6860 C.2   318  HIS318      0.2291
    144  O         14.6500    2.0590   11.2940 O.2   318  HIS318     -0.2864
    145  CB        12.0920    0.3240   11.0800 C.3   318  HIS318      0.0771
    146  CG        11.1100   -0.2680   12.0410 C.ar  318  HIS318      0.0820
    147  ND1        9.7680   -0.3670   11.7600 N.ar  318  HIS318     -0.2267
    148  CD2       11.2620   -0.7100   13.3150 C.ar  318  HIS318      0.1154
    149  CE1        9.1360   -0.8750   12.8040 C.ar  318  HIS318      0.1986
    150  NE2       10.0200   -1.0860   13.7620 N.ar  318  HIS318     -0.2212
    151  N         15.1970    5.2320   17.6220 N.3   323  ARG323     -0.1231
    152  CA        14.9500    4.1590   18.5770 C.3   323  ARG323      0.1694
    153  C         15.8210    2.9300   18.3240 C.2   323  ARG323      0.2592
    154  O         16.1580    2.2030   19.2740 O.2   323  ARG323     -0.2718
    155  CB        13.4780    3.7730   18.5370 C.3   323  ARG323      0.0321
    156  CG        13.1030    2.7470   19.6020 C.3   323  ARG323      0.0489
    157  CD        11.5990    2.6290   19.7040 C.3   323  ARG323      0.2205
    158  NE        11.2260    1.5850   20.6510 N.pl3 323  ARG323     -0.0865
    159  CZ        11.1500    1.7630   21.9640 C.cat 323  ARG323      0.5346
    160  NH1       11.4190    2.9580   22.4960 N.pl3 323  ARG323      0.1354
    161  NH2       10.8050    0.7430   22.7460 N.pl3 323  ARG323      0.1354
    162  N         16.1820    2.6590   17.0710 N.am  324  TYR324     -0.1976
    163  CA        16.8150    1.3930   16.7170 C.3   324  TYR324      0.1639
    164  C         18.2980    1.5020   16.3810 C.2   324  TYR324      0.2290
    165  O         18.9270    0.4770   16.1000 O.2   324  TYR324     -0.2864
    166  CB        16.0480    0.7550   15.5510 C.3   324  TYR324      0.0560
    167  CG        14.5950    0.6380   15.9220 C.ar  324  TYR324     -0.0198
    168  CD1       14.1850   -0.2690   16.8990 C.ar  324  TYR324     -0.0009
    169  CD2       13.6410    1.4740   15.3590 C.ar  324  TYR324     -0.0009
    170  CE1       12.8660   -0.3500   17.2890 C.ar  324  TYR324      0.0417
    171  CE2       12.3190    1.3920   15.7350 C.ar  324  TYR324      0.0417
    172  CZ        11.9420    0.4840   16.7050 C.ar  324  TYR324      0.1957
    173  OH        10.6310    0.4100   17.0830 O.3   324  TYR324     -0.2866
@<TRIPOS>BOND
     1   109   110    1
     2   111   110    1
     3   111   112    2
     4   110   113    1
     5   113   114    1
     6   123   124    1
     7   125   126    2
     8   125   124    1
     9   130   131    1
    10   124   127    1
    11   127   128    1
    12   127   129    1
    13   114   115   ar
    14   114   116   ar
    15   131   132    1
    16   131   134    1
    17   143   142    1
    18   143   144    2
    19   141   132   am
    20   141   142    1
    21   115   117   ar
    22   132   133    2
    23   145   142    1
    24   145   146    1
    25   119   116   ar
    26   119   121   ar
    27   116   118   ar
    28   134   135    1
    29     4     3    2
    30   147   146   ar
    31   147   149   ar
    32   146   148   ar
    33   117   118   ar
    34   121   122   ar
    35   118   120   ar
    36     3     2    1
    37     2     1    1
    38     2     5    1
    39     7     6    1
    40   101   102    1
    41   149   150   ar
    42   135   136   ar
    43   135   137   ar
    44   148   150   ar
    45   122   120   ar
    46   136   138   ar
    47   137   139   ar
    48     5     6    1
    49     6     8    1
    50   102   103    1
    51   102   105    1
    52   103   104    2
    53    90    89    2
    54   105   106    1
    55   138   140   ar
    56   139   140   ar
    57    86    85   ar
    58    86    84   ar
    59    85    83   ar
    60    89    88    1
    61   169   171   ar
    62   169   167   ar
    63    91    88    1
    64    91    92    1
    65   166   167    1
    66   166   163    1
    67   171   172   ar
    68   167   168   ar
    69    84    82   ar
    70   165   164    2
    71   106   108   am
    72   106   107    2
    73    83    81   ar
    74    88    87    1
    75   164   163    1
    76    92    93   ar
    77    92    94   ar
    78   172   173    1
    79   172   170   ar
    80   163   162    1
    81    93    95   ar
    82   168   170   ar
    83    82    81   ar
    84   162   153   am
    85    81    80    1
    86    94    97   ar
    87    94    96   ar
    88    97    99   ar
    89   151   152    1
    90    95    96   ar
    91    63    62    1
    92    63    64    1
    93    68    66    1
    94    65    66    2
    95    65    64    1
    96    96    98   ar
    97    80    77    1
    98   153   152    1
    99   153   154    2
   100    99   100   ar
   101    62    59    1
   102    37    36   ar
   103    37    35   ar
   104    66    67    1
   105   155   152    1
   106   155   156    1
   107    14    13    1
   108    98   100   ar
   109    36    34   ar
   110    79    78    2
   111    61    60    2
   112    60    59    1
   113    35    33   ar
   114    13    10    1
   115    77    78    1
   116    77    76    1
   117    59    58    1
   118   156   157    1
   119   157   158    1
   120    34    32   ar
   121    76    71   am
   122    33    32   ar
   123   158   159    2
   124    10    11    1
   125    10     9    1
   126    32    31    1
   127    11    12    2
   128    71    72    2
   129    71    70    1
   130    74    73    1
   131   159   160    1
   132   159   161    1
   133    69    70    1
   134    31    28    1
   135    24    22   ar
   136    24    25   ar
   137    70    73    1
   138    22    20   ar
   139    73    75    1
   140    26    25    1
   141    25    23   ar
   142    20    19    1
   143    20    21   ar
   144    19    16    1
   145    28    27    1
   146    28    29    1
   147    23    21   ar
   148    27    17   am
   149    45    43   ar
   150    17    16    1
   151    17    18    2
   152    43    44   ar
   153    43    42    1
   154    16    15    1
   155    57    56    1
   156    29    30    2
   157    42    39    1
   158    54    56   ar
   159    54    52   ar
   160    56    55   ar
   161    39    38    1
   162    39    40    1
   163    52    51   ar
   164    55    53   ar
   165    40    41    2
   166    51    53   ar
   167    51    50    1
   168    46    47    1
   169    47    50    1
   170    47    48    1
   171    48    49    2
