@<TRIPOS>MOLECULE
tmp/6axmA00.pdb
 151 144 0 0 0
SMALL
GASTEIGER

@<TRIPOS>ATOM
      1  N          5.3750    3.6200   23.6800 N.3    81  PHE81      -0.1241
      2  CA         6.8270    3.4430   23.5670 C.3    81  PHE81       0.1605
      3  C          7.5160    3.6260   24.9180 C.2    81  PHE81       0.2264
      4  O          8.4210    2.8620   25.2780 O.2    81  PHE81      -0.2867
      5  CB         7.4090    4.4280   22.5520 C.3    81  PHE81       0.0534
      6  CG         7.2330    4.0100   21.0990 C.ar   81  PHE81      -0.0203
      7  CD1        7.9870    2.9770   20.5620 C.ar   81  PHE81      -0.0042
      8  CD2        6.3130    4.6600   20.2810 C.ar   81  PHE81      -0.0042
      9  CE1        7.8400    2.6050   19.2320 C.ar   81  PHE81      -0.0003
     10  CE2        6.1580    4.2930   18.9480 C.ar   81  PHE81      -0.0003
     11  CZ         6.9210    3.2540   18.4240 C.ar   81  PHE81      -0.0000
     12  N          6.9490    0.5800   27.0300 N.3    84  ASP84      -0.1239
     13  CA         7.8640   -0.4820   26.6260 C.3    84  ASP84       0.1674
     14  C          9.2490   -0.2690   27.2340 C.2    84  ASP84       0.2266
     15  O          9.8910   -1.2240   27.6810 O.2    84  ASP84      -0.2867
     16  CB         7.9340   -0.5280   25.1010 C.3    84  ASP84       0.1410
     17  CG         8.4750   -1.8390   24.5770 C.2    84  ASP84       0.3668
     18  OD1        7.7830   -2.8660   24.7100 O.co2  84  ASP84      -0.2456
     19  OD2        9.5860   -1.8180   24.0360 O.co2  84  ASP84      -0.2456
     20  N          2.2280   -8.2300   28.3140 N.3   157  TYR157     -0.1241
     21  CA         3.4460   -7.6550   28.8740 C.3   157  TYR157      0.1605
     22  C          3.8590   -8.3850   30.1440 C.2   157  TYR157      0.2264
     23  O          5.0510   -8.6020   30.3860 O.2   157  TYR157     -0.2867
     24  CB         3.2570   -6.1540   29.1450 C.3   157  TYR157      0.0534
     25  CG         3.7400   -5.3060   27.9800 C.ar  157  TYR157     -0.0201
     26  CD1        3.2160   -5.4800   26.7020 C.ar  157  TYR157     -0.0009
     27  CD2        4.7290   -4.3370   28.1550 C.ar  157  TYR157     -0.0009
     28  CE1        3.6660   -4.7050   25.6180 C.ar  157  TYR157      0.0417
     29  CE2        5.1850   -3.5690   27.0840 C.ar  157  TYR157      0.0417
     30  CZ         4.6520   -3.7640   25.8200 C.ar  157  TYR157      0.1957
     31  OH         5.1230   -3.0000   24.7690 O.3   157  TYR157     -0.2866
     32  N          5.6780  -11.4250   29.2050 N.3   160  GLU160     -0.1245
     33  CA         7.0470  -11.1000   28.8210 C.3   160  GLU160      0.1567
     34  C          7.9330  -10.8900   30.0390 C.2   160  GLU160      0.2260
     35  O          9.1170  -11.2340   30.0160 O.2   160  GLU160     -0.2867
     36  CB         7.0810   -9.8510   27.9410 C.3   160  GLU160      0.0388
     37  CG         6.6550  -10.0500   26.5180 C.3   160  GLU160      0.1160
     38  CD         6.9210   -8.8050   25.6930 C.2   160  GLU160      0.3649
     39  OE1        6.8590   -7.7090   26.2880 O.co2 160  GLU160     -0.2457
     40  OE2        7.2010   -8.9140   24.4740 O.co2 160  GLU160     -0.2457
     41  N          2.8120  -12.3650   20.2210 N.3   179  ARG179     -0.1245
     42  CA         3.1820  -11.1160   19.5600 C.3   179  ARG179      0.1563
     43  C          1.9590  -10.3390   19.0980 C.2   179  ARG179      0.2260
     44  O          2.0070   -9.1010   19.0120 O.2   179  ARG179     -0.2867
     45  CB         4.1230  -11.4150   18.3900 C.3   179  ARG179      0.0307
     46  CG         4.6670  -10.1770   17.6850 C.3   179  ARG179      0.0489
     47  CD         5.3360   -9.2180   18.6680 C.3   179  ARG179      0.2205
     48  NE         6.2920   -8.3210   18.0130 N.pl3 179  ARG179     -0.0865
     49  CZ         6.6670   -7.1420   18.4970 C.cat 179  ARG179      0.5346
     50  NH1        6.1520   -6.6910   19.6370 N.pl3 179  ARG179      0.1354
     51  NH2        7.5550   -6.4070   17.8380 N.pl3 179  ARG179      0.1354
     52  N          1.3980   -8.4000   22.3880 N.3   182  THR182     -0.1203
     53  CA         2.3570   -7.3820   22.8270 C.3   182  THR182      0.1994
     54  C          2.4720   -6.2420   21.8230 C.2   182  THR182      0.2617
     55  O          2.7770   -5.1090   22.2050 O.2   182  THR182     -0.2717
     56  CB         3.7390   -7.9830   23.0650 C.3   182  THR182      0.1784
     57  OG1        4.2410   -8.5330   21.8390 O.3   182  THR182     -0.2211
     58  CG2        3.6890   -9.0680   24.1730 C.3   182  THR182      0.0376
     59  N          2.2500   -6.5270   20.5440 N.am  183  PHE183     -0.1975
     60  CA         2.2180   -5.4880   19.5280 C.3   183  PHE183      0.1639
     61  C          0.9010   -4.7320   19.5320 C.2   183  PHE183      0.2290
     62  O          0.8290   -3.6430   18.9630 O.2   183  PHE183     -0.2864
     63  CB         2.4540   -6.1070   18.1460 C.3   183  PHE183      0.0560
     64  CG         2.8470   -5.1160   17.0890 C.ar  183  PHE183     -0.0200
     65  CD1        4.1520   -4.6800   16.9990 C.ar  183  PHE183     -0.0042
     66  CD2        1.9200   -4.6580   16.1620 C.ar  183  PHE183     -0.0042
     67  CE1        4.5330   -3.8140   16.0040 C.ar  183  PHE183     -0.0003
     68  CE2        2.2770   -3.7620   15.1780 C.ar  183  PHE183     -0.0003
     69  CZ         3.5880   -3.3320   15.0920 C.ar  183  PHE183     -0.0000
     70  N          9.1540   -4.9550   12.5720 N.3   225  ASN225     -0.1225
     71  CA         9.8290   -4.4770   13.7670 C.3   225  ASN225      0.1785
     72  C         10.8140   -5.5170   14.2770 C.2   225  ASN225      0.2597
     73  O         11.9600   -5.1920   14.6100 O.2   225  ASN225     -0.2718
     74  CB         8.8240   -4.1340   14.8530 C.3   225  ASN225      0.1169
     75  CG         9.5110   -3.8200   16.1510 C.2   225  ASN225      0.2627
     76  OD1        9.7260   -4.6950   16.9570 O.2   225  ASN225     -0.2716
     77  ND2        9.9400   -2.5790   16.3080 N.am  225  ASN225     -0.0877
     78  N         10.3850   -6.7870   14.3380 N.am  226  ASP226     -0.1974
     79  CA        11.3060   -7.8430   14.7620 C.3   226  ASP226      0.1709
     80  C         12.5630   -7.8320   13.8980 C.2   226  ASP226      0.2293
     81  O         13.6860   -7.8990   14.4100 O.2   226  ASP226     -0.2864
     82  CB        10.6340   -9.2150   14.6940 C.3   226  ASP226      0.1436
     83  CG         9.6470   -9.4630   15.8290 C.2   226  ASP226      0.3671
     84  OD1        9.3330   -8.5350   16.6060 O.co2 226  ASP226     -0.2456
     85  OD2        9.1600  -10.6090   15.9420 O.co2 226  ASP226     -0.2456
     86  N         14.4580   -4.3750   14.7170 N.3   229  SER229     -0.1217
     87  CA        14.9060   -4.1790   16.0870 C.3   229  SER229      0.1889
     88  C         15.7080   -5.3580   16.6240 C.2   229  SER229      0.2288
     89  O         16.1320   -5.3250   17.7820 O.2   229  SER229     -0.2866
     90  CB        13.7140   -3.8870   17.0000 C.3   229  SER229      0.2089
     91  OG        12.8090   -4.9740   17.0570 O.3   229  SER229     -0.2183
     92  N         19.2140   -4.1940   18.2970 N.3   232  LYS232     -0.1231
     93  CA        19.1050   -3.6070   19.6280 C.3   232  LYS232      0.1693
     94  C         18.5830   -4.6190   20.6400 C.2   232  LYS232      0.2591
     95  O         18.9480   -4.5580   21.8230 O.2   232  LYS232     -0.2718
     96  CB        18.2030   -2.3670   19.6010 C.3   232  LYS232      0.0285
     97  CG        16.7830   -2.6340   20.0890 C.3   232  LYS232      0.0035
     98  CD        15.9960   -1.3620   20.3280 C.3   232  LYS232      0.0206
     99  CE        14.5050   -1.6540   20.4100 C.3   232  LYS232      0.1093
    100  NZ        14.0440   -1.9970   21.7920 N.3   232  LYS232     -0.1314
    101  N         17.7410   -5.5550   20.2100 N.am  233  GLU233     -0.1979
    102  CA        17.1420   -6.4640   21.1760 C.3   233  GLU233      0.1602
    103  C         18.1370   -7.5330   21.6080 C.2   233  GLU233      0.2287
    104  O         18.2100   -7.8710   22.7970 O.2   233  GLU233     -0.2864
    105  CB        15.8440   -7.0350   20.5980 C.3   233  GLU233      0.0415
    106  CG        14.7960   -5.8990   20.4330 C.3   233  GLU233      0.1163
    107  CD        13.4350   -6.3410   19.9320 C.2   233  GLU233      0.3649
    108  OE1       13.2960   -7.4790   19.4240 O.co2 233  GLU233     -0.2457
    109  OE2       12.4870   -5.5350   20.0540 O.co2 233  GLU233     -0.2457
    110  N         16.7860   -8.6810   25.2520 N.3   238  GLU238     -0.1245
    111  CA        15.3970   -8.9660   24.9270 C.3   238  GLU238      0.1567
    112  C         15.3110  -10.4000   24.4180 C.2   238  GLU238      0.2260
    113  O         16.2420  -10.8970   23.7840 O.2   238  GLU238     -0.2867
    114  CB        14.9020   -7.9670   23.8650 C.3   238  GLU238      0.0388
    115  CG        13.5190   -8.2440   23.2800 C.3   238  GLU238      0.1160
    116  CD        12.3910   -8.0530   24.2900 C.2   238  GLU238      0.3649
    117  OE1       12.0170   -6.8990   24.5850 O.co2 238  GLU238     -0.2457
    118  OE2       11.8810   -9.0640   24.8080 O.co2 238  GLU238     -0.2457
    119  N         12.0470  -11.4830   23.0960 N.3   240  HIS240     -0.1241
    120  CA        10.8060  -11.5480   22.3310 C.3   240  HIS240      0.1621
    121  C         11.0510  -10.9780   20.9390 C.2   240  HIS240      0.2264
    122  O         11.1270   -9.7600   20.7480 O.2   240  HIS240     -0.2867
    123  CB         9.6930  -10.8340   23.0840 C.3   240  HIS240      0.0745
    124  CG         9.4070  -11.4640   24.4060 C.ar  240  HIS240      0.0817
    125  ND1        9.8370  -10.9260   25.5980 N.ar  240  HIS240     -0.2268
    126  CD2        8.8080  -12.6390   24.7160 C.ar  240  HIS240      0.1154
    127  CE1        9.4810  -11.7240   26.5910 C.ar  240  HIS240      0.1986
    128  NE2        8.8550  -12.7700   26.0820 N.ar  240  HIS240     -0.2212
    129  N         15.1970    5.2320   17.6220 N.3   323  ARG323     -0.1231
    130  CA        14.9500    4.1590   18.5770 C.3   323  ARG323      0.1694
    131  C         15.8210    2.9300   18.3240 C.2   323  ARG323      0.2592
    132  O         16.1580    2.2030   19.2740 O.2   323  ARG323     -0.2718
    133  CB        13.4780    3.7730   18.5370 C.3   323  ARG323      0.0321
    134  CG        13.1030    2.7470   19.6020 C.3   323  ARG323      0.0489
    135  CD        11.5990    2.6290   19.7040 C.3   323  ARG323      0.2205
    136  NE        11.2260    1.5850   20.6510 N.pl3 323  ARG323     -0.0865
    137  CZ        11.1500    1.7630   21.9640 C.cat 323  ARG323      0.5346
    138  NH1       11.4190    2.9580   22.4960 N.pl3 323  ARG323      0.1354
    139  NH2       10.8050    0.7430   22.7460 N.pl3 323  ARG323      0.1354
    140  N         16.1820    2.6590   17.0710 N.am  324  TYR324     -0.1976
    141  CA        16.8150    1.3930   16.7170 C.3   324  TYR324      0.1639
    142  C         18.2980    1.5020   16.3810 C.2   324  TYR324      0.2290
    143  O         18.9270    0.4770   16.1000 O.2   324  TYR324     -0.2864
    144  CB        16.0480    0.7550   15.5510 C.3   324  TYR324      0.0560
    145  CG        14.5950    0.6380   15.9220 C.ar  324  TYR324     -0.0198
    146  CD1       14.1850   -0.2690   16.8990 C.ar  324  TYR324     -0.0009
    147  CD2       13.6410    1.4740   15.3590 C.ar  324  TYR324     -0.0009
    148  CE1       12.8660   -0.3500   17.2890 C.ar  324  TYR324      0.0417
    149  CE2       12.3190    1.3920   15.7350 C.ar  324  TYR324      0.0417
    150  CZ        11.9420    0.4840   16.7050 C.ar  324  TYR324      0.1957
    151  OH        10.6310    0.4100   17.0830 O.3   324  TYR324     -0.2866
@<TRIPOS>BOND
     1    70    71    1
     2    71    72    1
     3    71    74    1
     4    80    81    2
     5    80    79    1
     6    72    78   am
     7    72    73    2
     8    78    79    1
     9    82    79    1
    10    82    83    1
    11    86    87    1
    12    74    75    1
    13    69    68   ar
    14    69    67   ar
    15    68    66   ar
    16   147   149   ar
    17   147   145   ar
    18   144   145    1
    19   144   141    1
    20   149   150   ar
    21    83    85   ar
    22    83    84   ar
    23   145   146   ar
    24    67    65   ar
    25    87    88    1
    26    87    90    1
    27   143   142    2
    28    75    77   am
    29    75    76    2
    30    66    64   ar
    31   142   141    1
    32    88    89    2
    33   150   151    1
    34   150   148   ar
    35   141   140    1
    36   146   148   ar
    37    65    64   ar
    38    90    91    1
    39   140   131   am
    40    64    63    1
    41   129   130    1
    42    46    45    1
    43    46    47    1
    44    51    49    1
    45    48    49    2
    46    48    47    1
    47    63    60    1
    48    92    93    1
    49   131   130    1
    50   131   132    2
    51    45    42    1
    52    11    10   ar
    53    11     9   ar
    54    49    50    1
    55   133   130    1
    56   133   134    1
    57    10     8   ar
    58    62    61    2
    59    44    43    2
    60    43    42    1
    61     9     7   ar
    62   108   107   ar
    63    60    61    1
    64    60    59    1
    65    42    41    1
    66    96    93    1
    67    96    97    1
    68   134   135    1
    69    93    94    1
    70   135   136    1
    71   107   109   ar
    72   107   106    1
    73    97    98    1
    74   101    94   am
    75   101   102    1
    76     8     6   ar
    77    98    99    1
    78    99   100    1
    79   106   105    1
    80    59    54   am
    81     7     6   ar
    82   105   102    1
    83    94    95    2
    84   136   137    2
    85   122   121    2
    86   121   120    1
    87     6     5    1
    88   102   103    1
    89   103   104    2
    90    54    55    2
    91    54    53    1
    92    57    56    1
    93   137   138    1
    94   137   139    1
    95   120   123    1
    96   120   119    1
    97    52    53    1
    98     5     2    1
    99    53    56    1
   100    56    58    1
   101   123   124    1
   102   115   114    1
   103   115   116    1
   104     2     1    1
   105     2     3    1
   106   113   112    2
   107   114   111    1
   108    19    17   ar
   109   116   117   ar
   110   116   118   ar
   111   124   126   ar
   112   124   125   ar
   113   112   111    1
   114    40    38   ar
   115    17    18   ar
   116    17    16    1
   117   126   128   ar
   118    31    30    1
   119     3     4    2
   120   111   110    1
   121    16    13    1
   122   125   127   ar
   123    28    30   ar
   124    28    26   ar
   125    38    39   ar
   126    38    37    1
   127    30    29   ar
   128   128   127   ar
   129    37    36    1
   130    13    12    1
   131    13    14    1
   132    26    25   ar
   133    29    27   ar
   134    14    15    2
   135    36    33    1
   136    25    27   ar
   137    25    24    1
   138    20    21    1
   139    33    32    1
   140    33    34    1
   141    21    24    1
   142    21    22    1
   143    35    34    2
   144    22    23    2
