@<TRIPOS>MOLECULE
tmp/6axqA00.pdb
 104 99 0 0 0
SMALL
GASTEIGER

@<TRIPOS>ATOM
      1  N         21.4750  -26.3090  -14.7560 N.3    26  PRO26      -0.2102
      2  CA        20.6080  -27.1280  -13.9280 C.3    26  PRO26       0.1504
      3  C         19.3470  -26.3770  -13.4730 C.2    26  PRO26       0.2575
      4  O         18.5380  -26.9940  -12.9220 O.2    26  PRO26      -0.2718
      5  CB        21.4890  -27.4240  -12.7120 C.3    26  PRO26       0.0282
      6  CG        22.8860  -27.2700  -13.1800 C.3    26  PRO26       0.0208
      7  CD        22.7790  -26.1050  -14.1280 C.3    26  PRO26       0.0893
      8  N         19.2910  -25.0670  -13.6880 N.am   27  PHE27      -0.1977
      9  CA        18.1700  -24.2240  -13.2770 C.3    27  PHE27       0.1639
     10  C         17.2760  -23.8000  -14.4370 C.2    27  PHE27       0.2290
     11  O         16.3260  -23.0400  -14.2230 O.2    27  PHE27      -0.2864
     12  CB        18.7010  -22.9650  -12.5590 C.3    27  PHE27       0.0560
     13  CG        19.5280  -23.2740  -11.3310 C.ar   27  PHE27      -0.0200
     14  CD1       18.9240  -23.3040  -10.0670 C.ar   27  PHE27      -0.0042
     15  CD2       20.9050  -23.5530  -11.4280 C.ar   27  PHE27      -0.0042
     16  CE1       19.6910  -23.6030   -8.9390 C.ar   27  PHE27      -0.0003
     17  CE2       21.6610  -23.8550  -10.2880 C.ar   27  PHE27      -0.0003
     18  CZ        21.0580  -23.8750   -9.0510 C.ar   27  PHE27      -0.0000
     19  N         13.3580  -28.9720  -11.5690 N.3    31  VAL31      -0.1245
     20  CA        13.9390  -30.2100  -11.0470 C.3    31  VAL31       0.1561
     21  C         12.9970  -31.3830  -11.3040 C.2    31  VAL31       0.2260
     22  O         11.7990  -31.3190  -11.0110 O.2    31  VAL31      -0.2867
     23  CB        14.2460  -30.0760   -9.5430 C.3    31  VAL31       0.0252
     24  CG1       14.6810  -31.4240   -8.9650 C.3    31  VAL31       0.0019
     25  CG2       15.3160  -29.0120   -9.2960 C.3    31  VAL31       0.0019
     26  N         16.4670  -37.5500  -12.0960 N.3    36  LEU36      -0.1245
     27  CA        17.7270  -37.3470  -11.4110 C.3    36  LEU36       0.1561
     28  C         18.0260  -38.4410  -10.4050 C.2    36  LEU36       0.2260
     29  O         19.1820  -38.6020  -10.0270 O.2    36  LEU36      -0.2867
     30  CB        17.7070  -35.9980  -10.6960 C.3    36  LEU36       0.0270
     31  CG        17.6040  -34.7780  -11.6000 C.3    36  LEU36       0.0019
     32  CD1       17.5510  -33.4730  -10.7960 C.3    36  LEU36       0.0001
     33  CD2       18.7680  -34.7520  -12.5180 C.3    36  LEU36       0.0001
     34  N         16.4800  -38.5560   -7.2580 N.3    38  ILE38      -0.1245
     35  CA        16.3790  -37.9380   -5.9300 C.3    38  ILE38       0.1561
     36  C         14.9110  -37.8810   -5.5180 C.2    38  ILE38       0.2260
     37  O         14.3390  -36.7900   -5.3750 O.2    38  ILE38      -0.2867
     38  CB        17.0760  -36.5610   -5.8920 C.3    38  ILE38       0.0252
     39  CG1       16.5750  -35.6410   -7.0080 C.3    38  ILE38       0.0019
     40  CG2       18.5990  -36.7240   -6.0090 C.3    38  ILE38       0.0019
     41  CD1       17.1550  -34.2160   -6.9440 C.3    38  ILE38       0.0001
     42  N         13.0690  -35.2800   -3.1660 N.3    41  TYR41      -0.1241
     43  CA        13.2250  -33.8460   -3.3960 C.3    41  TYR41       0.1605
     44  C         11.9880  -33.0520   -2.9720 C.2    41  TYR41       0.2264
     45  O         12.1010  -32.0400   -2.2670 O.2    41  TYR41      -0.2867
     46  CB        13.5670  -33.5850   -4.8650 C.3    41  TYR41       0.0534
     47  CG        13.7560  -32.1060   -5.1820 C.ar   41  TYR41      -0.0201
     48  CD1       12.7200  -31.3470   -5.7270 C.ar   41  TYR41      -0.0009
     49  CD2       14.9760  -31.4780   -4.9030 C.ar   41  TYR41      -0.0009
     50  CE1       12.8880  -29.9720   -5.9810 C.ar   41  TYR41       0.0417
     51  CE2       15.1620  -30.1220   -5.1700 C.ar   41  TYR41       0.0417
     52  CZ        14.1140  -29.3840   -5.7020 C.ar   41  TYR41       0.1957
     53  OH        14.2770  -28.0400   -5.9570 O.3    41  TYR41      -0.2866
     54  N         10.9630  -23.9390   -7.8850 N.3    49  MET49      -0.1245
     55  CA        11.0520  -22.7850   -8.7730 C.3    49  MET49       0.1570
     56  C         12.3000  -22.9090   -9.6280 C.2    49  MET49       0.2261
     57  O         13.2990  -23.4770   -9.1850 O.2    49  MET49      -0.2867
     58  CB        11.0720  -21.4770   -7.9690 C.3    49  MET49       0.0387
     59  CG        10.9580  -20.1840   -8.7880 C.3    49  MET49       0.0595
     60  SD         9.5370  -20.1010   -9.9110 S.3    49  MET49      -0.1393
     61  CE         8.1590  -20.3290   -8.8080 C.3    49  MET49       0.0692
     62  N         17.6630  -24.6520   -3.8110 N.3    80  ALA80      -0.1245
     63  CA        18.8840  -25.3610   -4.1740 C.3    80  ALA80       0.1562
     64  C         19.8850  -25.3940   -3.0200 C.2    80  ALA80       0.2260
     65  O         20.5400  -26.4180   -2.7980 O.2    80  ALA80      -0.2867
     66  CB        19.4850  -24.7140   -5.4210 C.3    80  ALA80       0.0290
     67  N         18.4060  -28.0980   -0.4640 N.3    83  TYR83      -0.1227
     68  CA        18.4340  -29.5160   -0.8100 C.3    83  TYR83       0.1736
     69  C         19.8540  -30.0400   -0.9940 C.2    83  TYR83       0.2595
     70  O         20.1440  -31.1850   -0.6330 O.2    83  TYR83      -0.2718
     71  CB        17.6150  -29.7850   -2.0890 C.3    83  TYR83       0.0548
     72  CG        17.5810  -31.2660   -2.3420 C.ar   83  TYR83      -0.0200
     73  CD1       18.5000  -31.8610   -3.1860 C.ar   83  TYR83      -0.0009
     74  CD2       16.6810  -32.0800   -1.6730 C.ar   83  TYR83      -0.0009
     75  CE1       18.5150  -33.2250   -3.3740 C.ar   83  TYR83       0.0417
     76  CE2       16.6960  -33.4470   -1.8440 C.ar   83  TYR83       0.0417
     77  CZ        17.6190  -34.0150   -2.6910 C.ar   83  TYR83       0.1957
     78  OH        17.6260  -35.3730   -2.8510 O.3    83  TYR83      -0.2866
     79  N         20.7340  -29.2440   -1.5920 N.am   84  ASN84      -0.1974
     80  CA        22.0490  -29.7080   -2.0000 C.3    84  ASN84       0.1688
     81  C         23.0950  -29.4170   -0.9230 C.2    84  ASN84       0.2292
     82  O         22.9730  -28.4700   -0.1450 O.2    84  ASN84      -0.2864
     83  CB        22.4350  -29.0190   -3.3110 C.3    84  ASN84       0.1181
     84  CG        21.5040  -29.3950   -4.4520 C.2    84  ASN84       0.2629
     85  OD1       21.6080  -30.4810   -5.0040 O.2    84  ASN84      -0.2716
     86  ND2       20.5540  -28.5240   -4.7760 N.am   84  ASN84      -0.0877
     87  N         28.3600  -29.5010   -6.5460 N.3    89  ARG89      -0.1231
     88  CA        28.4200  -28.7010   -7.7680 C.3    89  ARG89       0.1694
     89  C         27.2000  -27.7900   -7.8970 C.2    89  ARG89       0.2591
     90  O         27.3260  -26.6120   -8.2590 O.2    89  ARG89      -0.2718
     91  CB        28.5150  -29.6240   -8.9850 C.3    89  ARG89       0.0321
     92  CG        28.3880  -28.9500  -10.3440 C.3    89  ARG89       0.0489
     93  CD        28.4190  -29.9860  -11.4760 C.3    89  ARG89       0.2205
     94  NE        27.2830  -30.8980  -11.4110 N.pl3  89  ARG89      -0.0865
     95  CZ        26.1740  -30.7450  -12.1260 C.cat  89  ARG89       0.5346
     96  NH1       26.0670  -29.7240  -12.9620 N.pl3  89  ARG89       0.1354
     97  NH2       25.1730  -31.6100  -12.0070 N.pl3  89  ARG89       0.1354
     98  N         26.0000  -28.3250   -7.6410 N.am   90  VAL90      -0.1980
     99  CA        24.7950  -27.5290   -7.8720 C.3    90  VAL90       0.1595
    100  C         24.6920  -26.4070   -6.8470 C.2    90  VAL90       0.2287
    101  O         24.2610  -25.2920   -7.1710 O.2    90  VAL90      -0.2864
    102  CB        23.5440  -28.4290   -7.9310 C.3    90  VAL90       0.0276
    103  CG1       22.2460  -27.6090   -7.8860 C.3    90  VAL90       0.0022
    104  CG2       23.5770  -29.2750   -9.1980 C.3    90  VAL90       0.0022
@<TRIPOS>BOND
     1     1     7    1
     2     1     2    1
     3    10    11    2
     4    10     9    1
     5     7     6    1
     6     2     3    1
     7     2     5    1
     8     8     3   am
     9     8     9    1
    10     3     4    2
    11     9    12    1
    12     6     5    1
    13    96    95    1
    14    12    13    1
    15    33    31    1
    16    95    97    1
    17    95    94    2
    18    26    27    1
    19    31    32    1
    20    31    30    1
    21    19    20    1
    22    93    94    1
    23    93    92    1
    24    15    13   ar
    25    15    17   ar
    26    27    30    1
    27    27    28    1
    28    13    14   ar
    29    21    20    1
    30    21    22    2
    31    20    23    1
    32    28    29    2
    33    92    91    1
    34    17    18   ar
    35    14    16   ar
    36    60    61    1
    37    60    59    1
    38    56    57    2
    39    56    55    1
    40    23    25    1
    41    23    24    1
    42   104   102    1
    43    18    16   ar
    44    91    88    1
    45    59    58    1
    46    55    58    1
    47    55    54    1
    48    90    89    2
    49   102   103    1
    50   102    99    1
    51    89    88    1
    52    89    98   am
    53    99    98    1
    54    99   100    1
    55    88    87    1
    56    34    35    1
    57   101   100    2
    58    39    41    1
    59    39    38    1
    60    40    38    1
    61    50    48   ar
    62    50    52   ar
    63    53    52    1
    64    35    38    1
    65    35    36    1
    66    48    47   ar
    67    52    51   ar
    68    36    37    2
    69    66    63    1
    70    47    49   ar
    71    47    46    1
    72    51    49   ar
    73    85    84    2
    74    46    43    1
    75    86    84   am
    76    84    83    1
    77    63    62    1
    78    63    64    1
    79    43    42    1
    80    43    44    1
    81    75    73   ar
    82    75    77   ar
    83    83    80    1
    84    73    72   ar
    85    64    65    2
    86    44    45    2
    87    78    77    1
    88    77    76   ar
    89    72    71    1
    90    72    74   ar
    91    71    68    1
    92    80    79    1
    93    80    81    1
    94    76    74   ar
    95    79    69   am
    96    69    68    1
    97    69    70    2
    98    81    82    2
    99    68    67    1
