@<TRIPOS>MOLECULE
tmp/6ay1D00.pdb
 109 102 0 0 0
SMALL
GASTEIGER

@<TRIPOS>ATOM
      1  N        -32.5360    8.0150  -51.4240 N.3    10  LYS10      -0.1245
      2  CA       -31.7580    9.2410  -51.5790 C.3    10  LYS10       0.1561
      3  C        -31.8280   10.0740  -50.2940 C.2    10  LYS10       0.2260
      4  O        -32.5550    9.7210  -49.3580 O.2    10  LYS10      -0.2867
      5  CB       -32.2420    9.9830  -52.8280 C.3    10  LYS10       0.0271
      6  CG       -31.8990    9.2150  -54.1230 C.3    10  LYS10       0.0035
      7  CD       -32.1110   10.0490  -55.3940 C.3    10  LYS10       0.0206
      8  CE       -31.8340    9.2150  -56.6390 C.3    10  LYS10       0.1093
      9  NZ       -32.2360    9.9080  -57.8950 N.3    10  LYS10      -0.1314
     10  N        -22.4010    8.2590  -61.0470 N.3    50  TYR50      -0.1241
     11  CA       -23.2480    8.9180  -62.0370 C.3    50  TYR50       0.1605
     12  C        -22.4480    9.4930  -63.2040 C.2    50  TYR50       0.2264
     13  O        -22.8540   10.4990  -63.7970 O.2    50  TYR50      -0.2867
     14  CB       -24.0790   10.0200  -61.3850 C.3    50  TYR50       0.0534
     15  CG       -25.1720    9.5200  -60.4730 C.ar   50  TYR50      -0.0201
     16  CD1      -26.3530    9.0010  -60.9910 C.ar   50  TYR50      -0.0009
     17  CD2      -25.0300    9.5710  -59.0900 C.ar   50  TYR50      -0.0009
     18  CE1      -27.3620    8.5450  -60.1560 C.ar   50  TYR50       0.0417
     19  CE2      -26.0350    9.1180  -58.2460 C.ar   50  TYR50       0.0417
     20  CZ       -27.1960    8.6060  -58.7850 C.ar   50  TYR50       0.1957
     21  OH       -28.1950    8.1450  -57.9490 O.3    50  TYR50      -0.2866
     22  N        -23.7750   10.7980  -66.6410 N.3    53  HIS53      -0.1241
     23  CA       -24.4570   12.0820  -66.7370 C.3    53  HIS53       0.1621
     24  C        -23.4870   13.2560  -66.6400 C.2    53  HIS53       0.2264
     25  O        -23.9130   14.3830  -66.3650 O.2    53  HIS53      -0.2867
     26  CB       -25.5390   12.1850  -65.6640 C.3    53  HIS53       0.0745
     27  CG       -26.6020   11.1380  -65.7850 C.ar   53  HIS53       0.0817
     28  ND1      -26.7820   10.1470  -64.8460 N.ar   53  HIS53      -0.2268
     29  CD2      -27.5280   10.9170  -66.7480 C.ar   53  HIS53       0.1154
     30  CE1      -27.7810    9.3660  -65.2170 C.ar   53  HIS53       0.1986
     31  NE2      -28.2500    9.8110  -66.3690 N.ar   53  HIS53      -0.2212
     32  N        -27.7560   18.7830  -65.6640 N.3    58  PHE58      -0.1241
     33  CA       -28.1860   18.6420  -64.2750 C.3    58  PHE58       0.1605
     34  C        -27.1250   18.0160  -63.3780 C.2    58  PHE58       0.2264
     35  O        -27.4000   17.7750  -62.1980 O.2    58  PHE58      -0.2867
     36  CB       -29.4690   17.8050  -64.2110 C.3    58  PHE58       0.0534
     37  CG       -29.3650   16.4800  -64.9140 C.ar   58  PHE58      -0.0203
     38  CD1      -28.8350   15.3740  -64.2670 C.ar   58  PHE58      -0.0042
     39  CD2      -29.7980   16.3380  -66.2210 C.ar   58  PHE58      -0.0042
     40  CE1      -28.7370   14.1590  -64.9130 C.ar   58  PHE58      -0.0003
     41  CE2      -29.7040   15.1180  -66.8700 C.ar   58  PHE58      -0.0003
     42  CZ       -29.1730   14.0320  -66.2150 C.ar   58  PHE58      -0.0000
     43  N        -38.1910   -0.9040  -60.9040 N.3    86  ARG86      -0.1245
     44  CA       -38.5450    0.2800  -61.6790 C.3    86  ARG86       0.1563
     45  C        -40.0420    0.5640  -61.6290 C.2    86  ARG86       0.2260
     46  O        -40.4520    1.7280  -61.5380 O.2    86  ARG86      -0.2867
     47  CB       -38.0550    0.1290  -63.1170 C.3    86  ARG86       0.0307
     48  CG       -36.5870    0.5220  -63.2860 C.3    86  ARG86       0.0489
     49  CD       -36.0800    0.2000  -64.6790 C.3    86  ARG86       0.2205
     50  NE       -35.5450    1.3750  -65.3610 N.pl3  86  ARG86      -0.0865
     51  CZ       -36.0780    1.9150  -66.4510 C.cat  86  ARG86       0.5346
     52  NH1      -37.1640    1.3810  -66.9930 N.pl3  86  ARG86       0.1354
     53  NH2      -35.5190    2.9820  -67.0070 N.pl3  86  ARG86       0.1354
     54  N        -40.8230    2.0730  -58.1530 N.3    89  MET89      -0.1245
     55  CA       -40.2840    3.4200  -57.9880 C.3    89  MET89       0.1570
     56  C        -41.1550    4.4730  -58.6730 C.2    89  MET89       0.2261
     57  O        -41.3760    5.5600  -58.1240 O.2    89  MET89      -0.2867
     58  CB       -38.8580    3.4970  -58.5420 C.3    89  MET89       0.0387
     59  CG       -37.7940    2.7000  -57.8030 C.3    89  MET89       0.0595
     60  SD       -36.1600    3.1790  -58.4360 S.3    89  MET89      -0.1393
     61  CE       -36.2950    2.7020  -60.1540 C.3    89  MET89       0.0692
     62  N        -39.3590    9.1020  -63.1950 N.3    92  THR92      -0.1218
     63  CA       -38.3130    9.9270  -62.5980 C.3    92  THR92       0.1862
     64  C        -38.8880   11.2170  -62.0320 C.2    92  THR92       0.2287
     65  O        -38.4750   11.6760  -60.9600 O.2    92  THR92      -0.2866
     66  CB       -37.2340   10.2540  -63.6310 C.3    92  THR92       0.1770
     67  OG1      -37.0550    9.1500  -64.5220 O.3    92  THR92      -0.2211
     68  CG2      -35.9140   10.5580  -62.9380 C.3    92  THR92       0.0375
     69  N        -42.0080    7.2970  -55.8690 N.3   103  ARG103     -0.1245
     70  CA       -41.7300    8.6900  -56.1900 C.3   103  ARG103      0.1563
     71  C        -42.9930    9.5410  -56.1370 C.2   103  ARG103      0.2260
     72  O        -42.9210   10.7120  -55.7610 O.2   103  ARG103     -0.2867
     73  CB       -41.0340    8.7780  -57.5500 C.3   103  ARG103      0.0307
     74  CG       -39.5800    8.2530  -57.4930 C.3   103  ARG103      0.0489
     75  CD       -38.9700    7.9630  -58.8590 C.3   103  ARG103      0.2205
     76  NE       -37.5210    7.7930  -58.7620 N.pl3 103  ARG103     -0.0865
     77  CZ       -36.7550    7.2150  -59.6850 C.cat 103  ARG103      0.5346
     78  NH1      -37.2910    6.7110  -60.7890 N.pl3 103  ARG103      0.1354
     79  NH2      -35.4450    7.1350  -59.4950 N.pl3 103  ARG103      0.1354
     80  N        -36.0460   12.9780  -55.8870 N.3   113  ASN113     -0.1240
     81  CA       -37.0470   11.9750  -56.2420 C.3   113  ASN113      0.1653
     82  C        -36.9030   10.6820  -55.4340 C.2   113  ASN113      0.2266
     83  O        -37.1680    9.5890  -55.9430 O.2   113  ASN113     -0.2867
     84  CB       -37.0010   11.6940  -57.7450 C.3   113  ASN113      0.1155
     85  CG       -35.7000   11.0540  -58.1780 C.2   113  ASN113      0.2627
     86  OD1      -34.7210   11.0660  -57.4370 O.2   113  ASN113     -0.2716
     87  ND2      -35.6680   10.5340  -59.3980 N.am  113  ASN113     -0.0877
     88  N        -33.2000    5.7810  -56.1130 N.3   116  HIS116     -0.1226
     89  CA       -32.5150    5.3460  -57.3220 C.3   116  HIS116      0.1752
     90  C        -32.7550    3.8510  -57.5380 C.2   116  HIS116      0.2596
     91  O        -32.9090    3.0860  -56.5810 O.2   116  HIS116     -0.2718
     92  CB       -30.9990    5.6030  -57.2230 C.3   116  HIS116      0.0759
     93  CG       -30.1910    4.8820  -58.2650 C.ar  116  HIS116      0.0818
     94  ND1      -29.8780    5.4420  -59.4840 N.ar  116  HIS116     -0.2268
     95  CD2      -29.6670    3.6330  -58.2820 C.ar  116  HIS116      0.1154
     96  CE1      -29.1750    4.5800  -60.1980 C.ar  116  HIS116      0.1986
     97  NE2      -29.0420    3.4700  -59.4950 N.ar  116  HIS116     -0.2212
     98  N        -32.7700    3.4330  -58.8030 N.am  117  GLY117     -0.1957
     99  CA       -32.7740    2.0210  -59.1200 C.3   117  GLY117      0.1869
    100  C        -32.0280    1.7320  -60.4080 C.2   117  GLY117      0.2309
    101  O        -32.0900    2.5330  -61.3450 O.2   117  GLY117     -0.2863
    102  N        -31.2360    0.6810  -63.9870 N.3   119  ASP119     -0.1239
    103  CA       -32.1730    0.7370  -65.1070 C.3   119  ASP119      0.1674
    104  C        -32.0400   -0.4360  -66.0690 C.2   119  ASP119      0.2266
    105  O        -32.7570   -0.4770  -67.0720 O.2   119  ASP119     -0.2867
    106  CB       -32.0340    2.0660  -65.8680 C.3   119  ASP119      0.1410
    107  CG       -30.6830    2.2380  -66.5300 C.2   119  ASP119      0.3668
    108  OD1      -29.8620    1.2970  -66.4970 O.co2 119  ASP119     -0.2456
    109  OD2      -30.4420    3.3340  -67.0850 O.co2 119  ASP119     -0.2456
@<TRIPOS>BOND
     1   109   107   ar
     2   105   104    2
     3    53    51    1
     4    52    51    1
     5    41    39   ar
     6    41    42   ar
     7    29    31   ar
     8    29    27   ar
     9    23    22    1
    10    23    24    1
    11    23    26    1
    12    24    25    2
    13   107   108   ar
    14   107   106    1
    15    51    50    2
    16    31    30   ar
    17    39    37   ar
    18    42    40   ar
    19   104   103    1
    20   106   103    1
    21    27    26    1
    22    27    28   ar
    23    32    33    1
    24    50    49    1
    25    30    28   ar
    26   103   102    1
    27    37    38   ar
    28    37    36    1
    29    40    38   ar
    30    49    48    1
    31    67    66    1
    32    33    36    1
    33    33    34    1
    34    13    12    2
    35    66    68    1
    36    66    63    1
    37    34    35    2
    38    48    47    1
    39    12    11    1
    40    62    63    1
    41    47    44    1
    42    63    64    1
    43    11    14    1
    44    11    10    1
    45    64    65    2
    46    44    45    1
    47    44    43    1
    48    45    46    2
    49    14    15    1
    50   101   100    2
    51    16    15   ar
    52    16    18   ar
    53    78    77    1
    54    15    17   ar
    55   100    99    1
    56    96    97   ar
    57    96    94   ar
    58    18    20   ar
    59    61    60    1
    60    77    79    1
    61    77    76    2
    62    97    95   ar
    63    94    93   ar
    64    87    85   am
    65    99    98    1
    66    17    19   ar
    67    75    76    1
    68    75    74    1
    69    98    90   am
    70    20    19   ar
    71    20    21    1
    72    56    57    2
    73    56    55    1
    74    58    55    1
    75    58    59    1
    76    60    59    1
    77    95    93   ar
    78    93    92    1
    79    85    84    1
    80    85    86    2
    81    54    55    1
    82     9     8    1
    83    84    81    1
    84    73    74    1
    85    73    70    1
    86    90    89    1
    87    90    91    2
    88    89    92    1
    89    89    88    1
    90     8     7    1
    91    81    80    1
    92    81    82    1
    93    70    71    1
    94    70    69    1
    95    71    72    2
    96    83    82    2
    97     7     6    1
    98     6     5    1
    99     5     2    1
   100     2     1    1
   101     2     3    1
   102     3     4    2
