@<TRIPOS>MOLECULE
tmp/6ay1C00.pdb
 102 95 0 0 0
SMALL
GASTEIGER

@<TRIPOS>ATOM
      1  N        -33.7530   -9.4910  -35.7450 N.3    10  LYS10      -0.1245
      2  CA       -33.1920  -10.8270  -35.6120 C.3    10  LYS10       0.1561
      3  C        -33.4660  -11.6740  -36.8600 C.2    10  LYS10       0.2260
      4  O        -34.2630  -11.2970  -37.7200 O.2    10  LYS10      -0.2867
      5  CB       -33.7350  -11.4600  -34.3360 C.3    10  LYS10       0.0271
      6  CG       -33.2650  -10.6970  -33.0930 C.3    10  LYS10       0.0035
      7  CD       -33.5870  -11.4200  -31.7920 C.3    10  LYS10       0.0206
      8  CE       -32.9880  -10.6800  -30.6040 C.3    10  LYS10       0.1093
      9  NZ       -33.4920  -11.1580  -29.2920 N.3    10  LYS10      -0.1314
     10  N        -23.5010  -11.3910  -26.2940 N.3    50  TYR50      -0.1241
     11  CA       -24.4050  -11.9640  -25.3010 C.3    50  TYR50       0.1605
     12  C        -23.6590  -12.5830  -24.1200 C.2    50  TYR50       0.2264
     13  O        -24.1300  -13.5680  -23.5380 O.2    50  TYR50      -0.2867
     14  CB       -25.3230  -12.9970  -25.9530 C.3    50  TYR50       0.0534
     15  CG       -26.4440  -12.4080  -26.7800 C.ar   50  TYR50      -0.0201
     16  CD1      -27.3140  -11.4660  -26.2410 C.ar   50  TYR50      -0.0009
     17  CD2      -26.6290  -12.7880  -28.1050 C.ar   50  TYR50      -0.0009
     18  CE1      -28.3430  -10.9190  -26.9990 C.ar   50  TYR50       0.0417
     19  CE2      -27.6620  -12.2490  -28.8680 C.ar   50  TYR50       0.0417
     20  CZ       -28.5100  -11.3170  -28.3110 C.ar   50  TYR50       0.1957
     21  OH       -29.5320  -10.7850  -29.0720 O.3    50  TYR50      -0.2866
     22  N        -25.0480  -13.6280  -20.5700 N.3    53  HIS53      -0.1241
     23  CA       -25.8790  -14.8210  -20.4640 C.3    53  HIS53       0.1621
     24  C        -25.0720  -16.0980  -20.6540 C.2    53  HIS53       0.2264
     25  O        -25.6580  -17.1640  -20.8710 O.2    53  HIS53      -0.2867
     26  CB       -27.0120  -14.7920  -21.4910 C.3    53  HIS53       0.0745
     27  CG       -27.7830  -13.5110  -21.5210 C.ar   53  HIS53       0.0817
     28  ND1      -28.6170  -13.1190  -20.4980 N.ar   53  HIS53      -0.2268
     29  CD2      -27.8640  -12.5450  -22.4660 C.ar   53  HIS53       0.1154
     30  CE1      -29.1720  -11.9610  -20.8050 C.ar   53  HIS53       0.1986
     31  NE2      -28.7340  -11.5930  -21.9960 N.ar   53  HIS53      -0.2212
     32  N        -30.3380  -20.9280  -21.6930 N.3    58  PHE58      -0.1241
     33  CA       -30.7470  -20.6610  -23.0640 C.3    58  PHE58       0.1605
     34  C        -29.5940  -20.1760  -23.9340 C.2    58  PHE58       0.2264
     35  O        -29.8430  -19.7550  -25.0680 O.2    58  PHE58      -0.2867
     36  CB       -31.8900  -19.6420  -23.0920 C.3    58  PHE58       0.0534
     37  CG       -31.5360  -18.3140  -22.4940 C.ar   58  PHE58      -0.0203
     38  CD1      -30.9830  -17.3090  -23.2770 C.ar   58  PHE58      -0.0042
     39  CD2      -31.7680  -18.0620  -21.1510 C.ar   58  PHE58      -0.0042
     40  CE1      -30.6540  -16.0780  -22.7310 C.ar   58  PHE58      -0.0003
     41  CE2      -31.4480  -16.8330  -20.5970 C.ar   58  PHE58      -0.0003
     42  CZ       -30.8850  -15.8410  -21.3890 C.ar   58  PHE58      -0.0000
     43  N        -29.6090  -19.5960  -27.8000 N.3    62  LEU62      -0.1245
     44  CA       -29.5950  -18.1860  -28.1870 C.3    62  LEU62       0.1561
     45  C        -28.5220  -17.9280  -29.2320 C.2    62  LEU62       0.2260
     46  O        -28.7840  -17.3200  -30.2780 O.2    62  LEU62      -0.2867
     47  CB       -29.3810  -17.2890  -26.9640 C.3    62  LEU62       0.0270
     48  CG       -29.2110  -15.7930  -27.2690 C.3    62  LEU62       0.0019
     49  CD1      -30.3900  -15.2540  -28.0710 C.3    62  LEU62       0.0001
     50  CD2      -29.0180  -14.9830  -25.9970 C.3    62  LEU62       0.0001
     51  N        -40.1690   -9.5330  -23.5340 N.3    92  THR92      -0.1218
     52  CA       -39.3010  -10.4910  -24.2120 C.3    92  THR92       0.1862
     53  C        -40.0990  -11.6760  -24.7530 C.2    92  THR92       0.2287
     54  O        -39.8580  -12.1380  -25.8760 O.2    92  THR92      -0.2866
     55  CB       -38.1980  -10.9720  -23.2610 C.3    92  THR92       0.1770
     56  OG1      -37.3930   -9.8590  -22.8450 O.3    92  THR92      -0.2211
     57  CG2      -37.3060  -11.9930  -23.9500 C.3    92  THR92       0.0375
     58  N        -42.9440   -7.2530  -30.8480 N.3   103  ARG103     -0.1245
     59  CA       -42.8800   -8.6950  -30.5920 C.3   103  ARG103      0.1563
     60  C        -44.2630   -9.3350  -30.6270 C.2   103  ARG103      0.2260
     61  O        -44.3950  -10.4910  -31.0500 O.2   103  ARG103     -0.2867
     62  CB       -42.1910   -8.9660  -29.2570 C.3   103  ARG103      0.0307
     63  CG       -40.6820   -8.6540  -29.3290 C.3   103  ARG103      0.0489
     64  CD       -40.0300   -8.5540  -27.9690 C.3   103  ARG103      0.2205
     65  NE       -38.5720   -8.6070  -28.0990 N.pl3 103  ARG103     -0.0865
     66  CZ       -37.7180   -8.2170  -27.1590 C.cat 103  ARG103      0.5346
     67  NH1      -38.1680   -7.7090  -26.0170 N.pl3 103  ARG103      0.1354
     68  NH2      -36.4100   -8.3180  -27.3760 N.pl3 103  ARG103      0.1354
     69  N        -40.6240  -16.9690  -27.4270 N.3   110  ILE110     -0.1245
     70  CA       -39.4540  -16.3370  -26.8270 C.3   110  ILE110      0.1561
     71  C        -38.1790  -16.7860  -27.5270 C.2   110  ILE110      0.2260
     72  O        -37.1800  -16.0580  -27.5380 O.2   110  ILE110     -0.2867
     73  CB       -39.3950  -16.6270  -25.3140 C.3   110  ILE110      0.0252
     74  CG1      -38.2890  -15.7970  -24.6510 C.3   110  ILE110      0.0019
     75  CG2      -39.1340  -18.0940  -25.0620 C.3   110  ILE110      0.0019
     76  CD1      -38.2630  -15.8970  -23.1380 C.3   110  ILE110      0.0001
     77  N        -37.8410  -13.9870  -31.0690 N.3   113  ASN113     -0.1240
     78  CA       -38.6680  -12.8420  -30.6990 C.3   113  ASN113      0.1653
     79  C        -38.3290  -11.5740  -31.4890 C.2   113  ASN113      0.2266
     80  O        -38.3510  -10.4760  -30.9290 O.2   113  ASN113     -0.2867
     81  CB       -38.5930  -12.5710  -29.1990 C.3   113  ASN113      0.1155
     82  CG       -37.2250  -12.1230  -28.7530 C.2   113  ASN113      0.2627
     83  OD1      -36.2350  -12.3080  -29.4630 O.2   113  ASN113     -0.2716
     84  ND2      -37.1640  -11.4940  -27.5810 N.am  113  ASN113     -0.0877
     85  N        -33.9910   -7.2800  -30.8510 N.3   116  HIS116     -0.1241
     86  CA       -33.2690   -6.9620  -29.6330 C.3   116  HIS116      0.1621
     87  C        -33.2440   -5.4490  -29.4500 C.2   116  HIS116      0.2264
     88  O        -33.1850   -4.6960  -30.4280 O.2   116  HIS116     -0.2867
     89  CB       -31.8170   -7.4710  -29.6880 C.3   116  HIS116      0.0745
     90  CG       -30.9290   -6.8470  -28.6560 C.ar  116  HIS116      0.0817
     91  ND1      -30.7770   -7.3700  -27.3900 N.ar  116  HIS116     -0.2268
     92  CD2      -30.1590   -5.7330  -28.6980 C.ar  116  HIS116      0.1154
     93  CE1      -29.9590   -6.5980  -26.6940 C.ar  116  HIS116      0.1986
     94  NE2      -29.5640   -5.6020  -27.4670 N.ar  116  HIS116     -0.2212
     95  N        -31.1450   -2.6370  -23.0080 N.3   119  ASP119     -0.1239
     96  CA       -32.0080   -2.6610  -21.8330 C.3   119  ASP119      0.1674
     97  C        -31.7350   -1.5170  -20.8690 C.2   119  ASP119      0.2266
     98  O        -32.4620   -1.3660  -19.8870 O.2   119  ASP119     -0.2867
     99  CB       -31.8490   -4.0030  -21.0990 C.3   119  ASP119      0.1410
    100  CG       -32.1110   -5.2260  -21.9660 C.2   119  ASP119      0.3668
    101  OD1      -32.8040   -5.1680  -22.9620 O.co2 119  ASP119     -0.2456
    102  OD2      -31.5670   -6.3050  -21.5470 O.co2 119  ASP119     -0.2456
@<TRIPOS>BOND
     1     4     3    2
     2     3     2    1
     3     1     2    1
     4     2     5    1
     5     5     6    1
     6     6     7    1
     7     7     8    1
     8    79    80    2
     9    79    78    1
    10    77    78    1
    11    61    60    2
    12    85    86    1
    13    58    59    1
    14    78    81    1
    15    60    59    1
    16     8     9    1
    17    59    62    1
    18    88    87    2
    19    46    45    2
    20    89    86    1
    21    89    90    1
    22    86    87    1
    23    83    82    2
    24    63    62    1
    25    63    64    1
    26    45    44    1
    27    81    82    1
    28    21    20    1
    29    19    20   ar
    30    19    17   ar
    31    82    84   am
    32    92    90   ar
    33    92    94   ar
    34    90    91   ar
    35    20    18   ar
    36    44    43    1
    37    44    47    1
    38    17    15   ar
    39    65    64    1
    40    65    66    2
    41    49    48    1
    42    72    71    2
    43    71    70    1
    44    94    93   ar
    45    69    70    1
    46    91    93   ar
    47    68    66    1
    48    48    47    1
    49    48    50    1
    50    66    67    1
    51    18    16   ar
    52    70    73    1
    53    15    16   ar
    54    15    14    1
    55    10    11    1
    56    14    11    1
    57    54    53    2
    58    73    75    1
    59    73    74    1
    60    11    12    1
    61    35    34    2
    62    53    52    1
    63    74    76    1
    64    52    51    1
    65    52    55    1
    66    12    13    2
    67    57    55    1
    68    34    33    1
    69    38    40   ar
    70    38    37   ar
    71    55    56    1
    72    36    33    1
    73    36    37    1
    74    33    32    1
    75    95    96    1
    76   101   100   ar
    77    40    42   ar
    78    37    39   ar
    79    29    31   ar
    80    29    27   ar
    81    31    30   ar
    82   100   102   ar
    83   100    99    1
    84    96    99    1
    85    96    97    1
    86    27    26    1
    87    27    28   ar
    88    26    23    1
    89    42    41   ar
    90    39    41   ar
    91    25    24    2
    92    97    98    2
    93    30    28   ar
    94    24    23    1
    95    22    23    1
