@<TRIPOS>MOLECULE
tmp/6ay1B00.pdb
 113 106 0 0 0
SMALL
GASTEIGER

@<TRIPOS>ATOM
      1  N         -0.0200    8.8800  -41.3880 N.3    10  LYS10      -0.1245
      2  CA        -0.5750   10.0750  -42.0050 C.3    10  LYS10       0.1561
      3  C         -0.3380   10.0790  -43.5190 C.2    10  LYS10       0.2260
      4  O          0.4120    9.2520  -44.0440 O.2    10  LYS10      -0.2867
      5  CB         0.0050   11.3040  -41.2980 C.3    10  LYS10       0.0271
      6  CG        -0.4430   11.3940  -39.8190 C.3    10  LYS10       0.0035
      7  CD        -0.1340   12.7700  -39.2280 C.3    10  LYS10       0.0206
      8  CE        -0.7450   12.9430  -37.8490 C.3    10  LYS10       0.1093
      9  NZ        -0.2700   14.2280  -37.1860 N.3    10  LYS10      -0.1314
     10  N        -10.3510   15.6010  -34.5170 N.3    50  TYR50      -0.1241
     11  CA        -9.5290   16.6500  -33.9390 C.3    50  TYR50       0.1605
     12  C        -10.3580   17.7840  -33.3570 C.2    50  TYR50       0.2264
     13  O         -9.8560   18.9010  -33.2360 O.2    50  TYR50      -0.2867
     14  CB        -8.5790   17.1990  -34.9920 C.3    50  TYR50       0.0534
     15  CG        -7.5260   16.1890  -35.4100 C.ar   50  TYR50      -0.0201
     16  CD1       -6.5340   15.8140  -34.5320 C.ar   50  TYR50      -0.0009
     17  CD2       -7.5130   15.6540  -36.6890 C.ar   50  TYR50      -0.0009
     18  CE1       -5.5320   14.9000  -34.9150 C.ar   50  TYR50       0.0417
     19  CE2       -6.5260   14.7580  -37.0810 C.ar   50  TYR50       0.0417
     20  CZ        -5.5470   14.3790  -36.1880 C.ar   50  TYR50       0.1957
     21  OH        -4.5690   13.4760  -36.5690 O.3    50  TYR50      -0.2866
     22  N         -9.1520   20.6830  -31.0870 N.3    53  HIS53      -0.1241
     23  CA        -8.2550   21.7310  -31.5730 C.3    53  HIS53       0.1621
     24  C         -8.9520   22.7570  -32.4610 C.2    53  HIS53       0.2264
     25  O         -8.2740   23.5150  -33.1600 O.2    53  HIS53      -0.2867
     26  CB        -7.0850   21.1030  -32.3310 C.3    53  HIS53       0.0745
     27  CG        -6.3620   20.0720  -31.5410 C.ar   53  HIS53       0.0817
     28  ND1       -5.8170   20.3360  -30.3050 N.ar   53  HIS53      -0.2268
     29  CD2       -6.1280   18.7610  -31.7880 C.ar   53  HIS53       0.1154
     30  CE1       -5.2640   19.2350  -29.8300 C.ar   53  HIS53       0.1986
     31  NE2       -5.4390   18.2670  -30.7100 N.ar   53  HIS53      -0.2212
     32  N         -7.7160   26.4030  -32.2870 N.3    56  ARG56      -0.1245
     33  CA        -6.2850   26.6360  -32.4080 C.3    56  ARG56       0.1563
     34  C         -5.9430   27.1390  -33.8090 C.2    56  ARG56       0.2260
     35  O         -6.6440   26.8320  -34.7770 O.2    56  ARG56      -0.2867
     36  CB        -5.5090   25.3590  -32.1110 C.3    56  ARG56       0.0307
     37  CG        -5.7140   24.8190  -30.7060 C.3    56  ARG56       0.0489
     38  CD        -4.9830   25.6320  -29.6320 C.3    56  ARG56       0.2205
     39  NE        -3.5250   25.4690  -29.6540 N.pl3  56  ARG56      -0.0865
     40  CZ        -2.8680   24.3810  -29.2510 C.cat  56  ARG56       0.5346
     41  NH1       -3.5200   23.3160  -28.8020 N.pl3  56  ARG56       0.1354
     42  NH2       -1.5440   24.3520  -29.3070 N.pl3  56  ARG56       0.1354
     43  N         -3.7210   26.3630  -36.0190 N.3    58  PHE58      -0.1241
     44  CA        -3.3340   25.4120  -37.0400 C.3    58  PHE58       0.1605
     45  C         -4.4790   24.4930  -37.4870 C.2    58  PHE58       0.2264
     46  O         -4.2500   23.6590  -38.3590 O.2    58  PHE58      -0.2867
     47  CB        -2.1610   24.5660  -36.5370 C.3    58  PHE58       0.0534
     48  CG        -2.3740   24.0190  -35.1590 C.ar   58  PHE58      -0.0203
     49  CD1       -3.0600   22.8260  -34.9710 C.ar   58  PHE58      -0.0042
     50  CD2       -1.9270   24.7190  -34.0480 C.ar   58  PHE58      -0.0042
     51  CE1       -3.2790   22.3260  -33.6950 C.ar   58  PHE58      -0.0003
     52  CE2       -2.1360   24.2290  -32.7750 C.ar   58  PHE58      -0.0003
     53  CZ        -2.8190   23.0260  -32.5960 C.ar   58  PHE58      -0.0000
     54  N         -4.3440   21.6470  -40.3890 N.3    62  LEU62      -0.1245
     55  CA        -4.3700   20.2620  -39.9460 C.3    62  LEU62       0.1561
     56  C         -5.4480   19.4770  -40.6840 C.2    62  LEU62       0.2260
     57  O         -5.1940   18.3550  -41.1590 O.2    62  LEU62      -0.2867
     58  CB        -4.5880   20.1990  -38.4370 C.3    62  LEU62       0.0270
     59  CG        -4.9670   18.8650  -37.8250 C.3    62  LEU62       0.0019
     60  CD1       -3.8190   17.8740  -38.0110 C.3    62  LEU62       0.0001
     61  CD2       -5.2690   19.0810  -36.3600 C.3    62  LEU62       0.0001
     62  N          6.1390   15.1690  -30.8420 N.3    92  THR92      -0.1218
     63  CA         5.1960   15.5910  -31.8790 C.3    92  THR92       0.1862
     64  C          5.8940   16.3850  -32.9740 C.2    92  THR92       0.2287
     65  O          5.6120   16.2120  -34.1660 O.2    92  THR92      -0.2866
     66  CB         4.0810   16.4460  -31.2510 C.3    92  THR92       0.1770
     67  OG1        3.5330   15.7720  -30.1110 O.3    92  THR92      -0.2211
     68  CG2        2.9740   16.7240  -32.2610 C.3    92  THR92       0.0375
     69  N          9.2230    9.6980  -35.9090 N.3   103  ARG103     -0.1245
     70  CA         9.1070   11.0530  -36.4380 C.3   103  ARG103      0.1563
     71  C         10.4570   11.5980  -36.8730 C.2   103  ARG103      0.2260
     72  O         10.5410   12.2790  -37.8960 O.2   103  ARG103     -0.2867
     73  CB         8.4240   11.9670  -35.4110 C.3   103  ARG103      0.0307
     74  CG         6.9300   11.6380  -35.3570 C.3   103  ARG103      0.0489
     75  CD         6.2530   12.1360  -34.1170 C.3   103  ARG103      0.2205
     76  NE         4.7990   12.0980  -34.2880 N.pl3 103  ARG103     -0.0865
     77  CZ         3.9490   12.1210  -33.2750 C.cat 103  ARG103      0.5346
     78  NH1        4.4320   12.0900  -32.0290 N.pl3 103  ARG103      0.1354
     79  NH2        2.6300   12.1260  -33.5020 N.pl3 103  ARG103      0.1354
     80  N          6.4940   19.7850  -38.1820 N.3   110  ILE110     -0.1231
     81  CA         5.2900   19.5310  -37.4050 C.3   110  ILE110      0.1692
     82  C          4.0630   19.4500  -38.3020 C.2   110  ILE110      0.2592
     83  O          3.1120   18.7250  -37.9920 O.2   110  ILE110     -0.2718
     84  CB         5.1620   20.6080  -36.3120 C.3   110  ILE110      0.0266
     85  CG1        3.9620   20.3260  -35.4090 C.3   110  ILE110      0.0019
     86  CG2        5.0850   22.0090  -36.9210 C.3   110  ILE110      0.0020
     87  CD1        4.2690   19.4090  -34.2700 C.3   110  ILE110      0.0001
     88  N          4.0980   20.1170  -39.4570 N.am  111  ASP111     -0.1974
     89  CA         2.9590   20.1210  -40.3670 C.3   111  ASP111      0.1709
     90  C          2.6840   18.7430  -40.9690 C.2   111  ASP111      0.2293
     91  O          1.5290   18.4210  -41.2630 O.2   111  ASP111     -0.2864
     92  CB         3.2110   21.1360  -41.4830 C.3   111  ASP111      0.1436
     93  CG         3.5110   22.5270  -40.9530 C.2   111  ASP111      0.3671
     94  OD1        2.6590   23.0940  -40.2300 O.co2 111  ASP111     -0.2456
     95  OD2        4.6030   23.0550  -41.2570 O.co2 111  ASP111     -0.2456
     96  N          3.9400   15.1000  -39.8790 N.3   113  ASN113     -0.1240
     97  CA         4.8090   14.3780  -38.9550 C.3   113  ASN113      0.1653
     98  C          4.5510   12.8690  -38.9030 C.2   113  ASN113      0.2266
     99  O          4.6850   12.2640  -37.8380 O.2   113  ASN113     -0.2867
    100  CB         4.7480   14.9860  -37.5510 C.3   113  ASN113      0.1155
    101  CG         3.4060   14.8250  -36.8950 C.2   113  ASN113      0.2627
    102  OD1        2.4080   14.5570  -37.5580 O.2   113  ASN113     -0.2716
    103  ND2        3.3710   14.9760  -35.5710 N.am  113  ASN113     -0.0877
    104  N          0.1980    9.6470  -36.0320 N.3   116  HIS116     -0.1241
    105  CA        -0.5250   10.0400  -34.8340 C.3   116  HIS116      0.1621
    106  C         -0.5050    8.8710  -33.8590 C.2   116  HIS116      0.2264
    107  O         -0.4600    7.7050  -34.2660 O.2   116  HIS116     -0.2867
    108  CB        -1.9890   10.4070  -35.1530 C.3   116  HIS116      0.0745
    109  CG        -2.8790   10.5020  -33.9470 C.ar  116  HIS116      0.0817
    110  ND1       -3.0830   11.6810  -33.2560 N.ar  116  HIS116     -0.2268
    111  CD2       -3.6330    9.5670  -33.3180 C.ar  116  HIS116      0.1154
    112  CE1       -3.9170   11.4650  -32.2530 C.ar  116  HIS116      0.1986
    113  NE2       -4.2550   10.1900  -32.2630 N.ar  116  HIS116     -0.2212
@<TRIPOS>BOND
     1     4     3    2
     2     3     2    1
     3     2     1    1
     4     2     5    1
     5    92    93    1
     6    92    89    1
     7     5     6    1
     8    91    90    2
     9    95    93   ar
    10    57    56    2
    11    90    89    1
    12    93    94   ar
    13    56    55    1
    14    54    55    1
    15    89    88    1
    16    55    58    1
    17    96    97    1
    18     6     7    1
    19    88    82   am
    20     7     8    1
    21    97    98    1
    22    97   100    1
    23    98    99    2
    24    58    59    1
    25    46    45    2
    26    82    83    2
    27    82    81    1
    28    80    81    1
    29    60    59    1
    30    72    71    2
    31     8     9    1
    32    59    61    1
    33   102   101    2
    34   100   101    1
    35    45    44    1
    36    81    84    1
    37    19    17   ar
    38    19    20   ar
    39    44    47    1
    40    44    43    1
    41    86    84    1
    42   101   103   am
    43    71    70    1
    44    17    15   ar
    45    21    20    1
    46    47    48    1
    47    70    69    1
    48    70    73    1
    49    84    85    1
    50    20    18   ar
    51   104   105    1
    52    73    74    1
    53    15    14    1
    54    15    16   ar
    55    85    87    1
    56    74    75    1
    57    48    49   ar
    58    48    50   ar
    59   108   105    1
    60   108   109    1
    61    14    11    1
    62    49    51   ar
    63    18    16   ar
    64   105   106    1
    65    35    34    2
    66    10    11    1
    67    76    75    1
    68    76    77    2
    69   107   106    2
    70    65    64    2
    71    50    52   ar
    72   109   111   ar
    73   109   110   ar
    74    11    12    1
    75    34    33    1
    76    51    53   ar
    77    79    77    1
    78    12    13    2
    79   111   113   ar
    80    77    78    1
    81   110   112   ar
    82    25    24    2
    83    64    63    1
    84    52    53   ar
    85    24    23    1
    86    33    32    1
    87    33    36    1
    88    26    23    1
    89    26    27    1
    90   113   112   ar
    91    68    66    1
    92    36    37    1
    93    63    66    1
    94    63    62    1
    95    29    27   ar
    96    29    31   ar
    97    23    22    1
    98    27    28   ar
    99    66    67    1
   100    31    30   ar
   101    37    38    1
   102    28    30   ar
   103    39    38    1
   104    39    40    2
   105    42    40    1
   106    40    41    1
