@<TRIPOS>MOLECULE
tmp/6ay2A00.pdb
 144 140 0 0 0
SMALL
GASTEIGER

@<TRIPOS>ATOM
      1  N          9.3490    8.3070   36.0720 N.3    24  GLN24      -0.1245
      2  CA         8.0480    8.9740   35.9530 C.3    24  GLN24       0.1566
      3  C          8.0320   10.4120   36.5000 C.2    24  GLN24       0.2260
      4  O          7.0720   11.1590   36.2700 O.2    24  GLN24      -0.2867
      5  CB         6.9560    8.1370   36.6190 C.3    24  GLN24       0.0367
      6  CG         7.0160    8.0740   38.1420 C.3    24  GLN24       0.0905
      7  CD         5.9630    7.1440   38.7110 C.2    24  GLN24       0.2608
      8  OE1        5.9920    5.9340   38.4850 O.2    24  GLN24      -0.2717
      9  NE2        5.0210    7.7080   39.4480 N.am   24  GLN24      -0.0878
     10  N          1.9850   11.1590   39.1040 N.3    28  GLY28      -0.1225
     11  CA         1.4820    9.8220   39.4050 C.3    28  GLY28       0.1811
     12  C          1.0890    9.0520   38.1630 C.2    28  GLY28       0.2280
     13  O         -0.0370    8.5610   38.0580 O.2    28  GLY28      -0.2866
     14  N          2.5230    6.2320   36.8820 N.3    30  CYS30      -0.1221
     15  CA         2.9500    4.8330   36.8630 C.3    30  CYS30       0.1808
     16  C          2.0770    3.9650   35.9550 C.2    30  CYS30       0.2601
     17  O          2.5920    3.0690   35.2870 O.2    30  CYS30      -0.2717
     18  CB         2.9560    4.2520   38.2820 C.3    30  CYS30       0.0970
     19  SG         1.3410    4.2470   39.0980 S.3    30  CYS30      -0.0800
     20  N          0.7680    4.2220   35.9500 N.am   31  TRP31      -0.1976
     21  CA        -0.1820    3.4600   35.1300 C.3    31  TRP31       0.1640
     22  C          0.1750    3.5340   33.6540 C.2    31  TRP31       0.2290
     23  O          0.0240    2.5600   32.9210 O.2    31  TRP31      -0.2864
     24  CB        -1.6220    3.9500   35.3470 C.3    31  TRP31       0.0576
     25  CG        -1.8870    5.3940   34.9580 C.ar   31  TRP31       0.0006
     26  CD1       -1.7710    6.4960   35.7570 C.ar   31  TRP31       0.0946
     27  CD2       -2.3220    5.8760   33.6780 C.ar   31  TRP31       0.0152
     28  NE1       -2.1060    7.6300   35.0600 N.ar   31  TRP31      -0.2442
     29  CE2       -2.4460    7.2780   33.7800 C.ar   31  TRP31       0.0810
     30  CE3       -2.6190    5.2580   32.4550 C.ar   31  TRP31       0.0012
     31  CZ2       -2.8530    8.0740   32.7070 C.ar   31  TRP31       0.0191
     32  CZ3       -3.0220    6.0500   31.3900 C.ar   31  TRP31       0.0001
     33  CH2       -3.1340    7.4450   31.5250 C.ar   31  TRP31       0.0015
     34  N         -9.1340    6.6540   30.8530 N.3    68  CYS68      -0.1221
     35  CA        -7.9850    6.1000   31.5780 C.3    68  CYS68       0.1808
     36  C         -8.0060    6.4790   33.0550 C.2    68  CYS68       0.2602
     37  O         -7.6480    5.6670   33.9070 O.2    68  CYS68      -0.2717
     38  CB        -6.6620    6.5580   30.9650 C.3    68  CYS68       0.0970
     39  SG        -6.2300    5.7250   29.4240 S.3    68  CYS68      -0.0800
     40  N         -8.4090    7.7130   33.3510 N.am   69  GLY69      -0.1942
     41  CA        -8.4590    8.2010   34.7280 C.3    69  GLY69       0.2014
     42  C         -8.2310    9.6970   34.8200 C.2    69  GLY69       0.2638
     43  O         -8.9370   10.4730   34.1760 O.2    69  GLY69      -0.2714
     44  N         -7.2420   10.1010   35.6180 N.am   70  ASP70      -0.1971
     45  CA        -6.9860   11.5150   35.8880 C.3    70  ASP70       0.1709
     46  C         -5.5100   11.8950   35.7410 C.2    70  ASP70       0.2293
     47  O         -4.9730   12.6370   36.5630 O.2    70  ASP70      -0.2864
     48  CB        -7.4730   11.8710   37.2950 C.3    70  ASP70       0.1436
     49  CG        -7.8200   13.7160   36.8900 C.2    70  ASP70       0.3671
     50  OD1       -8.5560   14.2160   36.0130 O.co2  70  ASP70      -0.2456
     51  OD2       -7.2130   14.4050   37.7370 O.co2  70  ASP70      -0.2456
     52  N         -1.8360   12.6720   35.8800 N.3    72  CYS72      -0.1221
     53  CA        -0.8510   12.6170   36.9620 C.3    72  CYS72       0.1808
     54  C         -1.4680   12.3000   38.3290 C.2    72  CYS72       0.2601
     55  O         -0.7340   12.0690   39.2900 O.2    72  CYS72      -0.2717
     56  CB        -0.0640   13.9340   37.0590 C.3    72  CYS72       0.0970
     57  SG         1.1920   14.2090   35.7830 S.3    72  CYS72      -0.0800
     58  N         -2.7990   12.2960   38.4190 N.am   73  ASN73      -0.1960
     59  CA        -3.5010   11.8890   39.6420 C.3    73  ASN73       0.1819
     60  C         -4.0420   10.4510   39.5870 C.2    73  ASN73       0.2622
     61  O         -5.1040   10.1570   40.1490 O.2    73  ASN73      -0.2715
     62  CB        -4.6450   12.8680   39.9430 C.3    73  ASN73       0.1195
     63  CG        -4.1550   14.2800   40.2030 C.2    73  ASN73       0.2630
     64  OD1       -4.6440   15.2380   39.6070 O.2    73  ASN73      -0.2716
     65  ND2       -3.1860   14.4150   41.0980 N.am   73  ASN73      -0.0877
     66  N         -3.3050    9.5560   38.9290 N.am   74  GLY74      -0.1940
     67  CA        -3.6690    8.1400   38.8730 C.3    74  GLY74       0.2014
     68  C         -4.5130    7.7640   37.6690 C.2    74  GLY74       0.2639
     69  O         -5.1680    8.6180   37.0540 O.2    74  GLY74      -0.2714
     70  N         -4.5000    6.4740   37.3450 N.am   75  GLY75      -0.1939
     71  CA        -5.2250    5.9470   36.1920 C.3    75  GLY75       0.2014
     72  C         -5.5150    4.4590   36.2900 C.2    75  GLY75       0.2639
     73  O         -5.1930    3.8190   37.2930 O.2    75  GLY75      -0.2714
     74  N         -6.1290    3.9280   35.2350 N.am   76  TYR76      -0.1960
     75  CA        -6.5590    2.5320   35.1470 C.3    76  TYR76       0.1756
     76  C         -5.7540    1.8590   34.0320 C.2    76  TYR76       0.2461
     77  O         -5.9610    2.1590   32.8550 O.2    76  TYR76      -0.2730
     78  CB        -8.0690    2.4990   34.8500 C.3    76  TYR76       0.0574
     79  CG        -8.7660    1.1380   34.8160 C.ar   76  TYR76      -0.0198
     80  CD1       -8.2400    0.0130   35.4570 C.ar   76  TYR76      -0.0009
     81  CD2       -9.9980    1.0010   34.1740 C.ar   76  TYR76      -0.0009
     82  CE1       -8.9040   -1.2100   35.4220 C.ar   76  TYR76       0.0417
     83  CE2      -10.6670   -0.2140   34.1400 C.ar   76  TYR76       0.0417
     84  CZ       -10.1200   -1.3150   34.7620 C.ar   76  TYR76       0.1957
     85  OH       -10.8000   -2.5180   34.7210 O.3    76  TYR76      -0.2866
     86  N         -4.8000    0.9830   34.3970 N.am   77  PRO77      -0.2727
     87  CA        -3.9900    0.3100   33.3800 C.3    77  PRO77       0.1402
     88  C         -4.7930   -0.3900   32.2800 C.2    77  PRO77       0.2269
     89  O         -4.4120   -0.3170   31.1030 O.2    77  PRO77      -0.2865
     90  CB        -3.1790   -0.6930   34.2040 C.3    77  PRO77       0.0296
     91  CG        -2.9810    0.0110   35.5080 C.3    77  PRO77       0.0237
     92  CD        -4.2990    0.6970   35.7580 C.3    77  PRO77       0.0939
     93  N          8.5110   15.4330   44.3400 N.3   121  THR121     -0.1203
     94  CA         7.4200   16.0020   45.1260 C.3   121  THR121      0.1994
     95  C          6.1100   15.3360   44.7100 C.2   121  THR121      0.2618
     96  O          6.1150   14.4130   43.8980 O.2   121  THR121     -0.2717
     97  CB         7.3390   17.5320   44.9450 C.3   121  THR121      0.1784
     98  OG1        7.4020   17.8580   43.5520 O.3   121  THR121     -0.2211
     99  CG2        8.4860   18.2130   45.6830 C.3   121  THR121      0.0376
    100  N          4.9990   15.7930   45.2790 N.am  122  GLY122     -0.1942
    101  CA         3.6850   15.2200   45.0000 C.3   122  GLY122      0.2014
    102  C          3.1960   15.4000   43.5750 C.2   122  GLY122      0.2638
    103  O          3.9100   15.9190   42.7120 O.2   122  GLY122     -0.2714
    104  N          1.9560   14.9770   43.3450 N.am  123  GLU123     -0.1977
    105  CA         1.3930   14.8700   41.9990 C.3   123  GLU123      0.1602
    106  C          1.3000   16.2270   41.2950 C.2   123  GLU123      0.2287
    107  O          0.4160   17.0400   41.5880 O.2   123  GLU123     -0.2864
    108  CB         0.0140   14.1950   42.0560 C.3   123  GLU123      0.0415
    109  CG         0.0470   12.7510   42.5520 C.3   123  GLU123      0.1163
    110  CD        -1.1880   12.3670   43.3530 C.2   123  GLU123      0.3649
    111  OE1       -2.3170   12.5350   42.8400 O.co2 123  GLU123     -0.2457
    112  OE2       -1.0290   11.8930   44.4980 O.co2 123  GLU123     -0.2457
    113  N         -0.0170   -4.3280   38.9650 N.3   174  ALA174     -0.1245
    114  CA        -0.1380   -3.3250   40.0060 C.3   174  ALA174      0.1562
    115  C         -0.1190   -3.9930   41.3570 C.2   174  ALA174      0.2260
    116  O         -0.5830   -5.1160   41.4940 O.2   174  ALA174     -0.2867
    117  CB        -1.4180   -2.5370   39.8240 C.3   174  ALA174      0.0290
    118  N          0.6160    2.9330   51.5520 N.3   197  MET197     -0.1245
    119  CA         0.8430    4.2360   50.9060 C.3   197  MET197      0.1570
    120  C         -0.0340    4.4490   49.6640 C.2   197  MET197      0.2261
    121  O         -0.2400    5.5900   49.2470 O.2   197  MET197     -0.2867
    122  CB         2.3110    4.3910   50.4890 C.3   197  MET197      0.0387
    123  CG         3.3460    4.0940   51.5650 C.3   197  MET197      0.0595
    124  SD         3.3350    5.2390   52.9500 S.3   197  MET197     -0.1393
    125  CE         3.9700    6.7300   52.1890 C.3   197  MET197      0.0692
    126  N         -1.6700    2.3030   45.7220 N.3   199  GLY199     -0.1210
    127  CA        -1.3620    1.3860   44.6270 C.3   199  GLY199      0.1956
    128  C         -0.2800    1.9100   43.7010 C.2   199  GLY199      0.2612
    129  O         -0.0670    3.1200   43.5950 O.2   199  GLY199     -0.2717
    130  N          0.3960    0.9870   43.0190 N.am  200  HIS200     -0.1961
    131  CA         1.4930    1.3300   42.1120 C.3   200  HIS200      0.1787
    132  C          1.5800    0.3310   40.9590 C.2   200  HIS200      0.2620
    133  O          1.6540   -0.8840   41.1870 O.2   200  HIS200     -0.2715
    134  CB         2.8130    1.3570   42.8930 C.3   200  HIS200      0.0785
    135  CG         3.9740    1.8800   42.1100 C.ar  200  HIS200      0.0821
    136  ND1        3.9530    3.1010   41.4730 N.ar  200  HIS200     -0.2267
    137  CD2        5.2010    1.3560   41.8790 C.ar  200  HIS200      0.1154
    138  CE1        5.1090    3.2970   40.8620 C.ar  200  HIS200      0.1986
    139  NE2        5.8870    2.2570   41.1010 N.ar  200  HIS200     -0.2212
    140  N          1.5920    0.8570   39.7300 N.am  201  ALA201     -0.1977
    141  CA         1.6770    0.0550   38.5050 C.3   201  ALA201      0.1597
    142  C          3.1240   -0.0730   38.0340 C.2   201  ALA201      0.2287
    143  O          3.8960    0.8870   38.0830 O.2   201  ALA201     -0.2864
    144  CB         0.8150    0.6630   37.4090 C.3   201  ALA201      0.0319
@<TRIPOS>BOND
     1    39    38    1
     2    34    35    1
     3    38    35    1
     4    89    88    2
     5    32    33   ar
     6    32    30   ar
     7    33    31   ar
     8    35    36    1
     9    88    87    1
    10    30    27   ar
    11    31    29   ar
    12    77    76    2
    13    23    22    2
    14    36    40   am
    15    36    37    2
    16    40    41    1
    17    87    90    1
    18    87    86    1
    19    22    21    1
    20    27    29   ar
    21    27    25   ar
    22    29    28   ar
    23    76    86   am
    24    76    75    1
    25    83    81   ar
    26    83    84   ar
    27    81    79   ar
    28    43    42    2
    29    90    91    1
    30    86    92    1
    31    85    84    1
    32    41    42    1
    33    84    82   ar
    34    79    78    1
    35    79    80   ar
    36    42    44   am
    37    78    75    1
    38    25    24    1
    39    25    26   ar
    40    28    26   ar
    41    21    24    1
    42    21    20    1
    43    75    74    1
    44    74    72   am
    45    17    16    2
    46    82    80   ar
    47    91    92    1
    48    44    45    1
    49    46    45    1
    50    46    47    2
    51    57    56    1
    52    52    53    1
    53    45    48    1
    54    20    16   am
    55     2     1    1
    56     2     3    1
    57     2     5    1
    58    16    15    1
    59    50    49   ar
    60    71    72    1
    61    71    70    1
    62     4     3    2
    63    72    73    2
    64     5     6    1
    65    15    14    1
    66    15    18    1
    67    49    48    1
    68    49    51   ar
    69    53    56    1
    70    53    54    1
    71    69    68    2
    72    70    68   am
    73   144   141    1
    74    68    67    1
    75   142   143    2
    76   142   141    1
    77    13    12    2
    78     6     7    1
    79    12    11    1
    80    18    19    1
    81    54    58   am
    82    54    55    2
    83    58    59    1
    84     8     7    2
    85   141   140    1
    86     7     9   am
    87    67    66    1
    88    66    60   am
    89   113   114    1
    90    10    11    1
    91    60    59    1
    92    60    61    2
    93    64    63    2
    94    59    62    1
    95   140   132   am
    96   117   114    1
    97    62    63    1
    98   114   115    1
    99    63    65   am
   100   138   139   ar
   101   138   136   ar
   102   132   133    2
   103   132   131    1
   104   139   137   ar
   105   106   107    2
   106   106   105    1
   107   115   116    2
   108   136   135   ar
   109   137   135   ar
   110   105   108    1
   111   105   104    1
   112   108   109    1
   113   135   134    1
   114   131   134    1
   115   131   130    1
   116   109   110    1
   117   103   102    2
   118   111   110   ar
   119   130   128   am
   120   104   102   am
   121   110   112   ar
   122    98    97    1
   123   102   101    1
   124   129   128    2
   125   128   127    1
   126    96    95    2
   127    93    94    1
   128   127   126    1
   129    95    94    1
   130    95   100   am
   131    97    94    1
   132    97    99    1
   133   101   100    1
   134   121   120    2
   135   120   119    1
   136   122   119    1
   137   122   123    1
   138   119   118    1
   139   123   124    1
   140   125   124    1
