@<TRIPOS>MOLECULE
tmp/6ay3A00.pdb
 178 173 0 0 0
SMALL
GASTEIGER

@<TRIPOS>ATOM
      1  N         17.1760   -8.6400   12.6160 N.3    23  ASP23      -0.1225
      2  CA        18.2880   -7.7820   12.9820 C.3    23  ASP23       0.1790
      3  C         18.5570   -6.8310   11.8250 C.2    23  ASP23       0.2439
      4  O         18.6500   -7.2900   10.6830 O.2    23  ASP23      -0.2733
      5  CB        19.4960   -8.6300   13.2260 C.3    23  ASP23       0.1423
      6  CG        20.6080   -7.8340   13.9380 C.2    23  ASP23       0.3668
      7  OD1       21.2970   -7.0190   13.3010 O.co2  23  ASP23      -0.2456
      8  OD2       20.7260   -8.0080   15.1450 O.co2  23  ASP23      -0.2456
      9  N         18.7150   -5.5060   12.0630 N.am   24  PRO24      -0.2729
     10  CA        18.7290   -4.8770   13.3890 C.3    24  PRO24       0.1401
     11  C         17.3320   -4.5120   13.8850 C.2    24  PRO24       0.2269
     12  O         17.2460   -3.9090   14.9500 O.2    24  PRO24      -0.2865
     13  CB        19.4970   -3.5930   13.1070 C.3    24  PRO24       0.0296
     14  CG        19.0040   -3.2300   11.7630 C.3    24  PRO24       0.0237
     15  CD        18.9080   -4.5240   10.9870 C.3    24  PRO24       0.0939
     16  N         15.9880   -4.8140   17.5250 N.3    27  LEU27      -0.1231
     17  CA        16.8080   -4.3960   18.6540 C.3    27  LEU27       0.1678
     18  C         16.1630   -3.3050   19.5300 C.2    27  LEU27       0.2434
     19  O         16.2740   -3.4020   20.7760 O.2    27  LEU27      -0.2733
     20  CB        18.2070   -4.0130   18.1390 C.3    27  LEU27       0.0284
     21  CG        19.3900   -4.9480   18.1480 C.3    27  LEU27       0.0019
     22  CD1       19.1620   -6.3790   18.3440 C.3    27  LEU27       0.0001
     23  CD2       20.2500   -4.6040   16.9650 C.3    27  LEU27       0.0001
     24  N         15.4470   -2.3100   18.9980 N.am   28  PRO28      -0.2718
     25  CA        14.8350   -1.3230   19.8970 C.3    28  PRO28       0.1535
     26  C         13.6430   -1.8550   20.6580 C.2    28  PRO28       0.2598
     27  O         13.0780   -1.0950   21.4600 O.2    28  PRO28      -0.2715
     28  CB        14.3830   -0.1920   18.9480 C.3    28  PRO28       0.0310
     29  CG        15.1470   -0.4460   17.6310 C.3    28  PRO28       0.0237
     30  CD        15.2890   -1.9330   17.5680 C.3    28  PRO28       0.0939
     31  N         13.2490   -3.1280   20.4400 N.am   29  PHE29      -0.1974
     32  CA        11.9940   -3.6590   20.9170 C.3    29  PHE29       0.1639
     33  C         12.1750   -4.7990   21.8920 C.2    29  PHE29       0.2290
     34  O         11.1640   -5.2820   22.4050 O.2    29  PHE29      -0.2864
     35  CB        11.1160   -4.1640   19.7610 C.3    29  PHE29       0.0560
     36  CG        10.7120   -3.0840   18.8070 C.ar   29  PHE29      -0.0200
     37  CD1       11.4950   -2.7650   17.6880 C.ar   29  PHE29      -0.0042
     38  CD2        9.5170   -2.4260   18.9950 C.ar   29  PHE29      -0.0042
     39  CE1       11.1020   -1.7370   16.8200 C.ar   29  PHE29      -0.0003
     40  CE2        9.1360   -1.4060   18.1450 C.ar   29  PHE29      -0.0003
     41  CZ         9.9120   -1.0800   17.0370 C.ar   29  PHE29      -0.0000
     42  N         13.4910   -4.9730   24.9570 N.3    31  GLN31      -0.1231
     43  CA        13.3160   -4.7340   26.3830 C.3    31  GLN31       0.1683
     44  C         12.4310   -3.5120   26.4850 C.2    31  GLN31       0.2434
     45  O         12.3170   -2.7680   25.5190 O.2    31  GLN31      -0.2733
     46  CB        14.6840   -4.4160   26.9960 C.3    31  GLN31       0.0380
     47  CG        15.5450   -5.6270   27.1150 C.3    31  GLN31       0.0905
     48  CD        15.0240   -6.6250   28.1490 C.2    31  GLN31       0.2608
     49  OE1       14.5380   -6.2230   29.1880 O.2    31  GLN31      -0.2717
     50  NE2       15.1760   -7.9150   27.8790 N.am   31  GLN31      -0.0878
     51  N         11.7680   -3.2940   27.6140 N.am   32  PRO32      -0.2718
     52  CA        10.9450   -2.0870   27.7500 C.3    32  PRO32       0.1535
     53  C         11.7770   -0.8450   27.4710 C.2    32  PRO32       0.2598
     54  O         12.9590   -0.7500   27.8430 O.2    32  PRO32      -0.2715
     55  CB        10.4940   -2.1250   29.2140 C.3    32  PRO32       0.0310
     56  CG        10.6050   -3.5630   29.6250 C.3    32  PRO32       0.0237
     57  CD        11.7570   -4.1330   28.8300 C.3    32  PRO32       0.0939
     58  N         11.1620    0.1370   26.8090 N.am   33  VAL33      -0.1978
     59  CA        11.8340    1.4320   26.6380 C.3    33  VAL33       0.1596
     60  C         12.1430    2.0200   28.0130 C.2    33  VAL33       0.2287
     61  O         11.2700    2.1040   28.8760 O.2    33  VAL33      -0.2864
     62  CB        11.0010    2.4000   25.7710 C.3    33  VAL33       0.0276
     63  CG1       11.5220    3.8760   25.7430 C.3    33  VAL33       0.0022
     64  CG2       10.8530    1.8710   24.3230 C.3    33  VAL33       0.0022
     65  N         17.3740    6.1730   30.6910 N.3    37  LEU37      -0.1231
     66  CA        18.6280    5.6480   30.1660 C.3    37  LEU37       0.1693
     67  C         18.8460    6.1050   28.7250 C.2    37  LEU37       0.2591
     68  O         19.9790    6.3640   28.3080 O.2    37  LEU37      -0.2718
     69  CB        18.6260    4.1240   30.2560 C.3    37  LEU37       0.0284
     70  CG        19.7410    3.3350   29.5560 C.3    37  LEU37       0.0019
     71  CD1       21.0390    3.5040   30.3000 C.3    37  LEU37       0.0001
     72  CD2       19.4070    1.8160   29.3630 C.3    37  LEU37       0.0001
     73  N         17.7690    6.2060   27.9560 N.am   38  LEU38      -0.1980
     74  CA        17.8460    6.5170   26.5310 C.3    38  LEU38       0.1596
     75  C         17.8570    8.0040   26.2510 C.2    38  LEU38       0.2287
     76  O         18.0010    8.3870   25.0920 O.2    38  LEU38      -0.2864
     77  CB        16.6650    5.8800   25.8010 C.3    38  LEU38       0.0297
     78  CG        16.6050    4.3640   25.9110 C.3    38  LEU38       0.0022
     79  CD1       15.3400    3.8650   25.2600 C.3    38  LEU38       0.0001
     80  CD2       17.8290    3.7060   25.2960 C.3    38  LEU38       0.0001
     81  N         15.3170   10.1650   26.5700 N.3    40  ILE40      -0.1245
     82  CA        14.0500   10.5600   25.9480 C.3    40  ILE40       0.1561
     83  C         12.9510   10.7240   26.9960 C.2    40  ILE40       0.2260
     84  O         11.9320   10.0170   26.9340 O.2    40  ILE40      -0.2867
     85  CB        13.6610    9.5800   24.8260 C.3    40  ILE40       0.0252
     86  CG1       13.6640    8.1190   25.3330 C.3    40  ILE40       0.0019
     87  CG2       14.5760    9.7950   23.5960 C.3    40  ILE40       0.0019
     88  CD1       13.0760    7.0820   24.3270 C.3    40  ILE40       0.0001
     89  N          9.0360   10.3570   26.5960 N.3    43  TYR43      -0.1241
     90  CA         8.3970    9.1100   26.2050 C.3    43  TYR43       0.1605
     91  C          7.2380    8.7760   27.1260 C.2    43  TYR43       0.2264
     92  O          6.1530    8.4050   26.6530 O.2    43  TYR43      -0.2867
     93  CB         9.4390    7.9800   26.1990 C.3    43  TYR43       0.0534
     94  CG         8.9050    6.7240   25.5800 C.ar   43  TYR43      -0.0201
     95  CD1        8.9260    6.5200   24.1900 C.ar   43  TYR43      -0.0009
     96  CD2        8.3600    5.7190   26.3860 C.ar   43  TYR43      -0.0009
     97  CE1        8.4350    5.3710   23.6510 C.ar   43  TYR43       0.0417
     98  CE2        7.8330    4.5410   25.8230 C.ar   43  TYR43       0.0417
     99  CZ         7.8760    4.4010   24.4710 C.ar   43  TYR43       0.1957
    100  OH         7.3850    3.2420   23.8690 O.3    43  TYR43      -0.2866
    101  N          4.6580   -1.3610   25.7080 N.3    51  MET51      -0.1230
    102  CA         4.7070   -2.7960   25.4900 C.3    51  MET51       0.1702
    103  C          5.9790   -3.0860   24.7090 C.2    51  MET51       0.2592
    104  O          6.4270   -2.2380   23.9290 O.2    51  MET51      -0.2718
    105  CB         3.4610   -3.1980   24.7180 C.3    51  MET51       0.0401
    106  CG         3.2880   -4.7230   24.5050 C.3    51  MET51       0.0596
    107  SD         3.3480   -5.7070   26.0150 S.3    51  MET51      -0.1393
    108  CE         2.0730   -4.9960   27.1160 C.3    51  MET51       0.0692
    109  N          6.5710   -4.2820   24.8930 N.am   52  ASP52      -0.1974
    110  CA         7.7760   -4.6780   24.1730 C.3    52  ASP52       0.1709
    111  C          7.7940   -6.1940   24.0950 C.2    52  ASP52       0.2293
    112  O          6.9720   -6.8600   24.7370 O.2    52  ASP52      -0.2864
    113  CB         9.0310   -4.2150   24.8980 C.3    52  ASP52       0.1436
    114  CG         9.2570   -4.9280   26.1710 C.2    52  ASP52       0.3671
    115  OD1        8.4000   -4.8290   27.0860 O.co2  52  ASP52      -0.2456
    116  OD2       10.2870   -5.6300   26.2270 O.co2  52  ASP52      -0.2456
    117  N          2.6140   -2.5980   20.7930 N.3    78  MET78      -0.1245
    118  CA         4.0430   -2.2840   20.6810 C.3    78  MET78       0.1570
    119  C          4.2950   -1.5200   19.3880 C.2    78  MET78       0.2261
    120  O          5.0450   -0.5510   19.3760 O.2    78  MET78      -0.2867
    121  CB         4.7830   -3.6100   20.6820 C.3    78  MET78       0.0387
    122  CG         6.3250   -3.4750   20.5120 C.3    78  MET78       0.0595
    123  SD         7.0780   -5.1120   20.4750 S.3    78  MET78      -0.1393
    124  CE         6.5840   -5.7030   18.8250 C.3    78  MET78       0.0692
    125  N          5.3320    2.6390   18.8380 N.3    82  ALA82      -0.1245
    126  CA         6.5570    3.0650   18.1480 C.3    82  ALA82       0.1562
    127  C          6.2430    4.0030   16.9830 C.2    82  ALA82       0.2260
    128  O          6.9980    4.9480   16.7350 O.2    82  ALA82      -0.2867
    129  CB         7.3390    1.8440   17.6580 C.3    82  ALA82       0.0290
    130  N          5.3130    7.4650   18.6500 N.3    85  TYR85      -0.1227
    131  CA         6.3290    8.2360   19.3500 C.3    85  TYR85       0.1736
    132  C          7.4070    8.7080   18.3870 C.2    85  TYR85       0.2595
    133  O          7.8550    9.8640   18.4600 O.2    85  TYR85      -0.2718
    134  CB         6.9490    7.4430   20.5200 C.3    85  TYR85       0.0548
    135  CG         8.0690    8.2680   21.1740 C.ar   85  TYR85      -0.0200
    136  CD1        7.7870    9.3480   22.0370 C.ar   85  TYR85      -0.0009
    137  CD2        9.3730    8.0190   20.8180 C.ar   85  TYR85      -0.0009
    138  CE1        8.7780   10.1380   22.5480 C.ar   85  TYR85       0.0417
    139  CE2       10.3990    8.7800   21.3300 C.ar   85  TYR85       0.0417
    140  CZ        10.0810    9.8310   22.1990 C.ar   85  TYR85       0.1957
    141  OH        11.1120   10.5770   22.6720 O.3    85  TYR85      -0.2866
    142  N          7.8240    7.8350   17.4850 N.am   86  ASN86      -0.1974
    143  CA         9.0420    8.0740   16.7240 C.3    86  ASN86       0.1688
    144  C          8.7290    8.7760   15.4050 C.2    86  ASN86       0.2292
    145  O          7.6430    8.6320   14.8370 O.2    86  ASN86      -0.2864
    146  CB         9.7540    6.7430   16.4680 C.3    86  ASN86       0.1181
    147  CG        10.2210    6.1230   17.7520 C.2    86  ASN86       0.2629
    148  OD1       11.3050    6.4590   18.2560 O.2    86  ASN86      -0.2716
    149  ND2        9.4690    5.1580   18.2480 N.am   86  ASN86      -0.0877
    150  N         15.1360    5.3760   12.6670 N.3    91  ARG91      -0.1231
    151  CA        15.3550    3.9400   12.7280 C.3    91  ARG91       0.1694
    152  C         14.2170    3.2140   13.3870 C.2    91  ARG91       0.2591
    153  O         13.7900    2.1770   12.8810 O.2    91  ARG91      -0.2718
    154  CB        16.6230    3.6040   13.4790 C.3    91  ARG91       0.0321
    155  CG        17.9110    3.9570   12.7350 C.3    91  ARG91       0.0489
    156  CD        19.1290    3.8420   13.5800 C.3    91  ARG91       0.2205
    157  NE        19.1160    4.8130   14.6640 N.pl3  91  ARG91      -0.0865
    158  CZ        19.9430    4.8360   15.6820 C.cat  91  ARG91       0.5346
    159  NH1       20.9930    3.9820   15.7710 N.pl3  91  ARG91       0.1354
    160  NH2       19.7650    5.7950   16.5890 N.pl3  91  ARG91       0.1354
    161  N         13.7760    3.6430   14.5730 N.am   92  VAL92      -0.1980
    162  CA        12.8110    2.8050   15.3140 C.3    92  VAL92       0.1595
    163  C         11.5110    2.7540   14.5380 C.2    92  VAL92       0.2287
    164  O         10.8310    1.7160   14.4770 O.2    92  VAL92      -0.2864
    165  CB        12.5810    3.2920   16.7560 C.3    92  VAL92       0.0276
    166  CG1       11.4490    2.4920   17.4390 C.3    92  VAL92       0.0022
    167  CG2       13.8190    3.1390   17.5780 C.3    92  VAL92       0.0022
    168  N         12.0540    0.4800   11.5260 N.3    95  PHE95      -0.1241
    169  CA        12.2290   -0.8870   12.0250 C.3    95  PHE95       0.1605
    170  C         10.8870   -1.4750   12.4670 C.2    95  PHE95       0.2264
    171  O         10.5960   -2.6550   12.2360 O.2    95  PHE95      -0.2867
    172  CB        13.2120   -0.9010   13.1890 C.3    95  PHE95       0.0534
    173  CG        14.6600   -0.6730   12.7800 C.ar   95  PHE95      -0.0203
    174  CD1       14.9960   -0.5450   11.4550 C.ar   95  PHE95      -0.0042
    175  CD2       15.6520   -0.5830   13.6950 C.ar   95  PHE95      -0.0042
    176  CE1       16.3750   -0.2950   11.0850 C.ar   95  PHE95      -0.0003
    177  CE2       17.0180   -0.4050   13.3140 C.ar   95  PHE95      -0.0003
    178  CZ        17.3380   -0.2420   12.0310 C.ar   95  PHE95      -0.0000
@<TRIPOS>BOND
     1     4     3    2
     2    15    14    1
     3    15     9    1
     4   176   174   ar
     5   176   178   ar
     6   174   173   ar
     7   168   169    1
     8    14    13    1
     9     3     9   am
    10     3     2    1
    11   169   170    1
    12   169   172    1
    13   178   177   ar
    14     9    10    1
    15   171   170    2
    16     1     2    1
    17   150   151    1
    18   151   152    1
    19   151   154    1
    20   155   154    1
    21   155   156    1
    22   173   172    1
    23   173   175   ar
    24   153   152    2
    25     2     5    1
    26    13    10    1
    27     5     6    1
    28     7     6   ar
    29   177   175   ar
    30   152   161   am
    31    10    11    1
    32   156   157    1
    33    11    12    2
    34     6     8   ar
    35   164   163    2
    36   163   162    1
    37   161   162    1
    38   157   158    2
    39   145   144    2
    40   162   165    1
    41   144   143    1
    42   158   159    1
    43   158   160    1
    44   146   143    1
    45   146   147    1
    46   143   142    1
    47   128   127    2
    48   165   166    1
    49   165   167    1
    50    39    41   ar
    51    39    37   ar
    52    23    21    1
    53   127   126    1
    54    41    40   ar
    55   142   132   am
    56    16    17    1
    57    30    29    1
    58    30    24    1
    59    29    28    1
    60   129   126    1
    61    37    36   ar
    62   147   149   am
    63   147   148    2
    64    20    21    1
    65    20    17    1
    66    40    38   ar
    67    21    22    1
    68   126   125    1
    69   132   133    2
    70   132   131    1
    71   130   131    1
    72    17    18    1
    73    36    38   ar
    74    36    35    1
    75   124   123    1
    76    28    25    1
    77    24    18   am
    78    24    25    1
    79   131   134    1
    80   120   119    2
    81   119   118    1
    82    18    19    2
    83    35    32    1
    84    25    26    1
    85    31    26   am
    86    31    32    1
    87   123   122    1
    88   122   121    1
    89   134   135    1
    90    26    27    2
    91   118   121    1
    92   118   117    1
    93   137   135   ar
    94   137   139   ar
    95    32    33    1
    96   135   136   ar
    97   139   140   ar
    98    33    34    2
    99   136   138   ar
   100   140   138   ar
   101   140   141    1
   102    87    85    1
   103    97    95   ar
   104    97    99   ar
   105   100    99    1
   106   104   103    2
   107   111   110    1
   108   111   112    2
   109   110   109    1
   110   110   113    1
   111    95    94   ar
   112    64    62    1
   113    88    86    1
   114    99    98   ar
   115   106   105    1
   116   106   107    1
   117   103   109   am
   118   103   102    1
   119   105   102    1
   120    85    86    1
   121    85    82    1
   122   113   114    1
   123    42    43    1
   124    76    75    2
   125    79    78    1
   126    80    78    1
   127   102   101    1
   128    45    44    2
   129    94    93    1
   130    94    96   ar
   131    63    62    1
   132    62    59    1
   133    77    78    1
   134    77    74    1
   135    98    96   ar
   136    82    81    1
   137    82    83    1
   138   107   108    1
   139   114   116   ar
   140   114   115   ar
   141    93    90    1
   142    90    89    1
   143    90    91    1
   144    75    74    1
   145    43    44    1
   146    43    46    1
   147    44    51   am
   148    74    73    1
   149    59    58    1
   150    59    60    1
   151    92    91    2
   152    58    53   am
   153    84    83    2
   154    46    47    1
   155    47    48    1
   156    53    52    1
   157    53    54    2
   158    51    52    1
   159    51    57    1
   160    52    55    1
   161    50    48   am
   162    73    67   am
   163    60    61    2
   164    48    49    2
   165    68    67    2
   166    67    66    1
   167    57    56    1
   168    55    56    1
   169    72    70    1
   170    70    69    1
   171    70    71    1
   172    66    69    1
   173    66    65    1
