@<TRIPOS>MOLECULE
tmp/6ay4A01.pdb
 142 134 0 0 0
SMALL
GASTEIGER

@<TRIPOS>ATOM
      1  N         12.9690  -14.4310   16.7010 N.3    73  TYR73      -0.1241
      2  CA        14.0290  -13.6790   16.0460 C.3    73  TYR73       0.1605
      3  C         15.1450  -14.6100   15.6110 C.2    73  TYR73       0.2264
      4  O         16.2890  -14.2030   15.4800 O.2    73  TYR73      -0.2867
      5  CB        14.5590  -12.5790   16.9660 C.3    73  TYR73       0.0534
      6  CG        13.4850  -11.5960   17.3380 C.ar   73  TYR73      -0.0201
      7  CD1       13.1510  -10.5620   16.4750 C.ar   73  TYR73      -0.0009
      8  CD2       12.6990  -11.7860   18.4880 C.ar   73  TYR73      -0.0009
      9  CE1       12.1090   -9.7000   16.7670 C.ar   73  TYR73       0.0417
     10  CE2       11.6550  -10.9290   18.7890 C.ar   73  TYR73       0.0417
     11  CZ        11.3530   -9.8970   17.9220 C.ar   73  TYR73       0.1957
     12  OH        10.3270   -9.0210   18.2070 O.3    73  TYR73      -0.2866
     13  N         17.3800  -14.2460   12.5130 N.3    76  MET76      -0.1245
     14  CA        18.5230  -13.3440   12.4470 C.3    76  MET76       0.1570
     15  C         19.7980  -14.1140   12.2040 C.2    76  MET76       0.2261
     16  O         20.8300  -13.5300   11.9080 O.2    76  MET76      -0.2867
     17  CB        18.6550  -12.5940   13.7440 C.3    76  MET76       0.0387
     18  CG        17.3840  -11.8850   14.0980 C.3    76  MET76       0.0595
     19  SD        17.5910  -10.0990   14.0310 S.3    76  MET76      -0.1393
     20  CE        16.3350   -9.7040   15.2740 C.3    76  MET76       0.0692
     21  N         23.9170  -12.7300   12.6500 N.3    80  PHE80      -0.1241
     22  CA        24.6890  -12.8710   13.8750 C.3    80  PHE80       0.1605
     23  C         25.6360  -14.0480   13.7310 C.2    80  PHE80       0.2264
     24  O         26.8490  -13.8930   13.8360 O.2    80  PHE80      -0.2867
     25  CB        23.7510  -13.1210   15.0680 C.3    80  PHE80       0.0534
     26  CG        22.8040  -12.0020   15.3470 C.ar   80  PHE80      -0.0203
     27  CD1       22.9280  -10.7740   14.7120 C.ar   80  PHE80      -0.0042
     28  CD2       21.8520  -12.1300   16.3920 C.ar   80  PHE80      -0.0042
     29  CE1       22.0500   -9.7350   15.0130 C.ar   80  PHE80      -0.0003
     30  CE2       20.9990  -11.0890   16.7130 C.ar   80  PHE80      -0.0003
     31  CZ        21.1050   -9.8850   16.0380 C.ar   80  PHE80      -0.0000
     32  N         23.0250  -16.0270   20.3630 N.3    85  VAL85      -0.1231
     33  CA        21.9110  -15.2260   20.8790 C.3    85  VAL85       0.1692
     34  C         20.5750  -15.9520   20.7380 C.2    85  VAL85       0.2592
     35  O         20.2370  -16.7560   21.5860 O.2    85  VAL85      -0.2718
     36  CB        21.8530  -13.8010   20.2560 C.3    85  VAL85       0.0266
     37  CG1       20.6950  -13.0070   20.8410 C.3    85  VAL85       0.0020
     38  CG2       23.1490  -13.0460   20.5100 C.3    85  VAL85       0.0020
     39  N         19.8270  -15.6580   19.6780 N.am   86  TYR86      -0.1976
     40  CA        18.4850  -16.2090   19.4830 C.3    86  TYR86       0.1639
     41  C         18.6110  -17.5790   18.8340 C.2    86  TYR86       0.2290
     42  O         17.6730  -18.3900   18.8730 O.2    86  TYR86      -0.2864
     43  CB        17.6500  -15.3030   18.5610 C.3    86  TYR86       0.0560
     44  CG        17.3880  -13.8990   19.0650 C.ar   86  TYR86      -0.0198
     45  CD1       16.5380  -13.6700   20.1540 C.ar   86  TYR86      -0.0009
     46  CD2       17.9070  -12.7890   18.3960 C.ar   86  TYR86      -0.0009
     47  CE1       16.2730  -12.3780   20.5970 C.ar   86  TYR86       0.0417
     48  CE2       17.6390  -11.4960   18.8220 C.ar   86  TYR86       0.0417
     49  CZ        16.8000  -11.2940   19.9130 C.ar   86  TYR86       0.1957
     50  OH        16.5010  -10.0140   20.3320 O.3    86  TYR86      -0.2866
     51  N         24.7110  -12.4050   26.0030 N.3    98  VAL98      -0.1245
     52  CA        24.2700  -11.0490   26.3340 C.3    98  VAL98       0.1561
     53  C         25.2120  -10.3890   27.3390 C.2    98  VAL98       0.2260
     54  O         25.8300   -9.3590   27.0440 O.2    98  VAL98      -0.2867
     55  CB        22.8380  -11.0490   26.9080 C.3    98  VAL98       0.0252
     56  CG1       22.5670   -9.7700   27.6750 C.3    98  VAL98       0.0019
     57  CG2       21.8210  -11.2180   25.7930 C.3    98  VAL98       0.0019
     58  N         26.5150   -9.4570   16.9320 N.3   255  ALA255     -0.1231
     59  CA        25.2750   -9.3500   17.6530 C.3   255  ALA255      0.1694
     60  C         25.1960   -7.9820   18.3200 C.2   255  ALA255      0.2592
     61  O         24.1590   -7.3300   18.2740 O.2   255  ALA255     -0.2718
     62  CB        25.1880  -10.4460   18.6890 C.3   255  ALA255      0.0304
     63  N         26.2930   -7.5760   18.9640 N.am  256  GLY256     -0.1957
     64  CA        26.3820   -6.2830   19.6420 C.3   256  GLY256      0.1869
     65  C         26.3920   -5.1150   18.6790 C.2   256  GLY256      0.2309
     66  O         25.3950   -4.4270   18.5110 O.2   256  GLY256     -0.2863
     67  N         25.4690   -4.7670   15.9310 N.3   258  PHE258     -0.1227
     68  CA        24.1300   -4.5660   15.3820 C.3   258  PHE258      0.1736
     69  C         23.3120   -3.7400   16.3750 C.2   258  PHE258      0.2595
     70  O         22.7900   -2.6810   16.0450 O.2   258  PHE258     -0.2718
     71  CB        23.4430   -5.9130   15.1060 C.3   258  PHE258      0.0547
     72  CG        22.2280   -5.8090   14.2270 C.ar  258  PHE258     -0.0202
     73  CD1       20.9820   -5.5790   14.7750 C.ar  258  PHE258     -0.0042
     74  CD2       22.3420   -5.9040   12.8450 C.ar  258  PHE258     -0.0042
     75  CE1       19.8680   -5.4440   13.9710 C.ar  258  PHE258     -0.0003
     76  CE2       21.2350   -5.7670   12.0390 C.ar  258  PHE258     -0.0003
     77  CZ        19.9860   -5.5730   12.6050 C.ar  258  PHE258     -0.0000
     78  N         23.2570   -4.2210   17.6070 N.am  259  ALA259     -0.1980
     79  CA        22.4630   -3.6100   18.6620 C.3   259  ALA259      0.1597
     80  C         22.9050   -2.1700   18.8200 C.2   259  ALA259      0.2287
     81  O         22.0970   -1.2550   19.0110 O.2   259  ALA259     -0.2864
     82  CB        22.6890   -4.3700   19.9580 C.3   259  ALA259      0.0319
     83  N         19.6500    1.3930   16.1860 N.3   263  THR263     -0.1218
     84  CA        18.6870    1.9990   17.0970 C.3   263  THR263      0.1862
     85  C         19.1710    3.3710   17.5580 C.2   263  THR263      0.2287
     86  O         18.4070    4.3400   17.5760 O.2   263  THR263     -0.2866
     87  CB        18.3990    1.1410   18.3760 C.3   263  THR263      0.1770
     88  OG1       19.6080    0.5720   18.8970 O.3   263  THR263     -0.2211
     89  CG2       17.3860    0.0470   18.1070 C.3   263  THR263      0.0375
     90  N         12.3790    0.1510   17.4190 N.3   324  LEU324     -0.1245
     91  CA        11.8250   -1.1720   17.4640 C.3   324  LEU324      0.1561
     92  C         10.3710   -0.9860   17.7830 C.2   324  LEU324      0.2260
     93  O          9.9870   -0.8630   18.9270 O.2   324  LEU324     -0.2867
     94  CB        12.5120   -1.9890   18.5420 C.3   324  LEU324      0.0270
     95  CG        14.0160   -2.0940   18.2640 C.3   324  LEU324      0.0019
     96  CD1       14.7200   -2.7430   19.4460 C.3   324  LEU324      0.0001
     97  CD2       14.2850   -2.8480   16.9700 C.3   324  LEU324      0.0001
     98  N          7.9350   -2.9900   17.2950 N.3   326  MET326     -0.1230
     99  CA         7.2580   -4.2420   17.6320 C.3   326  MET326      0.1702
    100  C          8.1520   -5.2240   18.3950 C.2   326  MET326      0.2592
    101  O          9.1280   -5.7350   17.8460 O.2   326  MET326     -0.2718
    102  CB         6.7850   -4.9210   16.3510 C.3   326  MET326      0.0401
    103  CG         5.3310   -4.6480   16.0080 C.3   326  MET326      0.0596
    104  SD         4.9710   -5.1920   14.3290 S.3   326  MET326     -0.1393
    105  CE         5.3430   -6.9370   14.4650 C.3   326  MET326      0.0692
    106  N          7.7210   -5.5750   19.6060 N.am  327  ILE327     -0.1966
    107  CA         8.3430   -6.6310   20.4030 C.3   327  ILE327      0.1727
    108  C          7.5620   -7.9150   20.2330 C.2   327  ILE327      0.2616
    109  O          6.3550   -7.9070   20.4640 O.2   327  ILE327     -0.2715
    110  CB         8.2970   -6.2650   21.9070 C.3   327  ILE327      0.0290
    111  CG1        9.0670   -4.9790   22.1490 C.3   327  ILE327      0.0022
    112  CG2        8.8590   -7.3820   22.7660 C.3   327  ILE327      0.0023
    113  CD1        9.0960   -4.5300   23.5780 C.3   327  ILE327      0.0001
    114  N          8.2350   -9.0220   19.9010 N.am  328  MET328     -0.1977
    115  CA         7.5310  -10.2850   19.6110 C.3   328  MET328      0.1605
    116  C          8.0320  -11.5110   20.3890 C.2   328  MET328      0.2287
    117  O          9.2200  -11.6620   20.6790 O.2   328  MET328     -0.2864
    118  CB         7.5390  -10.5920   18.1080 C.3   328  MET328      0.0413
    119  CG         6.9400   -9.5030   17.2340 C.3   328  MET328      0.0598
    120  SD         7.0550   -9.8890   15.4740 S.3   328  MET328     -0.1393
    121  CE         8.7170   -9.3710   15.0540 C.3   328  MET328      0.0692
    122  N         16.3150   -3.7400   27.4820 N.3   396  CYS396     -0.1235
    123  CA        17.5910   -3.4790   26.8350 C.3   396  CYS396      0.1677
    124  C         18.6620   -3.2900   27.8820 C.2   396  CYS396      0.2270
    125  O         18.4290   -2.7060   28.9300 O.2   396  CYS396     -0.2867
    126  CB        17.5840   -2.2780   25.8830 C.3   396  CYS396      0.0956
    127  SG        19.1090   -2.2510   24.8280 S.3   396  CYS396     -0.0801
    128  N         13.9450   -3.2640    9.4410 N.3   433  LEU433     -0.1231
    129  CA        13.7010   -3.9780   10.6830 C.3   433  LEU433      0.1693
    130  C         13.9760   -3.0900   11.8950 C.2   433  LEU433      0.2591
    131  O         13.4750   -3.3600   12.9840 O.2   433  LEU433     -0.2718
    132  CB        14.5950   -5.2140   10.7040 C.3   433  LEU433      0.0284
    133  CG        14.3680   -6.2580   11.7750 C.3   433  LEU433      0.0019
    134  CD1       12.9510   -6.8130   11.7050 C.3   433  LEU433      0.0001
    135  CD2       15.4050   -7.3530   11.5780 C.3   433  LEU433      0.0001
    136  N         14.8100   -2.0660   11.7010 N.am  434  VAL434     -0.1980
    137  CA        14.9140   -0.9170   12.6120 C.3   434  VAL434      0.1595
    138  C         14.3510    0.3460   11.9350 C.2   434  VAL434      0.2287
    139  O         14.8530    0.7690   10.8870 O.2   434  VAL434     -0.2864
    140  CB        16.3850   -0.6510   13.0330 C.3   434  VAL434      0.0276
    141  CG1       16.4370    0.3610   14.1670 C.3   434  VAL434      0.0022
    142  CG2       17.0770   -1.9350   13.4660 C.3   434  VAL434      0.0022
@<TRIPOS>BOND
     1   128   129    1
     2   129   132    1
     3   129   130    1
     4   132   133    1
     5   139   138    2
     6   135   133    1
     7   136   130   am
     8   136   137    1
     9   134   133    1
    10   130   131    2
    11    16    15    2
    12   138   137    1
    13    76    77   ar
    14    76    74   ar
    15    15    14    1
    16    14    13    1
    17    14    17    1
    18    77    75   ar
    19   137   140    1
    20    21    22    1
    21    74    72   ar
    22   140   142    1
    23   140   141    1
    24    23    24    2
    25    23    22    1
    26    17    18    1
    27    22    25    1
    28    75    73   ar
    29    19    18    1
    30    19    20    1
    31    72    73   ar
    32    72    71    1
    33   104   105    1
    34   104   103    1
    35    27    29   ar
    36    27    26   ar
    37    29    31   ar
    38   121   120    1
    39    25    26    1
    40    71    68    1
    41    26    28   ar
    42    68    67    1
    43    68    69    1
    44   120   119    1
    45     4     3    2
    46     3     2    1
    47   103   102    1
    48    31    30   ar
    49    70    69    2
    50     2     1    1
    51     2     5    1
    52    83    84    1
    53   102    99    1
    54    69    78   am
    55    28    30   ar
    56     7     9   ar
    57     7     6   ar
    58     9    11   ar
    59    58    59    1
    60     5     6    1
    61    97    95    1
    62    84    85    1
    63    84    87    1
    64   119   118    1
    65    98    99    1
    66     6     8   ar
    67    90    91    1
    68    91    92    1
    69    91    94    1
    70    85    86    2
    71    78    79    1
    72    99   100    1
    73    59    60    1
    74    59    62    1
    75    92    93    2
    76   101   100    2
    77    11    12    1
    78    11    10   ar
    79    89    87    1
    80   118   115    1
    81    95    94    1
    82    95    96    1
    83    61    60    2
    84    60    63   am
    85    87    88    1
    86   100   106   am
    87    46    48   ar
    88    46    44   ar
    89     8    10   ar
    90    66    65    2
    91    43    44    1
    92    43    40    1
    93    79    80    1
    94    79    82    1
    95    65    64    1
    96    80    81    2
    97    48    49   ar
    98    41    42    2
    99    41    40    1
   100    63    64    1
   101    44    45   ar
   102    40    39    1
   103   106   107    1
   104   115   114    1
   105   115   116    1
   106    39    34   am
   107   114   108   am
   108    49    50    1
   109    49    47   ar
   110    45    47   ar
   111   108   107    1
   112   108   109    2
   113    36    38    1
   114    36    37    1
   115    36    33    1
   116    32    33    1
   117   116   117    2
   118   107   110    1
   119    34    33    1
   120    34    35    2
   121   110   111    1
   122   110   112    1
   123   111   113    1
   124   127   126    1
   125    57    55    1
   126   126   123    1
   127    51    52    1
   128    52    55    1
   129    52    53    1
   130   123   122    1
   131   123   124    1
   132    55    56    1
   133    54    53    2
   134   124   125    2
