@<TRIPOS>MOLECULE
tmp/6ay5A00.pdb
 138 135 0 0 0
SMALL
GASTEIGER

@<TRIPOS>ATOM
      1  N         -1.0260   11.1290    5.4710 N.3    24  PRO24      -0.2116
      2  CA        -1.0400    9.8240    4.8150 C.3    24  PRO24       0.1372
      3  C          0.3210    9.2820    4.5250 C.2    24  PRO24       0.2244
      4  O          0.4290    8.2160    3.9470 O.2    24  PRO24      -0.2868
      5  CB        -1.7910   10.1030    3.4980 C.3    24  PRO24       0.0268
      6  CG        -1.3910   11.5160    3.1610 C.3    24  PRO24       0.0207
      7  CD        -1.3640   12.2290    4.5390 C.3    24  PRO24       0.0892
      8  N          1.6060    5.5820    4.8840 N.3    27  LEU27      -0.1231
      9  CA         0.7710    4.4830    4.4100 C.3    27  LEU27       0.1678
     10  C          1.4480    3.6080    3.3670 C.2    27  LEU27       0.2434
     11  O          1.3160    2.3730    3.4640 O.2    27  LEU27      -0.2733
     12  CB        -0.5630    5.0350    3.8940 C.3    27  LEU27       0.0284
     13  CG        -1.4060    5.6390    5.0240 C.3    27  LEU27       0.0019
     14  CD1       -2.7110    6.2610    4.4680 C.3    27  LEU27       0.0001
     15  CD2       -1.7710    4.6260    6.0940 C.3    27  LEU27       0.0001
     16  N          2.1970    4.1250    2.4010 N.am   28  PRO28      -0.2718
     17  CA         2.8260    3.2210    1.4250 C.3    28  PRO28       0.1535
     18  C          3.9060    2.3470    2.0110 C.2    28  PRO28       0.2598
     19  O          4.3650    1.4360    1.2990 O.2    28  PRO28      -0.2715
     20  CB         3.4310    4.1830    0.3820 C.3    28  PRO28       0.0310
     21  CG         2.6250    5.4550    0.5310 C.3    28  PRO28       0.0237
     22  CD         2.4000    5.5570    2.0360 C.3    28  PRO28       0.0939
     23  N          4.3870    2.6530    3.2270 N.am   29  PHE29      -0.1974
     24  CA         5.6150    2.0970    3.7640 C.3    29  PHE29       0.1639
     25  C          5.3780    1.1540    4.9130 C.2    29  PHE29       0.2290
     26  O          6.3560    0.6150    5.4530 O.2    29  PHE29      -0.2864
     27  CB         6.5460    3.2320    4.1860 C.3    29  PHE29       0.0560
     28  CG         6.8380    4.1600    3.0510 C.ar   29  PHE29      -0.0200
     29  CD1        7.7240    3.7800    2.0490 C.ar   29  PHE29      -0.0042
     30  CD2        6.1870    5.3740    2.9800 C.ar   29  PHE29      -0.0042
     31  CE1        7.9240    4.6670    0.9540 C.ar   29  PHE29      -0.0003
     32  CE2        6.3650    6.2380    1.9190 C.ar   29  PHE29      -0.0003
     33  CZ         7.2370    5.9000    0.9080 C.ar   29  PHE29      -0.0000
     34  N          3.9480   -1.9290    5.0910 N.3    31  GLN31      -0.1231
     35  CA         4.1250   -3.3490    4.8320 C.3    31  GLN31       0.1683
     36  C          5.0310   -3.5550    3.6330 C.2    31  GLN31       0.2434
     37  O          5.1950   -2.6410    2.8200 O.2    31  GLN31      -0.2733
     38  CB         2.7510   -3.9930    4.5650 C.3    31  GLN31       0.0380
     39  CG         1.8610   -4.0240    5.8090 C.3    31  GLN31       0.0905
     40  CD         2.3930   -4.9520    6.8780 C.2    31  GLN31       0.2608
     41  OE1        2.9420   -6.0150    6.5750 O.2    31  GLN31      -0.2717
     42  NE2        2.2900   -4.5290    8.1320 N.am   31  GLN31      -0.0878
     43  N          5.5820   -4.7510    3.4450 N.am   32  PRO32      -0.2718
     44  CA         6.4430   -4.9600    2.2660 C.3    32  PRO32       0.1535
     45  C          5.6450   -4.7570    0.9960 C.2    32  PRO32       0.2598
     46  O          4.4670   -5.1070    0.9100 O.2    32  PRO32      -0.2715
     47  CB         6.8870   -6.4230    2.3930 C.3    32  PRO32       0.0310
     48  CG         6.7820   -6.6740    3.9150 C.3    32  PRO32       0.0237
     49  CD         5.5420   -5.9370    4.3320 C.3    32  PRO32       0.0939
     50  N          6.2930   -4.1360    0.0110 N.am   33  VAL33      -0.1978
     51  CA         5.6390   -3.9840   -1.2840 C.3    33  VAL33       0.1596
     52  C          5.3240   -5.3700   -1.8350 C.2    33  VAL33       0.2287
     53  O          6.1850   -6.2520   -1.8890 O.2    33  VAL33      -0.2864
     54  CB         6.5490   -3.2190   -2.2470 C.3    33  VAL33       0.0276
     55  CG1        5.9480   -3.2400   -3.6760 C.3    33  VAL33       0.0022
     56  CG2        6.8120   -1.7660   -1.7680 C.3    33  VAL33       0.0022
     57  N         -0.2870   -5.0920   -5.9740 N.3    38  LEU38      -0.1245
     58  CA        -0.3260   -3.6570   -6.2130 C.3    38  LEU38       0.1561
     59  C         -0.3450   -3.2980   -7.6990 C.2    38  LEU38       0.2260
     60  O         -0.4310   -2.1060   -8.0270 O.2    38  LEU38      -0.2867
     61  CB         0.8610   -2.9740   -5.5200 C.3    38  LEU38       0.0270
     62  CG         0.9050   -3.0850   -3.9950 C.3    38  LEU38       0.0019
     63  CD1        2.2210   -2.4940   -3.5450 C.3    38  LEU38       0.0001
     64  CD2       -0.2360   -2.3150   -3.3800 C.3    38  LEU38       0.0001
     65  N          2.1270   -3.5970   -9.8930 N.3    40  ILE40      -0.1245
     66  CA         3.4250   -3.0890  -10.3490 C.3    40  ILE40       0.1561
     67  C          4.4110   -4.2520  -10.4510 C.2    40  ILE40       0.2260
     68  O          5.4180   -4.2870   -9.7240 O.2    40  ILE40      -0.2867
     69  CB         3.9320   -1.9470   -9.4660 C.3    40  ILE40       0.0252
     70  CG1        3.8060   -2.3170   -7.9950 C.3    40  ILE40       0.0019
     71  CG2        3.1200   -0.6950   -9.7700 C.3    40  ILE40       0.0019
     72  CD1        4.5750   -1.3380   -7.0680 C.3    40  ILE40       0.0001
     73  N          8.4190   -4.2930  -10.1290 N.3    43  TYR43      -0.1241
     74  CA         9.0520   -3.6530   -8.9750 C.3    43  TYR43       0.1605
     75  C         10.3880   -4.3030   -8.6170 C.2    43  TYR43       0.2264
     76  O         11.3960   -3.6060   -8.4480 O.2    43  TYR43      -0.2867
     77  CB         8.0790   -3.6600   -7.8000 C.3    43  TYR43       0.0534
     78  CG         8.6440   -3.0080   -6.5470 C.ar   43  TYR43      -0.0201
     79  CD1        8.6270   -1.6330   -6.3980 C.ar   43  TYR43      -0.0009
     80  CD2        9.1640   -3.7740   -5.5260 C.ar   43  TYR43      -0.0009
     81  CE1        9.1570   -1.0100   -5.2370 C.ar   43  TYR43       0.0417
     82  CE2        9.7170   -3.1670   -4.3820 C.ar   43  TYR43       0.0417
     83  CZ         9.6840   -1.8030   -4.2490 C.ar   43  TYR43       0.1957
     84  OH        10.2040   -1.1910   -3.1200 O.3    43  TYR43      -0.2866
     85  N         12.2910    4.0000   -2.6730 N.3    82  ALA82      -0.1245
     86  CA        11.1120    4.7500   -3.1240 C.3    82  ALA82       0.1562
     87  C         11.5100    5.8470   -4.1070 C.2    82  ALA82       0.2260
     88  O         10.8390    6.0510   -5.1250 O.2    82  ALA82      -0.2867
     89  CB        10.3930    5.3620   -1.9080 C.3    82  ALA82       0.0290
     90  N         12.3620    3.9300   -7.4760 N.3    85  TYR85      -0.1227
     91  CA        11.3170    3.2730   -8.2460 C.3    85  TYR85       0.1736
     92  C         10.2770    4.2550   -8.7800 C.2    85  TYR85       0.2595
     93  O          9.7240    4.0350   -9.8650 O.2    85  TYR85      -0.2718
     94  CB        10.6130    2.2310   -7.3770 C.3    85  TYR85       0.0548
     95  CG         9.5310    1.5200   -8.1980 C.ar   85  TYR85      -0.0200
     96  CD1        9.8910    0.5820   -9.1840 C.ar   85  TYR85      -0.0009
     97  CD2        8.1900    1.8570   -8.0350 C.ar   85  TYR85      -0.0009
     98  CE1        8.9050   -0.0110  -10.0070 C.ar   85  TYR85       0.0417
     99  CE2        7.1940    1.2640   -8.8120 C.ar   85  TYR85       0.0417
    100  CZ         7.5860    0.3490   -9.7900 C.ar   85  TYR85       0.1957
    101  OH         6.6030   -0.1770  -10.5880 O.3    85  TYR85      -0.2866
    102  N          9.9180    5.2670   -8.0040 N.am   86  ASN86      -0.1974
    103  CA         8.7210    6.0670   -8.2760 C.3    86  ASN86       0.1688
    104  C          9.0580    7.3590   -9.0020 C.2    86  ASN86       0.2292
    105  O         10.1670    7.8970   -8.8820 O.2    86  ASN86      -0.2864
    106  CB         8.0270    6.3880   -6.9480 C.3    86  ASN86       0.1181
    107  CG         7.5470    5.1200   -6.2320 C.2    86  ASN86       0.2629
    108  OD1        6.5110    4.5540   -6.5780 O.2    86  ASN86      -0.2716
    109  ND2        8.3570    4.6120   -5.2940 N.am   86  ASN86      -0.0877
    110  N          2.5770   10.0600   -5.4530 N.3    91  ARG91      -0.1231
    111  CA         2.3820   10.1070   -3.9980 C.3    91  ARG91       0.1694
    112  C          3.5270    9.4180   -3.2640 C.2    91  ARG91       0.2591
    113  O          4.0000    9.9170   -2.2320 O.2    91  ARG91      -0.2718
    114  CB         1.0470    9.4580   -3.5790 C.3    91  ARG91       0.0321
    115  CG        -0.2190   10.2700   -3.9950 C.3    91  ARG91       0.0489
    116  CD        -1.4960    9.4280   -3.9130 C.3    91  ARG91       0.2205
    117  NE        -1.4040    8.3060   -4.8580 N.pl3  91  ARG91      -0.0865
    118  CZ        -2.2410    7.2790   -4.8710 C.cat  91  ARG91       0.5346
    119  NH1       -3.2400    7.2190   -3.9980 N.pl3  91  ARG91       0.1354
    120  NH2       -2.0780    6.2920   -5.7780 N.pl3  91  ARG91       0.1354
    121  N          3.9180    8.2260   -3.6930 N.am   92  VAL92      -0.1980
    122  CA         4.8960    7.4920   -2.9070 C.3    92  VAL92       0.1595
    123  C          6.1880    8.2920   -2.8230 C.2    92  VAL92       0.2287
    124  O          6.8560    8.3110   -1.7730 O.2    92  VAL92      -0.2864
    125  CB         5.0980    6.0660   -3.4730 C.3    92  VAL92       0.0276
    126  CG1        6.2390    5.4000   -2.7690 C.3    92  VAL92       0.0022
    127  CG2        3.8300    5.2290   -3.2640 C.3    92  VAL92       0.0022
    128  N          5.6410   11.3330   -0.5110 N.3    95  PHE95      -0.1241
    129  CA         5.4590   10.8780    0.8670 C.3    95  PHE95       0.1605
    130  C          6.7830   10.3840    1.4410 C.2    95  PHE95       0.2264
    131  O          7.0940   10.6470    2.6230 O.2    95  PHE95      -0.2867
    132  CB         4.4170    9.7480    0.8760 C.3    95  PHE95       0.0534
    133  CG         2.9840   10.2000    0.6010 C.ar   95  PHE95      -0.0203
    134  CD1        2.6590   11.5450    0.4530 C.ar   95  PHE95      -0.0042
    135  CD2        1.9570    9.2630    0.5880 C.ar   95  PHE95      -0.0042
    136  CE1        1.3090   12.0030    0.2230 C.ar   95  PHE95      -0.0003
    137  CE2        0.6250    9.6790    0.3730 C.ar   95  PHE95      -0.0003
    138  CZ         0.2930   11.0450    0.1770 C.ar   95  PHE95      -0.0000
@<TRIPOS>BOND
     1   101   100    1
     2    67    66    1
     3    67    68    2
     4    66    65    1
     5    66    69    1
     6    73    74    1
     7    98   100   ar
     8    98    96   ar
     9    93    92    2
    10   100    99   ar
    11    71    69    1
    12    69    70    1
    13    96    95   ar
    14   104   105    2
    15   104   103    1
    16    74    75    1
    17    74    77    1
    18    99    97   ar
    19    92    91    1
    20    92   102   am
    21    75    76    2
    22   103   102    1
    23   103   106    1
    24    91    90    1
    25    91    94    1
    26    95    97   ar
    27    95    94    1
    28    60    59    2
    29    70    72    1
    30    77    78    1
    31    59    58    1
    32   106   107    1
    33   108   107    2
    34    78    79   ar
    35    78    80   ar
    36    79    81   ar
    37   107   109   am
    38    58    57    1
    39    58    61    1
    40   120   118    1
    41    80    82   ar
    42    61    62    1
    43   110   111    1
    44    81    83   ar
    45    88    87    2
    46   118   117    2
    47   118   119    1
    48   117   116    1
    49    82    83   ar
    50    83    84    1
    51    87    86    1
    52   111   114    1
    53   111   112    1
    54    62    63    1
    55    62    64    1
    56   115   116    1
    57   115   114    1
    58   121   112   am
    59   121   122    1
    60    55    54    1
    61   125   127    1
    62   125   122    1
    63   125   126    1
    64   112   113    2
    65    86    85    1
    66    86    89    1
    67   122   123    1
    68   123   124    2
    69    54    56    1
    70    54    51    1
    71    53    52    2
    72    52    51    1
    73    51    50    1
    74   128   129    1
    75    50    45   am
    76   138   136   ar
    77   138   137   ar
    78   136   134   ar
    79   137   135   ar
    80    20    21    1
    81    20    17    1
    82   134   133   ar
    83    21    22    1
    84   135   133   ar
    85   133   132    1
    86   129   132    1
    87   129   130    1
    88    33    31   ar
    89    33    32   ar
    90    46    45    2
    91    31    29   ar
    92    45    44    1
    93    19    18    2
    94    17    18    1
    95    17    16    1
    96   130   131    2
    97    32    30   ar
    98    18    23   am
    99    22    16    1
   100    29    28   ar
   101    44    47    1
   102    44    43    1
   103    47    48    1
   104    16    10   am
   105    37    36    2
   106    30    28   ar
   107    28    27    1
   108     6     5    1
   109     6     7    1
   110    23    24    1
   111    10    11    2
   112    10     9    1
   113    43    36   am
   114    43    49    1
   115     5     2    1
   116    36    35    1
   117    24    27    1
   118    24    25    1
   119    12     9    1
   120    12    13    1
   121    48    49    1
   122     4     3    2
   123     9     8    1
   124    14    13    1
   125     3     2    1
   126     7     1    1
   127    38    35    1
   128    38    39    1
   129     2     1    1
   130    35    34    1
   131    25    26    2
   132    13    15    1
   133    39    40    1
   134    41    40    2
   135    40    42   am
