@<TRIPOS>MOLECULE
tmp/6ay6A00.pdb
 153 146 0 0 0
SMALL
GASTEIGER

@<TRIPOS>ATOM
      1  N         12.9780  -14.8150   16.7750 N.3    73  TYR73      -0.1241
      2  CA        14.1380  -14.0620   16.2360 C.3    73  TYR73       0.1605
      3  C         15.2580  -14.9830   15.7830 C.2    73  TYR73       0.2264
      4  O         16.4200  -14.5870   15.7440 O.2    73  TYR73      -0.2867
      5  CB        14.7110  -13.1140   17.2880 C.3    73  TYR73       0.0534
      6  CG        13.7100  -12.1830   17.9230 C.ar   73  TYR73      -0.0201
      7  CD1       12.9310  -11.3400   17.1480 C.ar   73  TYR73      -0.0009
      8  CD2       13.6430  -12.0530   19.3100 C.ar   73  TYR73      -0.0009
      9  CE1       12.0660  -10.4320   17.7310 C.ar   73  TYR73       0.0417
     10  CE2       12.7740  -11.1640   19.9040 C.ar   73  TYR73       0.0417
     11  CZ        11.9940  -10.3460   19.1130 C.ar   73  TYR73       0.1957
     12  OH        11.1540   -9.4330   19.7030 O.3    73  TYR73      -0.2866
     13  N         15.4920  -16.3470   12.9210 N.3    75  PHE75      -0.1227
     14  CA        15.8170  -15.9260   11.5520 C.3    75  PHE75       0.1736
     15  C         16.9890  -14.9370   11.4640 C.2    75  PHE75       0.2595
     16  O         17.4990  -14.6880   10.3740 O.2    75  PHE75      -0.2718
     17  CB        14.5830  -15.3110   10.8760 C.3    75  PHE75       0.0547
     18  CG        14.2370  -13.9410   11.3780 C.ar   75  PHE75      -0.0202
     19  CD1       13.4000  -13.7820   12.4680 C.ar   75  PHE75      -0.0042
     20  CD2       14.7560  -12.8110   10.7680 C.ar   75  PHE75      -0.0042
     21  CE1       13.0820  -12.5240   12.9380 C.ar   75  PHE75      -0.0003
     22  CE2       14.4490  -11.5510   11.2390 C.ar   75  PHE75      -0.0003
     23  CZ        13.6070  -11.4080   12.3230 C.ar   75  PHE75      -0.0000
     24  N         17.4080  -14.3670   12.5980 N.am   76  MET76      -0.1979
     25  CA        18.5700  -13.4540   12.6200 C.3    76  MET76       0.1605
     26  C         19.8830  -14.2080   12.4810 C.2    76  MET76       0.2287
     27  O         20.9600  -13.6370   12.6420 O.2    76  MET76      -0.2864
     28  CB        18.5850  -12.6670   13.9080 C.3    76  MET76       0.0413
     29  CG        17.4290  -11.7100   14.0290 C.3    76  MET76       0.0598
     30  SD        17.5480  -10.4260   12.7830 S.3    76  MET76      -0.1393
     31  CE        18.8710   -9.4300   13.4680 C.3    76  MET76       0.0692
     32  N         23.8190  -13.2500   12.5990 N.3    80  PHE80      -0.1241
     33  CA        24.5580  -13.3510   13.8500 C.3    80  PHE80       0.1605
     34  C         25.4980  -14.5370   13.8230 C.2    80  PHE80       0.2264
     35  O         26.5860  -14.4670   14.3660 O.2    80  PHE80      -0.2867
     36  CB        23.6220  -13.4540   15.0580 C.3    80  PHE80       0.0534
     37  CG        22.7890  -12.2140   15.3020 C.ar   80  PHE80      -0.0203
     38  CD1       23.1660  -10.9730   14.7820 C.ar   80  PHE80      -0.0042
     39  CD2       21.6430  -12.2850   16.0800 C.ar   80  PHE80      -0.0042
     40  CE1       22.3850   -9.8460   15.0020 C.ar   80  PHE80      -0.0003
     41  CE2       20.8710  -11.1580   16.3150 C.ar   80  PHE80      -0.0003
     42  CZ        21.2400   -9.9400   15.7690 C.ar   80  PHE80      -0.0000
     43  N         23.1320  -16.4690   20.6810 N.3    85  VAL85      -0.1231
     44  CA        22.0890  -15.6030   21.1940 C.3    85  VAL85       0.1692
     45  C         20.7170  -16.2940   21.0080 C.2    85  VAL85       0.2592
     46  O         20.3670  -17.1580   21.8070 O.2    85  VAL85      -0.2718
     47  CB        22.1690  -14.1620   20.5810 C.3    85  VAL85       0.0266
     48  CG1       21.1170  -13.2450   21.1910 C.3    85  VAL85       0.0020
     49  CG2       23.5490  -13.5620   20.8180 C.3    85  VAL85       0.0020
     50  N         19.9840  -15.9750   19.9370 N.am   86  TYR86      -0.1976
     51  CA        18.5850  -16.4340   19.8040 C.3    86  TYR86       0.1639
     52  C         18.5100  -17.7460   19.0440 C.2    86  TYR86       0.2290
     53  O         17.4740  -18.4360   19.0580 O.2    86  TYR86      -0.2864
     54  CB        17.7360  -15.3800   19.0990 C.3    86  TYR86       0.0560
     55  CG        17.5360  -14.1380   19.9140 C.ar   86  TYR86      -0.0198
     56  CD1       16.9530  -14.1980   21.1780 C.ar   86  TYR86      -0.0009
     57  CD2       17.9910  -12.9100   19.4610 C.ar   86  TYR86      -0.0009
     58  CE1       16.8010  -13.0560   21.9510 C.ar   86  TYR86       0.0417
     59  CE2       17.8410  -11.7650   20.2200 C.ar   86  TYR86       0.0417
     60  CZ        17.2530  -11.8410   21.4680 C.ar   86  TYR86       0.1957
     61  OH        17.1110  -10.6920   22.2260 O.3    86  TYR86      -0.2866
     62  N         24.7210  -12.7420   25.9580 N.3    98  VAL98      -0.1245
     63  CA        24.2900  -11.3940   26.2570 C.3    98  VAL98       0.1561
     64  C         25.1600  -10.7090   27.3240 C.2    98  VAL98       0.2260
     65  O         25.6100   -9.5740   27.1280 O.2    98  VAL98      -0.2867
     66  CB        22.8220  -11.3980   26.7200 C.3    98  VAL98       0.0252
     67  CG1       22.4090  -10.0170   27.2100 C.3    98  VAL98       0.0019
     68  CG2       21.9210  -11.8700   25.5860 C.3    98  VAL98       0.0019
     69  N         26.5180   -9.6460   16.8860 N.3   255  ALA255     -0.1231
     70  CA        25.1480   -9.4470   17.4160 C.3   255  ALA255      0.1694
     71  C         25.0710   -8.1530   18.1960 C.2   255  ALA255      0.2592
     72  O         24.0940   -7.4230   18.0970 O.2   255  ALA255     -0.2718
     73  CB        24.7250  -10.6080   18.2880 C.3   255  ALA255      0.0304
     74  N         26.1400   -7.8520   18.9360 N.am  256  GLY256     -0.1957
     75  CA        26.2300   -6.6260   19.7390 C.3   256  GLY256      0.1869
     76  C         26.3490   -5.3370   18.9290 C.2   256  GLY256      0.2309
     77  O         25.7670   -4.3140   19.2980 O.2   256  GLY256     -0.2863
     78  N         25.2110   -4.8380   15.9330 N.3   258  PHE258     -0.1227
     79  CA        23.9340   -4.6360   15.2840 C.3   258  PHE258      0.1736
     80  C         22.9510   -3.9020   16.2360 C.2   258  PHE258      0.2595
     81  O         22.5320   -2.7600   15.9780 O.2   258  PHE258     -0.2718
     82  CB        23.3780   -6.0110   14.8580 C.3   258  PHE258      0.0547
     83  CG        22.1310   -5.9360   14.0210 C.ar  258  PHE258     -0.0202
     84  CD1       20.8820   -5.8310   14.6240 C.ar  258  PHE258     -0.0042
     85  CD2       22.2000   -6.0170   12.6370 C.ar  258  PHE258     -0.0042
     86  CE1       19.7310   -5.7800   13.8620 C.ar  258  PHE258     -0.0003
     87  CE2       21.0520   -5.9380   11.8660 C.ar  258  PHE258     -0.0003
     88  CZ        19.8160   -5.8160   12.4780 C.ar  258  PHE258     -0.0000
     89  N         22.6290   -4.5520   17.3450 N.am  259  ALA259     -0.1980
     90  CA        22.1030   -3.8790   18.5360 C.3   259  ALA259      0.1597
     91  C         22.7230   -2.5090   18.7250 C.2   259  ALA259      0.2287
     92  O         22.0310   -1.5240   18.9300 O.2   259  ALA259     -0.2864
     93  CB        22.3670   -4.7340   19.7630 C.3   259  ALA259      0.0319
     94  N         19.5500    1.0980   16.2900 N.3   263  THR263     -0.1218
     95  CA        18.5700    1.7520   17.1560 C.3   263  THR263      0.1862
     96  C         19.0980    3.0870   17.6470 C.2   263  THR263      0.2287
     97  O         18.3450    4.0430   17.8030 O.2   263  THR263     -0.2866
     98  CB        18.2520    0.9060   18.3720 C.3   263  THR263      0.1770
     99  OG1       19.4690    0.6170   19.0690 O.3   263  THR263     -0.2211
    100  CG2       17.5710   -0.3810   17.9640 C.3   263  THR263      0.0375
    101  N         12.3110   -0.1440   17.2960 N.3   324  LEU324     -0.1245
    102  CA        11.7060   -1.4430   17.3510 C.3   324  LEU324      0.1561
    103  C         10.2250   -1.2730   17.6640 C.2   324  LEU324      0.2260
    104  O          9.8370   -0.9700   18.8050 O.2   324  LEU324     -0.2867
    105  CB        12.4100   -2.3030   18.4020 C.3   324  LEU324      0.0270
    106  CG        13.9420   -2.3150   18.2110 C.3   324  LEU324      0.0019
    107  CD1       14.6590   -2.9640   19.3830 C.3   324  LEU324      0.0001
    108  CD2       14.3110   -3.0110   16.9090 C.3   324  LEU324      0.0001
    109  N          7.7910   -3.3530   17.1450 N.3   326  MET326     -0.1230
    110  CA         7.1260   -4.6070   17.5580 C.3   326  MET326      0.1702
    111  C          8.0580   -5.5060   18.3790 C.2   326  MET326      0.2592
    112  O          9.1720   -5.8420   17.9400 O.2   326  MET326     -0.2718
    113  CB         6.6440   -5.3740   16.3390 C.3   326  MET326      0.0401
    114  CG         5.2360   -5.0090   15.9060 C.3   326  MET326      0.0596
    115  SD         4.8330   -5.6680   14.2810 S.3   326  MET326     -0.1393
    116  CE         5.0040   -7.4240   14.5830 C.3   326  MET326      0.0692
    117  N          7.5920   -5.8780   19.5760 N.am  327  ILE327     -0.1966
    118  CA         8.2410   -6.8970   20.4070 C.3   327  ILE327      0.1727
    119  C          7.4380   -8.1690   20.3120 C.2   327  ILE327      0.2616
    120  O          6.2200   -8.1310   20.4550 O.2   327  ILE327     -0.2715
    121  CB         8.2500   -6.4870   21.8920 C.3   327  ILE327      0.0290
    122  CG1        9.0490   -5.2130   22.1020 C.3   327  ILE327      0.0022
    123  CG2        8.8240   -7.6030   22.7480 C.3   327  ILE327      0.0023
    124  CD1        8.8190   -4.5920   23.4580 C.3   327  ILE327      0.0001
    125  N          8.1120   -9.3070   20.1570 N.am  328  MET328     -0.1977
    126  CA         7.4060  -10.5590   19.8480 C.3   328  MET328      0.1605
    127  C          7.9170  -11.7710   20.6430 C.2   328  MET328      0.2287
    128  O          9.1160  -11.9160   20.9040 O.2   328  MET328     -0.2864
    129  CB         7.4730  -10.8490   18.3450 C.3   328  MET328      0.0413
    130  CG         6.7850   -9.8000   17.4890 C.3   328  MET328      0.0598
    131  SD         7.0620  -10.0390   15.7260 S.3   328  MET328     -0.1393
    132  CE         8.7780   -9.5400   15.5970 C.3   328  MET328      0.0692
    133  N         16.2980   -4.0100   27.5950 N.3   395  CYS395     -0.1235
    134  CA        17.5560   -3.7980   26.8470 C.3   395  CYS395      0.1677
    135  C         18.7330   -3.6650   27.7930 C.2   395  CYS395      0.2270
    136  O         18.7480   -2.8070   28.6610 O.2   395  CYS395     -0.2867
    137  CB        17.4900   -2.5650   25.9390 C.3   395  CYS395      0.0956
    138  SG        18.9800   -2.3980   24.8820 S.3   395  CYS395     -0.0801
    139  N         14.0670   -3.4410    9.3820 N.3   432  LEU432     -0.1231
    140  CA        13.8700   -4.1750   10.6230 C.3   432  LEU432      0.1693
    141  C         13.9260   -3.2050   11.8030 C.2   432  LEU432      0.2591
    142  O         13.0550   -3.2110   12.6860 O.2   432  LEU432     -0.2718
    143  CB        14.9670   -5.2310   10.7630 C.3   432  LEU432      0.0284
    144  CG        14.5800   -6.5990   11.3100 C.3   432  LEU432      0.0019
    145  CD1       13.2520   -7.0850   10.7460 C.3   432  LEU432      0.0001
    146  CD2       15.6880   -7.5870   10.9920 C.3   432  LEU432      0.0001
    147  N         14.9640   -2.3820   11.8090 N.am  433  VAL433     -0.1980
    148  CA        14.9920   -1.1720   12.5990 C.3   433  VAL433      0.1595
    149  C         14.3920   -0.0130   11.7820 C.2   433  VAL433      0.2287
    150  O         14.9810    0.4470   10.8010 O.2   433  VAL433     -0.2864
    151  CB        16.4450   -0.8480   13.0420 C.3   433  VAL433      0.0276
    152  CG1       16.4600    0.2060   14.1360 C.3   433  VAL433      0.0022
    153  CG2       17.1370   -2.1160   13.5250 C.3   433  VAL433      0.0022
@<TRIPOS>BOND
     1   139   140    1
     2    16    15    2
     3   140   143    1
     4   140   141    1
     5   145   144    1
     6   143   144    1
     7    20    22   ar
     8    20    18   ar
     9   150   149    2
    10    17    18    1
    11    17    14    1
    12   146   144    1
    13    22    23   ar
    14    18    19   ar
    15    15    14    1
    16    15    24   am
    17    14    13    1
    18   149   148    1
    19   141   147   am
    20   141   142    2
    21   147   148    1
    22    87    88   ar
    23    87    85   ar
    24    23    21   ar
    25    19    21   ar
    26    88    86   ar
    27    26    25    1
    28    26    27    2
    29    24    25    1
    30   148   151    1
    31    32    33    1
    32    25    28    1
    33    85    83   ar
    34    30    31    1
    35    30    29    1
    36   151   153    1
    37   151   152    1
    38    34    33    1
    39    34    35    2
    40    33    36    1
    41    86    84   ar
    42    28    29    1
    43    83    84   ar
    44    83    82    1
    45   115   116    1
    46   115   114    1
    47    38    40   ar
    48    38    37   ar
    49    82    79    1
    50    40    42   ar
    51    36    37    1
    52    79    78    1
    53    79    80    1
    54    37    39   ar
    55   132   131    1
    56   131   130    1
    57     4     3    2
    58    42    41   ar
    59     3     2    1
    60   114   113    1
    61    81    80    2
    62    39    41   ar
    63     2     1    1
    64     2     5    1
    65    80    89   am
    66    94    95    1
    67   113   110    1
    68    69    70    1
    69   108   106    1
    70   109   110    1
    71     7     9   ar
    72     7     6   ar
    73    95    96    1
    74    95    98    1
    75     5     6    1
    76   101   102    1
    77    89    90    1
    78   102   103    1
    79   102   105    1
    80    70    71    1
    81    70    73    1
    82   130   129    1
    83   110   111    1
    84    96    97    2
    85   103   104    2
    86     9    11   ar
    87     6     8   ar
    88   112   111    2
    89   100    98    1
    90    72    71    2
    91    71    74   am
    92   106   105    1
    93   106   107    1
    94   129   126    1
    95    98    99    1
    96   111   117   am
    97    90    91    1
    98    90    93    1
    99    91    92    2
   100    76    77    2
   101    76    75    1
   102    74    75    1
   103    52    53    2
   104    52    51    1
   105    54    51    1
   106    54    55    1
   107    11    12    1
   108    11    10   ar
   109     8    10   ar
   110    57    55   ar
   111    57    59   ar
   112   117   118    1
   113    51    50    1
   114   126   125    1
   115   126   127    1
   116    55    56   ar
   117    50    45   am
   118   125   119   am
   119    59    60   ar
   120   119   118    1
   121   119   120    2
   122   118   121    1
   123    47    49    1
   124    47    48    1
   125    47    44    1
   126   127   128    2
   127    43    44    1
   128    45    44    1
   129    45    46    2
   130    56    58   ar
   131    60    58   ar
   132    60    61    1
   133   121   122    1
   134   121   123    1
   135   122   124    1
   136   138   137    1
   137    68    66    1
   138   137   134    1
   139    62    63    1
   140    63    66    1
   141    63    64    1
   142    66    67    1
   143   134   133    1
   144   134   135    1
   145    65    64    2
   146   135   136    2
