@<TRIPOS>MOLECULE
tmp/6ay9A00.pdb
 41 37 0 0 0
SMALL
GASTEIGER

@<TRIPOS>ATOM
      1  N         -3.9110  -32.5710   -0.6020 N.3    67  LYS67      -0.1245
      2  CA        -4.8910  -33.1270    0.3270 C.3    67  LYS67       0.1561
      3  C         -4.5020  -34.5370    0.7520 C.2    67  LYS67       0.2260
      4  O         -4.5340  -34.8710    1.9430 O.2    67  LYS67      -0.2867
      5  CB        -6.2850  -33.1320   -0.3050 C.3    67  LYS67       0.0271
      6  CG        -6.9160  -31.7650   -0.5070 C.3    67  LYS67       0.0035
      7  CD        -8.4150  -31.9010   -0.7210 C.3    67  LYS67       0.0206
      8  CE        -9.0500  -30.5890   -1.1490 C.3    67  LYS67       0.1093
      9  NZ        -8.9540  -30.3760   -2.6190 N.3    67  LYS67      -0.1314
     10  N         -1.5310  -34.5230    3.1480 N.3    70  ILE70      -0.1245
     11  CA        -1.9790  -34.1290    4.4820 C.3    70  ILE70       0.1561
     12  C         -2.7340  -35.2680    5.1570 C.2    70  ILE70       0.2260
     13  O         -2.6330  -35.4530    6.3770 O.2    70  ILE70      -0.2867
     14  CB        -2.8300  -32.8460    4.4010 C.3    70  ILE70       0.0252
     15  CG1       -1.9910  -31.6850    3.8630 C.3    70  ILE70       0.0019
     16  CG2       -3.4030  -32.4880    5.7640 C.3    70  ILE70       0.0019
     17  CD1       -2.7340  -30.3690    3.8040 C.3    70  ILE70       0.0001
     18  N         -5.3350  -29.9610   11.1790 N.3   102  ALA102     -0.1245
     19  CA        -5.7190  -29.4280    9.8800 C.3   102  ALA102      0.1562
     20  C         -6.8370  -28.3980    9.9690 C.2   102  ALA102      0.2260
     21  O         -7.2850  -27.9040    8.9280 O.2   102  ALA102     -0.2867
     22  CB        -6.1410  -30.5670    8.9480 C.3   102  ALA102      0.0290
     23  N         -9.9280  -28.8630   10.7730 N.3   104  THR104     -0.1218
     24  CA       -11.2360  -29.3730   10.3770 C.3   104  THR104      0.1862
     25  C        -12.1730  -29.5040   11.5720 C.2   104  THR104      0.2287
     26  O        -13.3210  -29.0470   11.5230 O.2   104  THR104     -0.2866
     27  CB       -11.0820  -30.7220    9.6720 C.3   104  THR104      0.1770
     28  OG1      -10.4330  -31.6480   10.5500 O.3   104  THR104     -0.2211
     29  CG2      -10.2550  -30.5700    8.4060 C.3   104  THR104      0.0375
     30  N          0.9400  -28.4400   11.0120 N.3   127  TYR127     -0.1241
     31  CA         0.1580  -28.3730    9.7830 C.3   127  TYR127      0.1605
     32  C          0.9730  -27.7510    8.6560 C.2   127  TYR127      0.2264
     33  O          0.9270  -28.2140    7.5100 O.2   127  TYR127     -0.2867
     34  CB        -1.1190  -27.5710   10.0360 C.3   127  TYR127      0.0534
     35  CG        -2.1680  -27.6990    8.9600 C.ar  127  TYR127     -0.0201
     36  CD1       -2.1780  -28.7830    8.0930 C.ar  127  TYR127     -0.0009
     37  CD2       -3.1490  -26.7290    8.8090 C.ar  127  TYR127     -0.0009
     38  CE1       -3.1380  -28.8990    7.1080 C.ar  127  TYR127      0.0417
     39  CE2       -4.1110  -26.8340    7.8290 C.ar  127  TYR127      0.0417
     40  CZ        -4.1030  -27.9210    6.9810 C.ar  127  TYR127      0.1957
     41  OH        -5.0630  -28.0290    6.0010 O.3   127  TYR127     -0.2866
@<TRIPOS>BOND
     1     9     8    1
     2     8     7    1
     3     7     6    1
     4     1     2    1
     5     6     5    1
     6     5     2    1
     7     2     3    1
     8     3     4    2
     9    10    11    1
    10    17    15    1
    11    15    14    1
    12    14    11    1
    13    14    16    1
    14    11    12    1
    15    12    13    2
    16    41    40    1
    17    40    38   ar
    18    40    39   ar
    19    38    36   ar
    20    33    32    2
    21    39    37   ar
    22    36    35   ar
    23    29    27    1
    24    32    31    1
    25    37    35   ar
    26    21    20    2
    27    22    19    1
    28    35    34    1
    29    27    24    1
    30    27    28    1
    31    31    34    1
    32    31    30    1
    33    19    20    1
    34    19    18    1
    35    24    23    1
    36    24    25    1
    37    26    25    2
