@<TRIPOS>MOLECULE
tmp/6aydA00.pdb
 171 161 0 0 0
SMALL
GASTEIGER

@<TRIPOS>ATOM
      1  N        -25.2960  -33.7000    4.7990 N.3    11  LEU11      -0.1231
      2  CA       -24.4600  -34.8680    5.1010 C.3    11  LEU11       0.1693
      3  C        -23.3370  -34.4830    6.0420 C.2    11  LEU11       0.2592
      4  O        -23.4100  -34.7160    7.2550 O.2    11  LEU11      -0.2718
      5  CB       -23.9040  -35.4840    3.8110 C.3    11  LEU11       0.0284
      6  CG       -24.9620  -36.0590    2.8900 C.3    11  LEU11       0.0019
      7  CD1      -24.3970  -36.4000    1.5370 C.3    11  LEU11       0.0001
      8  CD2      -25.5400  -37.3030    3.5140 C.3    11  LEU11       0.0001
      9  N        -22.2980  -33.8880    5.4780 N.am   12  GLY12      -0.1957
     10  CA       -21.2530  -33.2920    6.2490 C.3    12  GLY12       0.1869
     11  C        -21.1300  -31.8350    5.8480 C.2    12  GLY12       0.2309
     12  O        -21.7700  -31.3390    4.8920 O.2    12  GLY12      -0.2863
     13  N        -14.7330  -31.0070    2.7350 N.3    16  PHE16      -0.1241
     14  CA       -15.3610  -30.9520    1.3750 C.3    16  PHE16       0.1605
     15  C        -16.1860  -29.6720    1.1270 C.2    16  PHE16       0.2264
     16  O        -15.9940  -29.0150    0.1100 O.2    16  PHE16      -0.2867
     17  CB       -16.1600  -32.2330    0.9740 C.3    16  PHE16       0.0534
     18  CG       -16.7160  -33.0260    2.1320 C.ar   16  PHE16      -0.0203
     19  CD1      -17.9010  -32.6480    2.7520 C.ar   16  PHE16      -0.0042
     20  CD2      -16.0590  -34.1630    2.5990 C.ar   16  PHE16      -0.0042
     21  CE1      -18.4210  -33.3770    3.8180 C.ar   16  PHE16      -0.0003
     22  CE2      -16.5760  -34.8950    3.6670 C.ar   16  PHE16      -0.0003
     23  CZ       -17.7640  -34.5020    4.2770 C.ar   16  PHE16      -0.0000
     24  N        -22.2370  -30.2850    1.8230 N.3    19  VAL19      -0.1245
     25  CA       -22.7380  -31.3710    1.0150 C.3    19  VAL19       0.1561
     26  C        -24.0530  -31.8810    1.5950 C.2    19  VAL19       0.2260
     27  O        -24.1230  -32.2190    2.7870 O.2    19  VAL19      -0.2867
     28  CB       -21.7630  -32.5370    0.9630 C.3    19  VAL19       0.0252
     29  CG1      -22.2910  -33.6040    0.0240 C.3    19  VAL19       0.0019
     30  CG2      -20.4080  -32.0670    0.4950 C.3    19  VAL19       0.0019
     31  N        -25.1720  -36.8470   -3.9030 N.3    32  ALA32      -0.1245
     32  CA       -24.6660  -35.9060   -2.9370 C.3    32  ALA32       0.1562
     33  C        -24.5370  -34.6300   -3.6970 C.2    32  ALA32       0.2260
     34  O        -23.9250  -34.6020   -4.7580 O.2    32  ALA32      -0.2867
     35  CB       -23.2980  -36.3330   -2.4320 C.3    32  ALA32       0.0290
     36  N        -22.9000  -31.0050   -3.5200 N.3    34  LYS34      -0.1245
     37  CA       -21.9800  -30.0940   -2.9040 C.3    34  LYS34       0.1561
     38  C        -22.0940  -28.6990   -3.5250 C.2    34  LYS34       0.2260
     39  O        -22.1030  -28.5360   -4.7330 O.2    34  LYS34      -0.2867
     40  CB       -20.5700  -30.6040   -3.0840 C.3    34  LYS34       0.0271
     41  CG       -19.5250  -29.6580   -2.5270 C.3    34  LYS34       0.0035
     42  CD       -18.1510  -30.1950   -2.7960 C.3    34  LYS34       0.0206
     43  CE       -17.1150  -29.1140   -2.6290 C.3    34  LYS34       0.1093
     44  NZ       -15.8800  -29.7370   -2.0950 N.3    34  LYS34      -0.1314
     45  N        -11.5300  -28.4450   -8.6520 N.3    56  GLU56      -0.1245
     46  CA       -12.2830  -29.5900   -8.1750 C.3    56  GLU56       0.1567
     47  C        -13.0800  -30.2100   -9.3130 C.2    56  GLU56       0.2260
     48  O        -12.9410  -31.4000   -9.5990 O.2    56  GLU56      -0.2867
     49  CB       -13.1910  -29.1550   -7.0440 C.3    56  GLU56       0.0388
     50  CG       -13.9150  -30.3020   -6.3790 C.3    56  GLU56       0.1160
     51  CD       -14.4010  -29.9810   -4.9760 C.2    56  GLU56       0.3649
     52  OE1      -14.4300  -28.7930   -4.6110 O.co2  56  GLU56      -0.2457
     53  OE2      -14.7410  -30.9310   -4.2250 O.co2  56  GLU56      -0.2457
     54  N        -12.3360  -33.7270  -11.0190 N.3    60  LEU60      -0.1245
     55  CA       -13.4450  -34.6720  -10.9880 C.3    60  LEU60       0.1561
     56  C        -13.8210  -35.1950  -12.3720 C.2    60  LEU60       0.2260
     57  O        -13.9310  -36.3920  -12.5370 O.2    60  LEU60      -0.2867
     58  CB       -14.6480  -34.0940  -10.2590 C.3    60  LEU60       0.0270
     59  CG       -14.5320  -34.1260   -8.7250 C.3    60  LEU60       0.0019
     60  CD1      -15.6270  -33.2900   -8.0790 C.3    60  LEU60       0.0001
     61  CD2      -14.6100  -35.5480   -8.1890 C.3    60  LEU60       0.0001
     62  N        -15.5410  -41.5780   -6.1800 N.3    71  ILE71      -0.1245
     63  CA       -16.8840  -41.0560   -6.3380 C.3    71  ILE71       0.1561
     64  C        -16.8670  -40.2260   -7.6110 C.2    71  ILE71       0.2260
     65  O        -16.0030  -39.3920   -7.7890 O.2    71  ILE71      -0.2867
     66  CB       -17.3430  -40.2090   -5.1200 C.3    71  ILE71       0.0252
     67  CG1      -17.5920  -41.1030   -3.8870 C.3    71  ILE71       0.0019
     68  CG2      -18.6110  -39.4180   -5.4180 C.3    71  ILE71       0.0019
     69  CD1      -18.6430  -42.1900   -4.0180 C.3    71  ILE71       0.0001
     70  N        -22.9490  -35.5870   -7.2330 N.3    87  LEU87      -0.1231
     71  CA       -21.9650  -36.6500   -7.0500 C.3    87  LEU87       0.1693
     72  C        -22.6600  -37.9680   -6.7290 C.2    87  LEU87       0.2592
     73  O        -23.8270  -37.9750   -6.3880 O.2    87  LEU87      -0.2718
     74  CB       -21.0050  -36.2370   -5.9390 C.3    87  LEU87       0.0284
     75  CG       -20.1380  -35.0320   -6.3240 C.3    87  LEU87       0.0019
     76  CD1      -19.6690  -34.2610   -5.1100 C.3    87  LEU87       0.0001
     77  CD2      -18.9440  -35.4920   -7.1270 C.3    87  LEU87       0.0001
     78  N        -21.9620  -39.0900   -6.8620 N.am   88  GLU88      -0.1966
     79  CA       -22.5340  -40.3660   -6.4330 C.3    88  GLU88       0.1733
     80  C        -22.7410  -40.3380   -4.9410 C.2    88  GLU88       0.2616
     81  O        -22.0580  -39.6180   -4.2230 O.2    88  GLU88      -0.2715
     82  CB       -21.6060  -41.5290   -6.7330 C.3    88  GLU88       0.0429
     83  CG       -21.3940  -41.8470   -8.2010 C.3    88  GLU88       0.1163
     84  CD       -20.5890  -43.1320   -8.4000 C.2    88  GLU88       0.3649
     85  OE1      -19.9900  -43.6440   -7.4290 O.co2  88  GLU88      -0.2457
     86  OE2      -20.5520  -43.6510   -9.5350 O.co2  88  GLU88      -0.2457
     87  N        -23.6910  -41.1250   -4.4850 N.am   89  ARG89      -0.1964
     88  CA       -23.8200  -41.4030   -3.0650 C.3    89  ARG89       0.1714
     89  C        -24.1530  -42.8790   -2.8610 C.2    89  ARG89       0.2458
     90  O        -25.2600  -43.3310   -3.1760 O.2    89  ARG89      -0.2730
     91  CB       -24.8750  -40.5160   -2.3970 C.3    89  ARG89       0.0347
     92  CG       -25.0620  -40.7990   -0.9000 C.3    89  ARG89       0.0492
     93  CD       -25.9210  -39.7530   -0.2100 C.3    89  ARG89       0.2205
     94  NE       -27.2300  -39.6110   -0.8520 N.pl3  89  ARG89      -0.0865
     95  CZ       -28.3030  -40.3720   -0.6300 C.cat  89  ARG89       0.5346
     96  NH1      -28.3030  -41.3900    0.2460 N.pl3  89  ARG89       0.1354
     97  NH2      -29.4060  -40.1070   -1.3170 N.pl3  89  ARG89       0.1354
     98  N        -23.1880  -43.6370   -2.3310 N.am   90  PRO90      -0.2727
     99  CA       -23.4970  -44.9760   -1.8680 C.3    90  PRO90       0.1402
    100  C        -24.4660  -44.9280   -0.7180 C.2    90  PRO90       0.2269
    101  O        -24.5810  -43.9100   -0.0330 O.2    90  PRO90      -0.2865
    102  CB       -22.1480  -45.5130   -1.3690 C.3    90  PRO90       0.0296
    103  CG       -21.1040  -44.6000   -1.9250 C.3    90  PRO90       0.0237
    104  CD       -21.7700  -43.2820   -2.1260 C.3    90  PRO90       0.0939
    105  N        -23.6140  -46.0680    3.7450 N.3    93  VAL93      -0.1231
    106  CA       -22.2510  -45.5960    3.5950 C.3    93  VAL93       0.1692
    107  C        -21.7030  -45.1030    4.9320 C.2    93  VAL93       0.2592
    108  O        -22.4650  -44.6780    5.7780 O.2    93  VAL93      -0.2718
    109  CB       -22.1900  -44.5010    2.4950 C.3    93  VAL93       0.0266
    110  CG1      -22.7320  -43.1520    2.9710 C.3    93  VAL93       0.0020
    111  CG2      -20.7730  -44.3460    1.9830 C.3    93  VAL93       0.0020
    112  N        -20.3900  -45.1650    5.1110 N.am   94  GLN94      -0.1966
    113  CA       -19.7240  -44.6000    6.3010 C.3    94  GLN94       0.1733
    114  C        -18.2390  -44.3460    5.9930 C.2    94  GLN94       0.2616
    115  O        -17.6030  -45.1810    5.3440 O.2    94  GLN94      -0.2715
    116  CB       -19.8480  -45.5620    7.4690 C.3    94  GLN94       0.0408
    117  CG       -19.2230  -45.0760    8.7630 C.3    94  GLN94       0.0908
    118  CD       -19.1800  -46.1480    9.8470 C.2    94  GLN94       0.2608
    119  OE1      -19.0050  -47.3320    9.5760 O.2    94  GLN94      -0.2717
    120  NE2      -19.3110  -45.7270   11.0820 N.am   94  GLN94      -0.0878
    121  N        -17.6830  -43.2160    6.4450 N.am   95  ASP95      -0.1971
    122  CA       -16.2890  -42.8950    6.1130 C.3    95  ASP95       0.1709
    123  C        -15.3550  -43.6960    6.9870 C.2    95  ASP95       0.2293
    124  O        -15.7540  -44.2440    8.0110 O.2    95  ASP95      -0.2864
    125  CB       -15.9660  -41.3810    6.1230 C.3    95  ASP95       0.1436
    126  CG       -15.9530  -40.7290    7.5370 C.2    95  ASP95       0.3671
    127  OD1      -15.8320  -41.4040    8.5880 O.co2  95  ASP95      -0.2456
    128  OD2      -16.0590  -39.4890    7.5790 O.co2  95  ASP95      -0.2456
    129  N        -14.9030  -42.6890   10.9340 N.3    98  ASP98      -0.1239
    130  CA       -15.9520  -43.2330   11.7840 C.3    98  ASP98       0.1674
    131  C        -15.8950  -44.7490   11.8930 C.2    98  ASP98       0.2266
    132  O        -16.1260  -45.2920   12.9590 O.2    98  ASP98      -0.2867
    133  CB       -17.3260  -42.8280   11.2640 C.3    98  ASP98       0.1410
    134  CG       -17.5260  -41.3430   11.2680 C.2    98  ASP98       0.3668
    135  OD1      -16.6930  -40.6090   11.8380 O.co2  98  ASP98      -0.2456
    136  OD2      -18.5170  -40.9070   10.6800 O.co2  98  ASP98      -0.2456
    137  N        -14.7420  -43.3440    1.7230 N.3   141  LEU141     -0.1245
    138  CA       -16.0550  -43.8640    2.0890 C.3   141  LEU141      0.1561
    139  C        -16.0600  -45.3230    1.8910 C.2   141  LEU141      0.2260
    140  O        -15.3030  -45.8310    1.0910 O.2   141  LEU141     -0.2867
    141  CB       -17.1630  -43.2880    1.2250 C.3   141  LEU141      0.0270
    142  CG       -17.2360  -41.7670    1.1630 C.3   141  LEU141      0.0019
    143  CD1      -18.5070  -41.3020    0.4530 C.3   141  LEU141      0.0001
    144  CD2      -17.1560  -41.1570    2.5560 C.3   141  LEU141      0.0001
    145  N        -12.9200  -39.5440   -1.9660 N.3   152  ILE152     -0.1231
    146  CA       -13.6540  -38.2580   -2.0750 C.3   152  ILE152      0.1692
    147  C        -12.8020  -37.0010   -1.8100 C.2   152  ILE152      0.2592
    148  O        -11.7080  -37.0690   -1.2910 O.2   152  ILE152     -0.2718
    149  CB       -14.9060  -38.2100   -1.1330 C.3   152  ILE152      0.0266
    150  CG1      -14.5030  -38.3940    0.3360 C.3   152  ILE152      0.0019
    151  CG2      -15.9320  -39.2580   -1.5230 C.3   152  ILE152      0.0020
    152  CD1      -15.5410  -37.9050    1.3080 C.3   152  ILE152      0.0001
    153  N        -13.3820  -35.8560   -2.1490 N.am  153  ASP153     -0.1960
    154  CA       -12.8320  -34.5210   -1.9230 C.3   153  ASP153      0.1840
    155  C        -11.6270  -34.2780   -2.8050 C.2   153  ASP153      0.2622
    156  O        -10.5050  -34.6110   -2.4580 O.2   153  ASP153     -0.2715
    157  CB       -12.4970  -34.2920   -0.4520 C.3   153  ASP153      0.1450
    158  CG       -12.3670  -32.8140   -0.0850 C.2   153  ASP153      0.3671
    159  OD1      -12.1990  -31.9420   -0.9710 O.co2 153  ASP153     -0.2456
    160  OD2      -12.4270  -32.5380    1.1380 O.co2 153  ASP153     -0.2456
    161  N        -11.8780  -33.6770   -3.9610 N.am  154  PHE154     -0.1974
    162  CA       -10.8020  -33.2170   -4.8290 C.3   154  PHE154      0.1639
    163  C        -10.6150  -31.7170   -4.6910 C.2   154  PHE154      0.2290
    164  O        -10.1660  -31.0460   -5.6190 O.2   154  PHE154     -0.2864
    165  CB       -11.0670  -33.6760   -6.2680 C.3   154  PHE154      0.0560
    166  CG       -10.7850  -35.1420   -6.4630 C.ar  154  PHE154     -0.0200
    167  CD1       -9.5530  -35.5680   -6.9000 C.ar  154  PHE154     -0.0042
    168  CD2      -11.7340  -36.1010   -6.1140 C.ar  154  PHE154     -0.0042
    169  CE1       -9.2840  -36.9060   -7.0210 C.ar  154  PHE154     -0.0003
    170  CE2      -11.4660  -37.4470   -6.2450 C.ar  154  PHE154     -0.0003
    171  CZ       -10.2390  -37.8470   -6.6990 C.ar  154  PHE154     -0.0000
@<TRIPOS>BOND
     1    57    56    2
     2    56    55    1
     3    54    55    1
     4    55    58    1
     5    58    59    1
     6    48    47    2
     7    86    84   ar
     8    47    46    1
     9    59    61    1
    10    59    60    1
    11    45    46    1
    12    84    83    1
    13    84    85   ar
    14    83    82    1
    15    46    49    1
    16    65    64    2
    17    64    63    1
    18    70    71    1
    19    77    75    1
    20    71    72    1
    21    71    74    1
    22    49    50    1
    23   169   167   ar
    24   169   171   ar
    25   167   166   ar
    26    78    72   am
    27    78    79    1
    28    82    79    1
    29    72    73    2
    30   171   170   ar
    31   166   165    1
    32   166   168   ar
    33    79    80    1
    34    50    51    1
    35    63    62    1
    36    63    66    1
    37    75    74    1
    38    75    76    1
    39   165   162    1
    40   170   168   ar
    41   164   163    2
    42    68    66    1
    43    66    67    1
    44    51    52   ar
    45    51    53   ar
    46    80    87   am
    47    80    81    2
    48   162   163    1
    49   162   161    1
    50    34    33    2
    51    39    38    2
    52    87    88    1
    53    69    67    1
    54   161   155   am
    55    31    32    1
    56    33    32    1
    57    38    37    1
    58    36    37    1
    59    90    89    2
    60    40    37    1
    61    40    41    1
    62    88    89    1
    63    88    91    1
    64    32    35    1
    65    89    98   am
    66   155   156    2
    67   155   154    1
    68    42    43    1
    69    42    41    1
    70    43    44    1
    71    91    92    1
    72    98   104    1
    73    98    99    1
    74   153   154    1
    75   153   147   am
    76   104   103    1
    77   146   145    1
    78   146   147    1
    79   146   149    1
    80   103   102    1
    81   154   157    1
    82    99   102    1
    83    99   100    1
    84   147   148    2
    85   151   149    1
    86    97    95    1
    87   149   150    1
    88   159   158   ar
    89    92    93    1
    90    94    95    2
    91    94    93    1
    92   100   101    2
    93    95    96    1
    94   157   158    1
    95   158   160   ar
    96    29    28    1
    97    16    15    2
    98   150   152    1
    99   143   142    1
   100    30    28    1
   101    28    25    1
   102    17    14    1
   103    17    18    1
   104    25    26    1
   105    25    24    1
   106   140   139    2
   107    15    14    1
   108   142   141    1
   109   142   144    1
   110   141   138    1
   111    14    13    1
   112     7     6    1
   113    26    27    2
   114   137   138    1
   115   139   138    1
   116   111   109    1
   117    18    20   ar
   118    18    19   ar
   119   109   110    1
   120   109   106    1
   121    20    22   ar
   122    19    21   ar
   123     6     8    1
   124     6     5    1
   125   106   105    1
   126   106   107    1
   127    22    23   ar
   128     5     2    1
   129    21    23   ar
   130     1     2    1
   131    12    11    2
   132   107   112   am
   133   107   108    2
   134     2     3    1
   135   112   113    1
   136   115   114    2
   137     9     3   am
   138     9    10    1
   139    11    10    1
   140   114   113    1
   141   114   121   am
   142     3     4    2
   143   122   125    1
   144   122   121    1
   145   122   123    1
   146   125   126    1
   147   113   116    1
   148   123   124    2
   149   116   117    1
   150   126   128   ar
   151   126   127   ar
   152   117   118    1
   153   119   118    2
   154   118   120   am
   155   136   134   ar
   156   129   130    1
   157   133   134    1
   158   133   130    1
   159   134   135   ar
   160   130   131    1
   161   131   132    2
