@<TRIPOS>MOLECULE
tmp/6ayhA00.pdb
 166 154 0 0 0
SMALL
GASTEIGER

@<TRIPOS>ATOM
      1  N         23.8460   12.1420   22.8060 N.3    60  ASP60      -0.1239
      2  CA        23.6950   13.1310   21.7420 C.3    60  ASP60       0.1674
      3  C         24.4140   12.6790   20.4770 C.2    60  ASP60       0.2266
      4  O         23.8680   12.7670   19.3710 O.2    60  ASP60      -0.2867
      5  CB        24.2320   14.4860   22.2110 C.3    60  ASP60       0.1410
      6  CG        23.4770   15.0340   23.4100 C.2    60  ASP60       0.3668
      7  OD1       22.4400   14.4460   23.7850 O.co2  60  ASP60      -0.2456
      8  OD2       23.9260   16.0540   23.9800 O.co2  60  ASP60      -0.2456
      9  N         22.3260    9.9840   18.7370 N.3    63  ARG63      -0.1231
     10  CA        21.2020   10.5480   17.9960 C.3    63  ARG63       0.1694
     11  C         21.6580   11.1150   16.6580 C.2    63  ARG63       0.2591
     12  O         20.9760   10.9530   15.6400 O.2    63  ARG63      -0.2718
     13  CB        20.5080   11.6310   18.8230 C.3    63  ARG63       0.0321
     14  CG        19.7280   11.1000   20.0160 C.3    63  ARG63       0.0489
     15  CD        18.7030   12.1150   20.5040 C.3    63  ARG63       0.2205
     16  NE        19.2960   13.4300   20.7250 N.pl3  63  ARG63      -0.0865
     17  CZ        19.9520   13.7880   21.8250 C.cat  63  ARG63       0.5346
     18  NH1       20.1120   12.9310   22.8260 N.pl3  63  ARG63       0.1354
     19  NH2       20.4540   15.0110   21.9250 N.pl3  63  ARG63       0.1354
     20  N         22.8130   11.7820   16.6390 N.am   64  ALA64      -0.1980
     21  CA        23.3190   12.3420   15.3910 C.3    64  ALA64       0.1597
     22  C         23.6860   11.2410   14.4050 C.2    64  ALA64       0.2287
     23  O         23.4140   11.3570   13.2040 O.2    64  ALA64      -0.2864
     24  CB        24.5250   13.2380   15.6720 C.3    64  ALA64       0.0319
     25  N         21.1810    9.5020   11.9470 N.3    67  HIS67      -0.1226
     26  CA        20.8290   10.1650   10.6970 C.3    67  HIS67       0.1752
     27  C         21.7780    9.8010    9.5630 C.2    67  HIS67       0.2596
     28  O         21.3610    9.7820    8.4000 O.2    67  HIS67      -0.2718
     29  CB        20.8240   11.6840   10.8830 C.3    67  HIS67       0.0759
     30  CG        19.8250   12.1720   11.8850 C.ar   67  HIS67       0.0818
     31  ND1       20.1900   12.8200   13.0450 N.ar   67  HIS67      -0.2268
     32  CD2       18.4720   12.1130   11.8980 C.ar   67  HIS67       0.1154
     33  CE1       19.1060   13.1360   13.7310 C.ar   67  HIS67       0.1986
     34  NE2       18.0500   12.7170   13.0570 N.ar   67  HIS67      -0.2212
     35  N         23.0430    9.5050    9.8740 N.am   68  PHE68      -0.1976
     36  CA        24.0770    9.3890    8.8550 C.3    68  PHE68       0.1639
     37  C         24.8710    8.0900    8.9070 C.2    68  PHE68       0.2290
     38  O         25.8030    7.9290    8.1110 O.2    68  PHE68      -0.2864
     39  CB        25.0560   10.5690    8.9670 C.3    68  PHE68       0.0560
     40  CG        24.3840   11.9110    9.0080 C.ar   68  PHE68      -0.0200
     41  CD1       24.4940   12.7210   10.1250 C.ar   68  PHE68      -0.0042
     42  CD2       23.6330   12.3590    7.9330 C.ar   68  PHE68      -0.0042
     43  CE1       23.8760   13.9560   10.1680 C.ar   68  PHE68      -0.0003
     44  CE2       23.0120   13.5920    7.9700 C.ar   68  PHE68      -0.0003
     45  CZ        23.1340   14.3920    9.0900 C.ar   68  PHE68      -0.0000
     46  N         19.7990   16.5990    3.9670 N.3    81  LEU81      -0.1245
     47  CA        20.4300   17.5160    4.9110 C.3    81  LEU81       0.1561
     48  C         19.5100   18.6830    5.2510 C.2    81  LEU81       0.2260
     49  O         19.4470   19.1110    6.4080 O.2    81  LEU81      -0.2867
     50  CB        21.7540   18.0240    4.3440 C.3    81  LEU81       0.0270
     51  CG        22.8130   16.9450    4.1030 C.3    81  LEU81       0.0019
     52  CD1       24.0390   17.5480    3.4490 C.3    81  LEU81       0.0001
     53  CD2       23.1940   16.2370    5.3940 C.3    81  LEU81       0.0001
     54  N         17.0330   17.2580    7.6080 N.3    84  SER84      -0.1202
     55  CA        17.6460   17.0040    8.9060 C.3    84  SER84       0.2020
     56  C         17.7070   18.2820    9.7340 C.2    84  SER84       0.2619
     57  O         17.3530   18.2850   10.9180 O.2    84  SER84      -0.2717
     58  CB        19.0430   16.4100    8.7180 C.3    84  SER84       0.2103
     59  OG        18.9790   15.1550    8.0590 O.3    84  SER84      -0.2182
     60  N         18.1370   19.3860    9.1180 N.am   85  THR85      -0.1952
     61  CA        18.2370   20.6470    9.8430 C.3    85  THR85       0.1897
     62  C         16.8690   21.1140   10.3220 C.2    85  THR85       0.2313
     63  O         16.7310   21.6030   11.4490 O.2    85  THR85      -0.2863
     64  CB        18.8860   21.7080    8.9560 C.3    85  THR85       0.1794
     65  OG1       20.1330   21.2120    8.4540 O.3    85  THR85      -0.2208
     66  CG2       19.1390   22.9860    9.7430 C.3    85  THR85       0.0378
     67  N         15.9400   19.1010   13.3340 N.3    88  VAL88      -0.1245
     68  CA        16.6720   19.5800   14.5060 C.3    88  VAL88       0.1561
     69  C         15.8550   20.6220   15.2580 C.2    88  VAL88       0.2260
     70  O         15.8470   20.6560   16.4940 O.2    88  VAL88      -0.2867
     71  CB        18.0450   20.1370   14.0790 C.3    88  VAL88       0.0252
     72  CG1       18.6710   20.9820   15.1820 C.3    88  VAL88       0.0019
     73  CG2       18.9790   19.0040   13.6980 C.3    88  VAL88       0.0019
     74  N         12.9520   19.2130   17.6740 N.3    91  GLU91      -0.1245
     75  CA        13.2760   18.2660   18.7270 C.3    91  GLU91       0.1567
     76  C         12.9930   18.8550   20.1060 C.2    91  GLU91       0.2260
     77  O         12.8510   20.0680   20.2830 O.2    91  GLU91      -0.2867
     78  CB        14.7430   17.8490   18.6430 C.3    91  GLU91       0.0388
     79  CG        15.1080   17.1570   17.3490 C.3    91  GLU91       0.1160
     80  CD        16.5260   16.6240   17.3630 C.2    91  GLU91       0.3649
     81  OE1       17.0240   16.2900   18.4570 O.co2  91  GLU91      -0.2457
     82  OE2       17.1460   16.5480   16.2830 O.co2  91  GLU91      -0.2457
     83  N         16.2400   19.2570   25.5180 N.3    95  GLN95      -0.1245
     84  CA        17.3800   18.5700   24.9280 C.3    95  GLN95       0.1566
     85  C         18.2660   19.5450   24.1580 C.2    95  GLN95       0.2260
     86  O         19.4960   19.5070   24.2790 O.2    95  GLN95      -0.2867
     87  CB        16.8680   17.4520   24.0240 C.3    95  GLN95       0.0367
     88  CG        17.9230   16.6620   23.2930 C.3    95  GLN95       0.0905
     89  CD        17.3040   15.6050   22.4090 C.2    95  GLN95       0.2608
     90  OE1       17.2190   15.7660   21.1920 O.2    95  GLN95      -0.2717
     91  NE2       16.8470   14.5210   23.0210 N.am   95  GLN95      -0.0878
     92  N         22.2740   20.7800   24.8270 N.3    99  VAL99      -0.1245
     93  CA        23.3550   20.7450   23.8450 C.3    99  VAL99       0.1561
     94  C         24.1450   22.0460   23.8860 C.2    99  VAL99       0.2260
     95  O         25.3820   22.0440   23.8470 O.2    99  VAL99      -0.2867
     96  CB        22.7930   20.4770   22.4360 C.3    99  VAL99       0.0252
     97  CG1       23.8940   20.5730   21.3850 C.3    99  VAL99       0.0019
     98  CG2       22.1360   19.1090   22.3710 C.3    99  VAL99       0.0019
     99  N         33.0560   13.5300   19.8340 N.3   116  LYS116     -0.1245
    100  CA        31.7100   13.5100   19.2640 C.3   116  LYS116      0.1561
    101  C         31.7110   14.0220   17.8300 C.2   116  LYS116      0.2260
    102  O         31.1730   13.3730   16.9260 O.2   116  LYS116     -0.2867
    103  CB        30.7620   14.3450   20.1260 C.3   116  LYS116      0.0271
    104  CG        29.3640   14.5350   19.5300 C.3   116  LYS116      0.0035
    105  CD        28.5510   15.5250   20.3450 C.3   116  LYS116      0.0206
    106  CE        27.2060   15.8200   19.7020 C.3   116  LYS116      0.1093
    107  NZ        26.5700   17.0140   20.3220 N.3   116  LYS116     -0.1314
    108  N         30.8010   12.1360   14.1660 N.3   120  ILE120     -0.1245
    109  CA        29.7640   12.6200   13.2600 C.3   120  ILE120      0.1561
    110  C         30.3740   13.0120   11.9220 C.2   120  ILE120      0.2260
    111  O         29.8160   12.7150   10.8590 O.2   120  ILE120     -0.2867
    112  CB        29.0020   13.7960   13.8980 C.3   120  ILE120      0.0252
    113  CG1       28.3180   13.3480   15.1920 C.3   120  ILE120      0.0019
    114  CG2       27.9660   14.3560   12.9230 C.3   120  ILE120      0.0019
    115  CD1       27.7210   14.4830   16.0020 C.3   120  ILE120      0.0001
    116  N         29.4050   11.7940    8.0810 N.3   124  LEU124     -0.1245
    117  CA        29.0820   12.7540    7.0310 C.3   124  LEU124      0.1561
    118  C         29.9980   12.5710    5.8260 C.2   124  LEU124      0.2260
    119  O         29.5350   12.5430    4.6790 O.2   124  LEU124     -0.2867
    120  CB        29.1770   14.1810    7.5770 C.3   124  LEU124      0.0270
    121  CG        28.0890   14.6020    8.5710 C.3   124  LEU124      0.0019
    122  CD1       28.4320   15.9490    9.1890 C.3   124  LEU124      0.0001
    123  CD2       26.7240   14.6600    7.9000 C.3   124  LEU124      0.0001
    124  N         29.1470   22.3590    7.8490 N.3   149  LEU149     -0.1231
    125  CA        27.7580   21.9460    8.0060 C.3   149  LEU149      0.1693
    126  C         27.4130   21.7700    9.4780 C.2   149  LEU149      0.2591
    127  O         26.3380   22.1790    9.9300 O.2   149  LEU149     -0.2718
    128  CB        27.5060   20.6480    7.2410 C.3   149  LEU149      0.0284
    129  CG        26.1230   20.0150    7.4200 C.3   149  LEU149      0.0019
    130  CD1       25.0390   20.9180    6.8520 C.3   149  LEU149      0.0001
    131  CD2       26.0770   18.6390    6.7780 C.3   149  LEU149      0.0001
    132  N         28.3220   21.1640   10.2410 N.am  150  LEU150     -0.1980
    133  CA        28.0820   20.9630   11.6640 C.3   150  LEU150      0.1596
    134  C         27.9630   22.2980   12.3870 C.2   150  LEU150      0.2287
    135  O         27.1190   22.4580   13.2760 O.2   150  LEU150     -0.2864
    136  CB        29.2120   20.1160   12.2500 C.3   150  LEU150      0.0297
    137  CG        28.9550   19.1990   13.4470 C.3   150  LEU150      0.0022
    138  CD1       27.6220   18.4540   13.3550 C.3   150  LEU150      0.0001
    139  CD2       30.0960   18.2020   13.5560 C.3   150  LEU150      0.0001
    140  N         24.6230   23.7180   11.7120 N.3   153  THR153     -0.1203
    141  CA        23.6070   22.9420   12.4170 C.3   153  THR153      0.1994
    142  C         23.5140   23.3630   13.8770 C.2   153  THR153      0.2617
    143  O         22.4160   23.5650   14.4090 O.2   153  THR153     -0.2717
    144  CB        23.9140   21.4460   12.3110 C.3   153  THR153      0.1784
    145  OG1       23.9000   21.0470   10.9350 O.3   153  THR153     -0.2211
    146  CG2       22.8820   20.6180   13.0760 C.3   153  THR153      0.0376
    147  N         24.6560   23.4900   14.5510 N.am  154  TYR154     -0.1975
    148  CA        24.6160   23.8730   15.9560 C.3   154  TYR154      0.1639
    149  C         24.2180   25.3340   16.1180 C.2   154  TYR154      0.2290
    150  O         23.5380   25.6820   17.0890 O.2   154  TYR154     -0.2864
    151  CB        25.9640   23.5860   16.6170 C.3   154  TYR154      0.0560
    152  CG        26.2410   22.1070   16.7910 C.ar  154  TYR154     -0.0198
    153  CD1       25.2830   21.2580   17.3350 C.ar  154  TYR154     -0.0009
    154  CD2       27.4500   21.5540   16.3960 C.ar  154  TYR154     -0.0009
    155  CE1       25.5260   19.9050   17.4880 C.ar  154  TYR154      0.0417
    156  CE2       27.7000   20.2020   16.5480 C.ar  154  TYR154      0.0417
    157  CZ        26.7340   19.3840   17.0940 C.ar  154  TYR154      0.1957
    158  OH        26.9810   18.0390   17.2470 O.3   154  TYR154     -0.2866
    159  N         20.5810   25.0590   15.9750 N.3   157  LEU157     -0.1245
    160  CA        20.1190   24.4200   17.2020 C.3   157  LEU157      0.1561
    161  C         20.1580   25.3870   18.3790 C.2   157  LEU157      0.2260
    162  O         19.3160   25.3030   19.2810 O.2   157  LEU157     -0.2867
    163  CB        20.9780   23.1820   17.4800 C.3   157  LEU157      0.0270
    164  CG        20.5570   22.1990   18.5740 C.3   157  LEU157      0.0019
    165  CD1       21.0950   20.8100   18.2530 C.3   157  LEU157      0.0001
    166  CD2       21.0530   22.6430   19.9380 C.3   157  LEU157      0.0001
@<TRIPOS>BOND
     1    52    51    1
     2    46    47    1
     3    51    50    1
     4    51    53    1
     5    50    47    1
     6   119   118    2
     7    47    48    1
     8    48    49    2
     9   118   117    1
    10   131   129    1
    11   130   129    1
    12   117   120    1
    13   117   116    1
    14   128   129    1
    15   128   125    1
    16   120   121    1
    17    54    55    1
    18   124   125    1
    19   123   121    1
    20    42    44   ar
    21    42    40   ar
    22    44    45   ar
    23   125   126    1
    24    59    58    1
    25    38    37    2
    26    28    27    2
    27    65    64    1
    28   121   122    1
    29    58    55    1
    30    36    37    1
    31    36    39    1
    32    36    35    1
    33    55    56    1
    34    64    66    1
    35    64    61    1
    36    39    40    1
    37    40    41   ar
    38    45    43   ar
    39    60    56   am
    40    60    61    1
    41   126   127    2
    42   126   132   am
    43    27    35   am
    44    27    26    1
    45    56    57    2
    46    61    62    1
    47    41    43   ar
    48   132   133    1
    49    62    63    2
    50    26    29    1
    51    26    25    1
    52   111   110    2
    53    29    30    1
    54   145   144    1
    55   133   136    1
    56   133   134    1
    57   140   141    1
    58    30    32   ar
    59    30    31   ar
    60    32    34   ar
    61   110   109    1
    62   136   137    1
    63   144   141    1
    64   144   146    1
    65   134   135    2
    66   141   142    1
    67   114   112    1
    68    31    33   ar
    69    34    33   ar
    70    23    22    2
    71   109   112    1
    72   109   108    1
    73    67    68    1
    74   138   137    1
    75   137   139    1
    76    73    71    1
    77   142   143    2
    78   142   147   am
    79   112   113    1
    80    71    68    1
    81    71    72    1
    82    22    21    1
    83    68    69    1
    84   147   148    1
    85   113   115    1
    86    69    70    2
    87    21    24    1
    88    21    20    1
    89    12    11    2
    90   148   149    1
    91   148   151    1
    92   159   160    1
    93   149   150    2
    94    82    80   ar
    95   154   156   ar
    96   154   152   ar
    97   156   157   ar
    98   151   152    1
    99    20    11   am
   100    11    10    1
   101   152   153   ar
   102   102   101    2
   103   157   158    1
   104   157   155   ar
   105   160   163    1
   106   160   161    1
   107   153   155   ar
   108    79    80    1
   109    79    78    1
   110    80    81   ar
   111   163   164    1
   112    74    75    1
   113   101   100    1
   114    10     9    1
   115    10    13    1
   116   165   164    1
   117   161   162    2
   118   164   166    1
   119    78    75    1
   120    75    76    1
   121    13    14    1
   122   100    99    1
   123   100   103    1
   124     4     3    2
   125   104   103    1
   126   104   105    1
   127   106   107    1
   128   106   105    1
   129    14    15    1
   130    76    77    2
   131     3     2    1
   132    15    16    1
   133    16    17    2
   134    90    89    2
   135    97    96    1
   136     2     5    1
   137     2     1    1
   138    17    19    1
   139    17    18    1
   140     5     6    1
   141    98    96    1
   142    89    91   am
   143    89    88    1
   144    96    93    1
   145    88    87    1
   146     6     7   ar
   147     6     8   ar
   148    93    94    1
   149    93    92    1
   150    95    94    2
   151    87    84    1
   152    85    86    2
   153    85    84    1
   154    84    83    1
