@<TRIPOS>MOLECULE
tmp/6ayiA00.pdb
 174 160 0 0 0
SMALL
GASTEIGER

@<TRIPOS>ATOM
      1  N         53.9190   50.6950  167.8560 N.3    56  ASP56      -0.1239
      2  CA        53.6530   49.3280  167.4210 C.3    56  ASP56       0.1674
      3  C         54.9080   48.4680  167.5030 C.2    56  ASP56       0.2266
      4  O         54.8350   47.2850  167.8560 O.2    56  ASP56      -0.2867
      5  CB        53.0970   49.3290  165.9970 C.3    56  ASP56       0.1410
      6  CG        51.8820   50.2240  165.8460 C.2    56  ASP56       0.3668
      7  OD1       51.3510   50.6850  166.8780 O.co2  56  ASP56      -0.2456
      8  OD2       51.4600   50.4680  164.6950 O.co2  56  ASP56      -0.2456
      9  N         55.4030   47.2310  171.0630 N.3    59  ARG59      -0.1231
     10  CA        54.5310   46.1130  171.4130 C.3    59  ARG59       0.1694
     11  C         55.0990   44.7970  170.8980 C.2    59  ARG59       0.2591
     12  O         54.9930   43.7610  171.5660 O.2    59  ARG59      -0.2718
     13  CB        53.1260   46.3440  170.8590 C.3    59  ARG59       0.0321
     14  CG        52.3820   47.5020  171.5040 C.3    59  ARG59       0.0489
     15  CD        50.8880   47.4030  171.2440 C.3    59  ARG59       0.2205
     16  NE        50.5930   47.2050  169.8280 N.pl3  59  ARG59      -0.0865
     17  CZ        50.4310   48.1920  168.9530 C.cat  59  ARG59       0.5346
     18  NH1       50.5310   49.4540  169.3470 N.pl3  59  ARG59       0.1354
     19  NH2       50.1650   47.9170  167.6830 N.pl3  59  ARG59       0.1354
     20  N         55.7100   44.8190  169.7120 N.am   60  ALA60      -0.1980
     21  CA        56.3550   43.6180  169.1930 C.3    60  ALA60       0.1597
     22  C         57.6170   43.2900  169.9810 C.2    60  ALA60       0.2287
     23  O         57.8550   42.1260  170.3250 O.2    60  ALA60      -0.2864
     24  CB        56.6770   43.7930  167.7100 C.3    60  ALA60       0.0319
     25  N         57.3980   41.3830  173.2400 N.3    63  ARG63      -0.1231
     26  CA        57.2500   39.9350  173.1910 C.3    63  ARG63       0.1694
     27  C         58.5820   39.2010  173.1120 C.2    63  ARG63       0.2592
     28  O         58.6440   38.0240  173.4820 O.2    63  ARG63      -0.2718
     29  CB        56.3920   39.5320  171.9890 C.3    63  ARG63       0.0321
     30  CG        54.9850   40.1000  171.9900 C.3    63  ARG63       0.0489
     31  CD        54.2060   39.5800  170.7920 C.3    63  ARG63       0.2205
     32  NE        52.8150   40.0220  170.7960 N.pl3  63  ARG63      -0.0865
     33  CZ        51.8340   39.3910  171.4320 C.cat  63  ARG63       0.5346
     34  NH1       52.0900   38.2870  172.1210 N.pl3  63  ARG63       0.1354
     35  NH2       50.5960   39.8640  171.3810 N.pl3  63  ARG63       0.1354
     36  N         59.6450   39.8590  172.6400 N.am   64  PHE64      -0.1976
     37  CA        60.8910   39.1670  172.3330 C.3    64  PHE64       0.1639
     38  C         62.1230   39.8120  172.9580 C.2    64  PHE64       0.2290
     39  O         63.2440   39.3830  172.6600 O.2    64  PHE64      -0.2864
     40  CB        61.0800   39.0700  170.8150 C.3    64  PHE64       0.0560
     41  CG        59.9460   38.3860  170.1100 C.ar   64  PHE64      -0.0200
     42  CD1       59.8140   37.0100  170.1590 C.ar   64  PHE64      -0.0042
     43  CD2       59.0070   39.1210  169.4050 C.ar   64  PHE64      -0.0042
     44  CE1       58.7700   36.3770  169.5150 C.ar   64  PHE64      -0.0003
     45  CE2       57.9600   38.4940  168.7570 C.ar   64  PHE64      -0.0003
     46  CZ        57.8420   37.1190  168.8120 C.ar   64  PHE64      -0.0000
     47  N         56.0580   31.3000  169.4780 N.3    77  MET77      -0.1245
     48  CA        55.7420   32.0510  168.2670 C.3    77  MET77       0.1570
     49  C         54.2760   31.8910  167.8910 C.2    77  MET77       0.2261
     50  O         53.6150   32.8640  167.5070 O.2    77  MET77      -0.2867
     51  CB        56.6400   31.5950  167.1170 C.3    77  MET77       0.0387
     52  CG        58.1230   31.8190  167.3540 C.3    77  MET77       0.0595
     53  SD        58.5320   33.5580  167.5810 S.3    77  MET77      -0.1393
     54  CE        58.1550   34.2080  165.9560 C.3    77  MET77       0.0692
     55  N         52.0880   33.8760  170.2160 N.3    80  SER80      -0.1202
     56  CA        52.1720   35.3040  169.9280 C.3    80  SER80       0.2020
     57  C         51.2590   35.6870  168.7710 C.2    80  SER80       0.2618
     58  O         50.6120   36.7400  168.8020 O.2    80  SER80      -0.2717
     59  CB        53.6180   35.6920  169.6220 C.3    80  SER80       0.2103
     60  OG        54.4610   35.4380  170.7330 O.3    80  SER80      -0.2182
     61  N         51.1920   34.8420  167.7410 N.am   81  ILE81      -0.1979
     62  CA        50.3180   35.1240  166.6060 C.3    81  ILE81       0.1595
     63  C         48.8560   34.9650  167.0060 C.2    81  ILE81       0.2287
     64  O         47.9970   35.7560  166.5970 O.2    81  ILE81      -0.2864
     65  CB        50.6870   34.2200  165.4160 C.3    81  ILE81       0.0276
     66  CG1       52.1130   34.5150  164.9460 C.3    81  ILE81       0.0022
     67  CG2       49.7000   34.4040  164.2730 C.3    81  ILE81       0.0022
     68  CD1       52.6540   33.5000  163.9630 C.3    81  ILE81       0.0001
     69  N         47.7010   37.8910  168.9470 N.3    84  LEU84      -0.1245
     70  CA        47.5330   39.0740  168.1090 C.3    84  LEU84       0.1561
     71  C         46.1250   39.1560  167.5340 C.2    84  LEU84       0.2260
     72  O         45.5700   40.2540  167.4060 O.2    84  LEU84      -0.2867
     73  CB        48.5770   39.0740  166.9900 C.3    84  LEU84       0.0270
     74  CG        48.2910   39.8180  165.6820 C.3    84  LEU84       0.0019
     75  CD1       48.1770   41.3210  165.9140 C.3    84  LEU84       0.0001
     76  CD2       49.3770   39.5110  164.6650 C.3    84  LEU84       0.0001
     77  N         43.8310   41.2390  169.7690 N.3    87  GLU87      -0.1245
     78  CA        44.0840   42.6370  170.0780 C.3    87  GLU87       0.1567
     79  C         42.9660   43.5140  169.5150 C.2    87  GLU87       0.2260
     80  O         42.1250   43.0700  168.7280 O.2    87  GLU87      -0.2867
     81  CB        45.4420   43.0700  169.5250 C.3    87  GLU87       0.0388
     82  CG        46.6260   42.5360  170.3160 C.3    87  GLU87       0.1160
     83  CD        47.9600   42.8650  169.6720 C.2    87  GLU87       0.3649
     84  OE1       47.9820   43.6840  168.7300 O.co2  87  GLU87      -0.2457
     85  OE2       48.9860   42.3020  170.1080 O.co2  87  GLU87      -0.2457
     86  N         43.3820   48.8050  166.2620 N.3    91  GLN91      -0.1245
     87  CA        44.8390   48.8250  166.3140 C.3    91  GLN91       0.1566
     88  C         45.4400   47.9990  165.1820 C.2    91  GLN91       0.2260
     89  O         46.4300   48.4100  164.5640 O.2    91  GLN91      -0.2867
     90  CB        45.3110   48.3120  167.6730 C.3    91  GLN91       0.0367
     91  CG        46.8120   48.1710  167.8140 C.3    91  GLN91       0.0905
     92  CD        47.2060   47.5950  169.1590 C.2    91  GLN91       0.2608
     93  OE1       47.4740   46.4000  169.2810 O.2    91  GLN91      -0.2717
     94  NE2       47.2400   48.4430  170.1800 N.am   91  GLN91      -0.0878
     95  N         47.8590   49.2370  161.7080 N.3    95  VAL95      -0.1245
     96  CA        49.0960   48.6030  161.2570 C.3    95  VAL95       0.1561
     97  C         49.0410   48.3350  159.7590 C.2    95  VAL95       0.2260
     98  O         50.0160   48.5670  159.0340 O.2    95  VAL95      -0.2867
     99  CB        49.3520   47.3100  162.0540 C.3    95  VAL95       0.0252
    100  CG1       50.5340   46.5470  161.4720 C.3    95  VAL95       0.0019
    101  CG2       49.5860   47.6290  163.5220 C.3    95  VAL95       0.0019
    102  N         61.5620   49.5150  161.3140 N.3   115  LYS115     -0.1245
    103  CA        60.7390   48.7760  162.2680 C.3   115  LYS115      0.1561
    104  C         60.8630   47.2730  162.0520 C.2   115  LYS115      0.2260
    105  O         61.1090   46.5160  162.9980 O.2   115  LYS115     -0.2867
    106  CB        59.2780   49.2130  162.1520 C.3   115  LYS115      0.0271
    107  CG        58.3230   48.4020  163.0190 C.3   115  LYS115      0.0035
    108  CD        56.9150   48.3880  162.4430 C.3   115  LYS115      0.0206
    109  CE        55.9650   47.5950  163.3300 C.3   115  LYS115      0.1093
    110  NZ        54.6030   47.4770  162.7350 N.3   115  LYS115     -0.1314
    111  N         62.5520   44.3790  164.5660 N.3   119  ILE119     -0.1245
    112  CA        61.7800   43.2620  165.1030 C.3   119  ILE119      0.1561
    113  C         62.4610   41.9360  164.7820 C.2   119  ILE119      0.2260
    114  O         62.6120   41.0710  165.6530 O.2   119  ILE119     -0.2867
    115  CB        60.3380   43.3000  164.5680 C.3   119  ILE119      0.0252
    116  CG1       59.5870   44.5040  165.1420 C.3   119  ILE119      0.0019
    117  CG2       59.6080   42.0070  164.9030 C.3   119  ILE119      0.0019
    118  CD1       58.2390   44.7460  164.4950 C.3   119  ILE119      0.0001
    119  N         63.7630   38.7820  167.1900 N.3   123  VAL123     -0.1245
    120  CA        63.2710   37.4220  166.9920 C.3   123  VAL123      0.1561
    121  C         64.4270   36.4790  166.6800 C.2   123  VAL123      0.2260
    122  O         64.4540   35.3300  167.1400 O.2   123  VAL123     -0.2867
    123  CB        62.2010   37.3990  165.8830 C.3   123  VAL123      0.0252
    124  CG1       61.8220   35.9680  165.5240 C.3   123  VAL123      0.0019
    125  CG2       60.9720   38.1880  166.3160 C.3   123  VAL123      0.0019
    126  N         63.4060   34.7580  160.3210 N.3   146  SER146     -0.1217
    127  CA        62.7040   35.7560  161.1220 C.3   146  SER146      0.1889
    128  C         61.8150   36.6360  160.2540 C.2   146  SER146      0.2288
    129  O         60.6890   36.9690  160.6420 O.2   146  SER146     -0.2866
    130  CB        63.7070   36.6120  161.8950 C.3   146  SER146      0.2089
    131  OG        64.3760   35.8500  162.8840 O.3   146  SER146     -0.2183
    132  N         58.7270   34.6820  159.1750 N.3   149  LEU149     -0.1231
    133  CA        57.7940   34.5750  160.2930 C.3   149  LEU149      0.1693
    134  C         57.0760   35.8960  160.5340 C.2   149  LEU149      0.2591
    135  O         55.8900   35.9110  160.8850 O.2   149  LEU149     -0.2718
    136  CB        58.5310   34.1280  161.5550 C.3   149  LEU149      0.0284
    137  CG        58.9970   32.6720  161.6170 C.3   149  LEU149      0.0019
    138  CD1       59.5480   32.3490  162.9970 C.3   149  LEU149      0.0001
    139  CD2       57.8660   31.7230  161.2550 C.3   149  LEU149      0.0001
    140  N         57.7790   37.0160  160.3490 N.am  150  LEU150     -0.1980
    141  CA        57.1420   38.3210  160.4870 C.3   150  LEU150      0.1596
    142  C         56.1190   38.5540  159.3820 C.2   150  LEU150      0.2287
    143  O         55.0720   39.1670  159.6170 O.2   150  LEU150     -0.2864
    144  CB        58.2020   39.4230  160.4820 C.3   150  LEU150      0.0297
    145  CG        57.7100   40.8460  160.7460 C.3   150  LEU150      0.0022
    146  CD1       57.1070   40.9590  162.1370 C.3   150  LEU150      0.0001
    147  CD2       58.8390   41.8490  160.5630 C.3   150  LEU150      0.0001
    148  N         53.0840   36.6850  160.2030 N.3   153  THR153     -0.1203
    149  CA        52.3950   37.3790  161.2860 C.3   153  THR153      0.1994
    150  C         51.5400   38.5210  160.7500 C.2   153  THR153      0.2617
    151  O         50.3770   38.6790  161.1390 O.2   153  THR153     -0.2717
    152  CB        53.4150   37.8990  162.3000 C.3   153  THR153      0.1784
    153  OG1       54.1280   36.7940  162.8670 O.3   153  THR153     -0.2211
    154  CG2       52.7220   38.6750  163.4080 C.3   153  THR153      0.0376
    155  N         52.1030   39.3310  159.8500 N.am  154  TYR154     -0.1975
    156  CA        51.3450   40.4440  159.2880 C.3   154  TYR154      0.1639
    157  C         50.2130   39.9580  158.3930 C.2   154  TYR154      0.2290
    158  O         49.1640   40.6070  158.3190 O.2   154  TYR154     -0.2864
    159  CB        52.2770   41.3780  158.5200 C.3   154  TYR154      0.0560
    160  CG        53.1440   42.2260  159.4210 C.ar  154  TYR154     -0.0198
    161  CD1       54.4700   42.4850  159.1030 C.ar  154  TYR154     -0.0009
    162  CD2       52.6360   42.7610  160.5970 C.ar  154  TYR154     -0.0009
    163  CE1       55.2650   43.2590  159.9290 C.ar  154  TYR154      0.0417
    164  CE2       53.4210   43.5340  161.4300 C.ar  154  TYR154      0.0417
    165  CZ        54.7340   43.7800  161.0920 C.ar  154  TYR154      0.1957
    166  OH        55.5180   44.5490  161.9190 O.3   154  TYR154     -0.2866
    167  N         47.6540   39.1990  160.8690 N.3   157  LEU157     -0.1245
    168  CA        47.1910   40.4770  161.4040 C.3   157  LEU157      0.1561
    169  C         46.2150   41.1520  160.4500 C.2   157  LEU157      0.2260
    170  O         45.2410   41.7790  160.8860 O.2   157  LEU157     -0.2867
    171  CB        48.3920   41.3870  161.6810 C.3   157  LEU157      0.0270
    172  CG        48.2200   42.6850  162.4810 C.3   157  LEU157      0.0019
    173  CD1       49.5340   43.0600  163.1470 C.3   157  LEU157      0.0001
    174  CD2       47.7380   43.8370  161.6090 C.3   157  LEU157      0.0001
@<TRIPOS>BOND
     1   158   157    2
     2   157   156    1
     3   159   156    1
     4   159   160    1
     5    98    97    2
     6   161   160   ar
     7   161   163   ar
     8   132   133    1
     9   156   155    1
    10   142   143    2
    11   142   141    1
    12   160   162   ar
    13    97    96    1
    14   155   150   am
    15   163   165   ar
    16   148   149    1
    17   128   129    2
    18   128   127    1
    19   133   134    1
    20   133   136    1
    21   126   127    1
    22   140   141    1
    23   140   134   am
    24   169   170    2
    25   169   168    1
    26   144   141    1
    27   144   145    1
    28   134   135    2
    29   147   145    1
    30   162   164   ar
    31   145   146    1
    32   150   151    2
    33   150   149    1
    34   167   168    1
    35   165   164   ar
    36   165   166    1
    37   127   130    1
    38   139   137    1
    39    96    95    1
    40    96    99    1
    41   149   152    1
    42   102   103    1
    43   168   171    1
    44   100    99    1
    45   136   137    1
    46   174   172    1
    47   137   138    1
    48   171   172    1
    49   130   131    1
    50   104   103    1
    51   104   105    2
    52    99   101    1
    53   106   103    1
    54   106   107    1
    55   152   153    1
    56   152   154    1
    57   108   107    1
    58   108   109    1
    59   172   173    1
    60   110   109    1
    61    68    66    1
    62    67    65    1
    63   118   116    1
    64    89    88    2
    65   111   112    1
    66   115   117    1
    67   115   112    1
    68   115   116    1
    69    76    74    1
    70     8     6   ar
    71   113   112    1
    72   113   114    2
    73    66    65    1
    74    88    87    1
    75    65    62    1
    76   124   123    1
    77    74    75    1
    78    74    73    1
    79     6     5    1
    80     6     7   ar
    81   123   125    1
    82   123   120    1
    83    54    53    1
    84     5     2    1
    85    86    87    1
    86    87    90    1
    87    64    63    2
    88    62    63    1
    89    62    61    1
    90   121   120    1
    91   121   122    2
    92    73    70    1
    93   120   119    1
    94    51    52    1
    95    51    48    1
    96    52    53    1
    97    72    71    2
    98     2     3    1
    99     2     1    1
   100     3     4    2
   101    50    49    2
   102    71    70    1
   103    90    91    1
   104    19    17    1
   105    24    21    1
   106    61    57   am
   107    91    92    1
   108    49    48    1
   109    70    69    1
   110    48    47    1
   111    80    79    2
   112    84    83   ar
   113    45    46   ar
   114    45    43   ar
   115    57    58    2
   116    57    56    1
   117    46    44   ar
   118    17    18    1
   119    17    16    2
   120    92    93    2
   121    92    94   am
   122    21    20    1
   123    21    22    1
   124    43    41   ar
   125    44    42   ar
   126    79    78    1
   127    81    78    1
   128    81    82    1
   129    59    56    1
   130    59    60    1
   131    83    85   ar
   132    83    82    1
   133    20    11   am
   134    77    78    1
   135    16    15    1
   136    56    55    1
   137    22    23    2
   138    41    42   ar
   139    41    40    1
   140    31    32    1
   141    31    30    1
   142    32    33    2
   143    40    37    1
   144    13    10    1
   145    13    14    1
   146    11    10    1
   147    11    12    2
   148     9    10    1
   149    15    14    1
   150    35    33    1
   151    33    34    1
   152    29    30    1
   153    29    26    1
   154    37    36    1
   155    37    38    1
   156    36    27   am
   157    39    38    2
   158    27    26    1
   159    27    28    2
   160    26    25    1
