@<TRIPOS>MOLECULE
tmp/6aylA00.pdb
 205 189 0 0 0
SMALL
GASTEIGER

@<TRIPOS>ATOM
      1  N         10.8480   -1.9400   20.7500 N.3    18  PHE18      -0.1241
      2  CA        10.0330   -0.7600   21.0280 C.3    18  PHE18       0.1605
      3  C          9.6620   -0.6420   22.5020 C.2    18  PHE18       0.2264
      4  O          9.7250    0.4620   23.0570 O.2    18  PHE18      -0.2867
      5  CB         8.7970   -0.7110   20.1060 C.3    18  PHE18       0.0534
      6  CG         8.1250    0.6440   20.0150 C.ar   18  PHE18      -0.0203
      7  CD1        8.8740    1.8030   19.7930 C.ar   18  PHE18      -0.0042
      8  CD2        6.7430    0.7570   20.0830 C.ar   18  PHE18      -0.0042
      9  CE1        8.2550    3.0450   19.6840 C.ar   18  PHE18      -0.0003
     10  CE2        6.1200    2.0070   19.9610 C.ar   18  PHE18      -0.0003
     11  CZ         6.8790    3.1380   19.7440 C.ar   18  PHE18      -0.0000
     12  N         12.8070    0.5580   24.3220 N.3    21  TYR21      -0.1227
     13  CA        13.0180    1.9600   23.9990 C.3    21  TYR21       0.1736
     14  C         12.0140    2.8380   24.7920 C.2    21  TYR21       0.2595
     15  O         12.4440    3.7830   25.4320 O.2    21  TYR21      -0.2718
     16  CB        12.9320    2.1670   22.4890 C.3    21  TYR21       0.0548
     17  CG        12.7420    3.6100   22.0930 C.ar   21  TYR21      -0.0200
     18  CD1       13.8220    4.4880   22.0490 C.ar   21  TYR21      -0.0009
     19  CD2       11.4750    4.1160   21.8200 C.ar   21  TYR21      -0.0009
     20  CE1       13.6460    5.8330   21.7290 C.ar   21  TYR21       0.0417
     21  CE2       11.2880    5.4650   21.5150 C.ar   21  TYR21       0.0417
     22  CZ        12.3800    6.3130   21.4470 C.ar   21  TYR21       0.1957
     23  OH        12.2040    7.6260   21.0970 O.3    21  TYR21      -0.2866
     24  N         10.7000    2.5030   24.8060 N.am   22  MET22      -0.1979
     25  CA         9.6950    3.2930   25.5590 C.3    22  MET22       0.1605
     26  C          9.9750    3.3310   27.0740 C.2    22  MET22       0.2287
     27  O          9.7910    4.3770   27.6920 O.2    22  MET22      -0.2864
     28  CB         8.2590    2.8170   25.3000 C.3    22  MET22       0.0413
     29  CG         7.7920    3.0150   23.8570 C.3    22  MET22       0.0598
     30  SD         6.0630    2.5640   23.7060 S.3    22  MET22      -0.1393
     31  CE         6.1970    0.7500   23.5900 C.3    22  MET22       0.0692
     32  N          0.6690    1.1100   23.1500 N.3    35  ALA35      -0.1245
     33  CA         1.4770    1.5480   22.0150 C.3    35  ALA35       0.1562
     34  C          2.1620    0.3790   21.3560 C.2    35  ALA35       0.2260
     35  O          2.2520    0.3550   20.1420 O.2    35  ALA35      -0.2867
     36  CB         2.5150    2.5810   22.4480 C.3    35  ALA35       0.0290
     37  N         -0.3390   -1.5600   18.9430 N.3    38  ALA38      -0.1245
     38  CA        -0.8060   -0.8020   17.7810 C.3    38  ALA38       0.1562
     39  C         -0.0260   -1.0860   16.4890 C.2    38  ALA38       0.2260
     40  O          1.1910   -1.2820   16.5210 O.2    38  ALA38      -0.2867
     41  CB        -0.8170    0.6850   18.1060 C.3    38  ALA38       0.0290
     42  N          0.1250    1.0250   13.5480 N.3    40  PRO40      -0.2116
     43  CA        -0.3670    2.2550   12.9260 C.3    40  PRO40       0.1372
     44  C         -0.1900    2.3750   11.4260 C.2    40  PRO40       0.2244
     45  O          0.6810    1.7580   10.8140 O.2    40  PRO40      -0.2868
     46  CB         0.4300    3.3540   13.6470 C.3    40  PRO40       0.0268
     47  CG         1.6900    2.7010   14.0490 C.3    40  PRO40       0.0207
     48  CD         1.2810    1.3040   14.4290 C.3    40  PRO40       0.0892
     49  N          0.4660    5.4700    8.8370 N.3    42  MET42      -0.1245
     50  CA         1.0570    6.7880    8.9760 C.3    42  MET42       0.1570
     51  C          0.8970    7.4980    7.6270 C.2    42  MET42       0.2261
     52  O          1.2180    6.8990    6.6010 O.2    42  MET42      -0.2867
     53  CB         2.5420    6.6480    9.3620 C.3    42  MET42       0.0387
     54  CG         3.2940    7.9550    9.3400 C.3    42  MET42       0.0595
     55  SD         4.8620    7.8710   10.2040 S.3    42  MET42      -0.1393
     56  CE         4.2480    7.9120   11.9380 C.3    42  MET42       0.0692
     57  N          2.1040   14.8290    9.5720 N.3    53  ILE53      -0.1245
     58  CA         2.2640   13.4010    9.8240 C.3    53  ILE53       0.1561
     59  C          1.0680   13.0220   10.6630 C.2    53  ILE53       0.2260
     60  O          0.8930   13.5570   11.7510 O.2    53  ILE53      -0.2867
     61  CB         3.6070   13.0100   10.5110 C.3    53  ILE53       0.0252
     62  CG1        4.8220   13.3800    9.6280 C.3    53  ILE53       0.0019
     63  CG2        3.5910   11.4860   10.8530 C.3    53  ILE53       0.0019
     64  CD1        6.2730   13.1120   10.2790 C.3    53  ILE53       0.0001
     65  N         -1.0950    9.8090   12.2470 N.3    55  SER55      -0.1217
     66  CA        -0.9860    8.3740   12.5270 C.3    55  SER55       0.1889
     67  C         -2.3950    7.8700   12.8750 C.2    55  SER55       0.2288
     68  O         -3.1340    8.5580   13.5900 O.2    55  SER55      -0.2866
     69  CB        -0.0410    8.1190   13.6960 C.3    55  SER55       0.2089
     70  OG        -0.7740    8.3260   14.8910 O.3    55  SER55      -0.2183
     71  N         -4.4800    4.4020   14.3610 N.3    57  SER57      -0.1217
     72  CA        -4.4860    3.0460   14.9270 C.3    57  SER57       0.1889
     73  C         -5.6890    2.8730   15.8490 C.2    57  SER57       0.2288
     74  O         -6.3430    3.8530   16.2030 O.2    57  SER57      -0.2866
     75  CB        -3.1870    2.7580   15.6830 C.3    57  SER57       0.2089
     76  OG        -3.1150    3.5050   16.8860 O.3    57  SER57      -0.2183
     77  N         -5.4760    2.1940   18.8590 N.3    59  PHE59      -0.1227
     78  CA        -4.9990    2.8640   20.0590 C.3    59  PHE59       0.1736
     79  C         -5.3360    4.3510   20.0290 C.2    59  PHE59       0.2595
     80  O         -5.8760    4.8550   21.0130 O.2    59  PHE59      -0.2718
     81  CB        -3.4830    2.6850   20.2060 C.3    59  PHE59       0.0547
     82  CG        -3.1690    1.2240   20.4260 C.ar   59  PHE59      -0.0202
     83  CD1       -3.4900    0.6440   21.6370 C.ar   59  PHE59      -0.0042
     84  CD2       -2.5970    0.4640   19.4300 C.ar   59  PHE59      -0.0042
     85  CE1       -3.2660   -0.7120   21.8190 C.ar   59  PHE59      -0.0003
     86  CE2       -2.3820   -0.8640   19.6360 C.ar   59  PHE59      -0.0003
     87  CZ        -2.7020   -1.4470   20.8320 C.ar   59  PHE59      -0.0000
     88  N         -5.0160    5.0570   18.9130 N.am   60  LYS60      -0.1980
     89  CA        -5.2280    6.5040   18.7850 C.3    60  LYS60       0.1596
     90  C         -5.2810    7.0190   17.3260 C.2    60  LYS60       0.2287
     91  O         -5.2270    6.2610   16.3580 O.2    60  LYS60      -0.2864
     92  CB        -4.0910    7.2460   19.5320 C.3    60  LYS60       0.0298
     93  CG        -4.4640    7.7960   20.8950 C.3    60  LYS60       0.0038
     94  CD        -3.2440    7.8250   21.7980 C.3    60  LYS60       0.0206
     95  CE        -3.5880    7.8790   23.2730 C.3    60  LYS60       0.1093
     96  NZ        -4.2360    6.6290   23.7580 N.3    60  LYS60      -0.1314
     97  N         -3.3930   10.5320   15.7490 N.3    62  THR62      -0.1218
     98  CA        -2.5860   11.7110   16.0830 C.3    62  THR62       0.1862
     99  C         -2.2810   12.4910   14.8290 C.2    62  THR62       0.2287
    100  O         -2.3420   11.9440   13.7270 O.2    62  THR62      -0.2866
    101  CB        -1.2960   11.3800   16.8670 C.3    62  THR62       0.1770
    102  OG1       -0.3840   10.6850   16.0150 O.3    62  THR62      -0.2211
    103  CG2       -1.5480   10.6030   18.1550 C.3    62  THR62       0.0375
    104  N          0.4670   15.8130   13.6510 N.3    64  ILE64      -0.1245
    105  CA         1.4310   16.8740   13.9280 C.3    64  ILE64       0.1561
    106  C          1.7040   17.5980   12.6210 C.2    64  ILE64       0.2260
    107  O          1.8210   16.9550   11.5720 O.2    64  ILE64      -0.2867
    108  CB         2.7250   16.3990   14.6570 C.3    64  ILE64       0.0252
    109  CG1        3.5070   15.3520   13.8450 C.3    64  ILE64       0.0019
    110  CG2        2.4160   15.8940   16.1000 C.3    64  ILE64       0.0019
    111  CD1        4.9780   15.1660   14.2390 C.3    64  ILE64       0.0001
    112  N          4.3260   19.2260   21.0490 N.3    74  GLU74      -0.1196
    113  CA         3.8170   17.9190   20.6470 C.3    74  GLU74       0.1783
    114  C          3.2100   17.2710   21.8910 C.2    74  GLU74       0.2306
    115  O          3.7370   17.4570   22.9850 O.2    74  GLU74      -0.2863
    116  CB         4.9810   17.0570   20.0850 C.2    74  GLU74       0.0071
    117  CG         4.5710   15.7190   19.4710 C.2    74  GLU74       0.0834
    118  CD         5.6650   14.8930   18.8180 C.2    74  GLU74       0.3877
    119  OE1        5.3290   13.9520   18.0640 O.co2  74  GLU74      -0.2406
    120  OE2        6.8570   15.1620   19.0740 O.co2  74  GLU74      -0.2406
    121  N          5.3860   13.3540   30.2180 N.3    80  ARG80      -0.1245
    122  CA         6.2120   14.3060   29.4840 C.3    80  ARG80       0.1563
    123  C          5.4340   15.2280   28.5330 C.2    80  ARG80       0.2260
    124  O          4.5940   14.7620   27.7540 O.2    80  ARG80      -0.2867
    125  CB         7.3380   13.5780   28.7310 C.3    80  ARG80       0.0307
    126  CG         6.9080   12.3250   27.9720 C.3    80  ARG80       0.0489
    127  CD         8.0800   11.6740   27.2560 C.3    80  ARG80       0.2205
    128  NE         7.6500   11.1720   25.9550 N.pl3  80  ARG80      -0.0865
    129  CZ         8.3520   11.2680   24.8330 C.cat  80  ARG80       0.5346
    130  NH1        7.8620   10.8020   23.7000 N.pl3  80  ARG80       0.1354
    131  NH2        9.5630   11.8150   24.8400 N.pl3  80  ARG80       0.1354
    132  N         13.7670   13.7060   13.9840 N.3    95  HIS95      -0.1241
    133  CA        12.7710   14.2420   14.9150 C.3    95  HIS95       0.1621
    134  C         13.3460   14.1710   16.3150 C.2    95  HIS95       0.2264
    135  O         13.4720   13.0780   16.8710 O.2    95  HIS95      -0.2867
    136  CB        11.4570   13.4200   14.7770 C.3    95  HIS95       0.0745
    137  CG        10.3250   13.7960   15.6930 C.ar   95  HIS95       0.0817
    138  ND1        9.0720   13.2010   15.5590 N.ar   95  HIS95      -0.2268
    139  CD2       10.2660   14.7070   16.6970 C.ar   95  HIS95       0.1154
    140  CE1        8.3070   13.7710   16.4750 C.ar   95  HIS95       0.1986
    141  NE2        8.9800   14.6750   17.1860 N.ar   95  HIS95      -0.2212
    142  N         12.7780   15.0940   20.2150 N.3    97  GLN97      -0.1245
    143  CA        11.7880   15.3970   21.2510 C.3    97  GLN97       0.1566
    144  C         12.5770   15.7020   22.5240 C.2    97  GLN97       0.2260
    145  O         13.3940   14.8770   22.9230 O.2    97  GLN97      -0.2867
    146  CB        10.8740   14.2000   21.4980 C.3    97  GLN97       0.0367
    147  CG         9.9510   13.8260   20.3430 C.3    97  GLN97       0.0905
    148  CD         9.0690   12.6660   20.7500 C.2    97  GLN97       0.2608
    149  OE1        9.4100   11.8850   21.6410 O.2    97  GLN97      -0.2717
    150  NE2        7.9350   12.5090   20.0910 N.am   97  GLN97      -0.0878
    151  N         14.0650   10.3310   16.7910 N.3   106  ILE106     -0.1245
    152  CA        13.3310    9.4100   15.9150 C.3   106  ILE106      0.1561
    153  C         13.7650    9.7600   14.4820 C.2   106  ILE106      0.2260
    154  O         13.5000   10.8570   14.0060 O.2   106  ILE106     -0.2867
    155  CB        11.7850    9.5630   16.1100 C.3   106  ILE106      0.0252
    156  CG1       11.3770    9.2840   17.5930 C.3   106  ILE106      0.0019
    157  CG2       11.0000    8.6560   15.1230 C.3   106  ILE106      0.0019
    158  CD1        9.9900    9.8550   17.9820 C.3   106  ILE106      0.0001
    159  N         13.7090    8.8430   10.3770 N.3   108  ARG108     -0.1245
    160  CA        12.9920    8.1540    9.3140 C.3   108  ARG108      0.1563
    161  C         13.8120    8.2650    8.0370 C.2   108  ARG108      0.2260
    162  O         14.2330    9.3630    7.6420 O.2   108  ARG108     -0.2867
    163  CB        11.5720    8.7240    9.0980 C.3   108  ARG108      0.0307
    164  CG        10.6610    8.5260   10.2960 C.3   108  ARG108      0.0489
    165  CD         9.2610    9.0710   10.0950 C.3   108  ARG108      0.2205
    166  NE         8.7010    9.3790   11.4140 N.pl3 108  ARG108     -0.0865
    167  CZ         8.0060    8.5280   12.1630 C.cat 108  ARG108      0.5346
    168  NH1        7.5830    8.8880   13.3640 N.pl3 108  ARG108      0.1354
    169  NH2        7.7040    7.3170   11.7030 N.pl3 108  ARG108      0.1354
    170  N         12.3580    3.3770   10.4960 N.3   117  VAL117     -0.1245
    171  CA        12.2990    4.2620   11.6400 C.3   117  VAL117      0.1561
    172  C         13.2450    3.8010   12.7360 C.2   117  VAL117      0.2260
    173  O         13.0980    2.6910   13.2630 O.2   117  VAL117     -0.2867
    174  CB        10.8470    4.4710   12.1190 C.3   117  VAL117      0.0252
    175  CG1       10.7910    5.5210   13.2390 C.3   117  VAL117      0.0019
    176  CG2        9.9520    4.8880   10.9540 C.3   117  VAL117      0.0019
    177  N         14.6480    4.7370   16.4700 N.3   119  CYS119     -0.1235
    178  CA        14.3400    5.5000   17.6950 C.3   119  CYS119      0.1677
    179  C         15.4690    5.2330   18.6660 C.2   119  CYS119      0.2270
    180  O         15.8240    4.0660   18.8830 O.2   119  CYS119     -0.2867
    181  CB        12.9930    5.0700   18.2670 C.3   119  CYS119      0.0956
    182  SG        11.7200    4.7800   17.0090 S.3   119  CYS119     -0.0801
    183  N         11.7510    0.2610   13.5900 N.3   128  ARG128     -0.1245
    184  CA        10.3970    0.0190   13.1070 C.3   128  ARG128      0.1563
    185  C         10.3590    0.2250   11.6230 C.2   128  ARG128      0.2260
    186  O         10.9450    1.1810   11.1260 O.2   128  ARG128     -0.2867
    187  CB         9.3980    0.9220   13.8060 C.3   128  ARG128      0.0307
    188  CG         9.1050    0.4440   15.2130 C.3   128  ARG128      0.0489
    189  CD         8.6000    1.5510   16.0790 C.3   128  ARG128      0.2205
    190  NE         7.2030    1.9300   15.8360 N.pl3 128  ARG128     -0.0865
    191  CZ         6.1240    1.2750   16.2570 C.cat 128  ARG128      0.5346
    192  NH1        6.2390    0.0790   16.8300 N.pl3 128  ARG128      0.1354
    193  NH2        4.9210    1.7910   16.0740 N.pl3 128  ARG128      0.1354
    194  N          7.9770    0.4750    8.0360 N.3   130  TYR130     -0.1241
    195  CA         6.6800    0.7460    7.4390 C.3   130  TYR130      0.1605
    196  C          6.7810    0.4290    5.9420 C.2   130  TYR130      0.2264
    197  O          7.8590    0.5800    5.3580 O.2   130  TYR130     -0.2867
    198  CB         6.2680    2.2300    7.6020 C.3   130  TYR130      0.0534
    199  CG         5.8520    2.6560    9.0090 C.ar  130  TYR130     -0.0201
    200  CD1        6.8030    2.9160    9.9940 C.ar  130  TYR130     -0.0009
    201  CD2        4.5110    2.7680    9.3540 C.ar  130  TYR130     -0.0009
    202  CE1        6.4220    3.3000   11.2890 C.ar  130  TYR130      0.0417
    203  CE2        4.1200    3.1460   10.6360 C.ar  130  TYR130      0.0417
    204  CZ         5.0750    3.4160   11.6000 C.ar  130  TYR130      0.1957
    205  OH         4.6500    3.7900   12.8510 O.3   130  TYR130     -0.2866
@<TRIPOS>BOND
     1   197   196    2
     2   196   195    1
     3    52    51    2
     4   195   198    1
     5   195   194    1
     6   198   199    1
     7    51    50    1
     8   162   161    2
     9   161   160    1
    10    49    50    1
    11    50    53    1
    12   199   201   ar
    13   199   200   ar
    14   163   160    1
    15   163   164    1
    16   160   159    1
    17    54    53    1
    18    54    55    1
    19   201   203   ar
    20    57    58    1
    21    62    64    1
    22    62    61    1
    23    58    61    1
    24    58    59    1
    25   200   202   ar
    26   165   164    1
    27   165   166    1
    28    55    56    1
    29   170   171    1
    30    61    63    1
    31   203   204   ar
    32    59    60    2
    33    45    44    2
    34   176   174    1
    35   186   185    2
    36   202   204   ar
    37   166   167    2
    38    44    43    1
    39   107   106    2
    40   204   205    1
    41   185   184    1
    42   171   174    1
    43   171   172    1
    44   169   167    1
    45   174   175    1
    46   167   168    1
    47    65    66    1
    48    66    67    1
    49    66    69    1
    50   106   105    1
    51   172   173    2
    52    67    68    2
    53    43    42    1
    54    43    46    1
    55   184   183    1
    56   184   187    1
    57    42    48    1
    58    46    47    1
    59   104   105    1
    60    69    70    1
    61   100    99    2
    62   187   188    1
    63   109   111    1
    64   109   108    1
    65   105   108    1
    66   132   133    1
    67   154   153    2
    68    47    48    1
    69    71    72    1
    70   153   152    1
    71   108   110    1
    72   136   133    1
    73   136   137    1
    74    99    98    1
    75   133   134    1
    76    72    75    1
    77    72    73    1
    78   157   155    1
    79   188   189    1
    80   138   137   ar
    81   138   140   ar
    82    75    76    1
    83   137   139   ar
    84    97    98    1
    85   190   189    1
    86   190   191    2
    87    73    74    2
    88   152   155    1
    89   152   151    1
    90   102   101    1
    91   193   191    1
    92    98   101    1
    93   155   156    1
    94   191   192    1
    95   134   135    2
    96    91    90    2
    97   177   178    1
    98   140   141   ar
    99    39    40    2
   100    39    38    1
   101   139   141   ar
   102   101   103    1
   103   182   181    1
   104    90    89    1
   105   156   158    1
   106   178   181    1
   107   178   179    1
   108    38    41    1
   109    38    37    1
   110   119   118   ar
   111   179   180    2
   112    89    88    1
   113    89    92    1
   114   118   120   ar
   115   118   117    1
   116    77    78    1
   117    88    79   am
   118    84    86   ar
   119    84    82   ar
   120   117   116    2
   121    92    93    1
   122    86    87   ar
   123     9    11   ar
   124     9     7   ar
   125    11    10   ar
   126     7     6   ar
   127    10     8   ar
   128     6     8   ar
   129     6     5    1
   130    79    78    1
   131    79    80    2
   132    78    81    1
   133   116   113    1
   134   150   148   am
   135     5     2    1
   136    35    34    2
   137    81    82    1
   138   142   143    1
   139   147   148    1
   140   147   146    1
   141    82    83   ar
   142   113   112    1
   143   113   114    1
   144     1     2    1
   145   148   149    2
   146    87    85   ar
   147    93    94    1
   148     2     3    1
   149    23    22    1
   150   143   146    1
   151   143   144    1
   152    34    33    1
   153    22    21   ar
   154    22    20   ar
   155    21    19   ar
   156    83    85   ar
   157    20    18   ar
   158    94    95    1
   159    19    17   ar
   160   114   115    2
   161    33    36    1
   162    33    32    1
   163    18    17   ar
   164    17    16    1
   165    16    13    1
   166     3     4    2
   167   144   145    2
   168    95    96    1
   169    31    30    1
   170   130   129    1
   171    30    29    1
   172    29    28    1
   173    13    12    1
   174    13    14    1
   175    14    24   am
   176    14    15    2
   177    24    25    1
   178   129   131    1
   179   129   128    2
   180    28    25    1
   181    25    26    1
   182   128   127    1
   183    26    27    2
   184   127   126    1
   185   124   123    2
   186   126   125    1
   187   123   122    1
   188   125   122    1
   189   122   121    1
