@<TRIPOS>MOLECULE
tmp/6aylA01.pdb
 190 177 0 0 0
SMALL
GASTEIGER

@<TRIPOS>ATOM
      1  N         10.8480   -1.9400   20.7500 N.3    18  PHE18      -0.1241
      2  CA        10.0330   -0.7600   21.0280 C.3    18  PHE18       0.1605
      3  C          9.6620   -0.6420   22.5020 C.2    18  PHE18       0.2264
      4  O          9.7250    0.4620   23.0570 O.2    18  PHE18      -0.2867
      5  CB         8.7970   -0.7110   20.1060 C.3    18  PHE18       0.0534
      6  CG         8.1250    0.6440   20.0150 C.ar   18  PHE18      -0.0203
      7  CD1        8.8740    1.8030   19.7930 C.ar   18  PHE18      -0.0042
      8  CD2        6.7430    0.7570   20.0830 C.ar   18  PHE18      -0.0042
      9  CE1        8.2550    3.0450   19.6840 C.ar   18  PHE18      -0.0003
     10  CE2        6.1200    2.0070   19.9610 C.ar   18  PHE18      -0.0003
     11  CZ         6.8790    3.1380   19.7440 C.ar   18  PHE18      -0.0000
     12  N         12.8070    0.5580   24.3220 N.3    21  TYR21      -0.1227
     13  CA        13.0180    1.9600   23.9990 C.3    21  TYR21       0.1736
     14  C         12.0140    2.8380   24.7920 C.2    21  TYR21       0.2595
     15  O         12.4440    3.7830   25.4320 O.2    21  TYR21      -0.2718
     16  CB        12.9320    2.1670   22.4890 C.3    21  TYR21       0.0548
     17  CG        12.7420    3.6100   22.0930 C.ar   21  TYR21      -0.0200
     18  CD1       13.8220    4.4880   22.0490 C.ar   21  TYR21      -0.0009
     19  CD2       11.4750    4.1160   21.8200 C.ar   21  TYR21      -0.0009
     20  CE1       13.6460    5.8330   21.7290 C.ar   21  TYR21       0.0417
     21  CE2       11.2880    5.4650   21.5150 C.ar   21  TYR21       0.0417
     22  CZ        12.3800    6.3130   21.4470 C.ar   21  TYR21       0.1957
     23  OH        12.2040    7.6260   21.0970 O.3    21  TYR21      -0.2866
     24  N         10.7000    2.5030   24.8060 N.am   22  MET22      -0.1979
     25  CA         9.6950    3.2930   25.5590 C.3    22  MET22       0.1605
     26  C          9.9750    3.3310   27.0740 C.2    22  MET22       0.2287
     27  O          9.7910    4.3770   27.6920 O.2    22  MET22      -0.2864
     28  CB         8.2590    2.8170   25.3000 C.3    22  MET22       0.0413
     29  CG         7.7920    3.0150   23.8570 C.3    22  MET22       0.0598
     30  SD         6.0630    2.5640   23.7060 S.3    22  MET22      -0.1393
     31  CE         6.1970    0.7500   23.5900 C.3    22  MET22       0.0692
     32  N         12.5830    5.8280   27.6280 N.3    25  VAL25      -0.1245
     33  CA        12.0110    7.1790   27.4630 C.3    25  VAL25       0.1561
     34  C         11.2860    7.6110   28.7610 C.2    25  VAL25       0.2260
     35  O         11.2500    8.7870   29.0780 O.2    25  VAL25      -0.2867
     36  CB        11.1220    7.2870   26.1870 C.3    25  VAL25       0.0252
     37  CG1       10.2910    8.5680   26.1570 C.3    25  VAL25       0.0019
     38  CG2       11.9720    7.1910   24.9200 C.3    25  VAL25       0.0019
     39  N          8.0920    6.0900   29.4120 N.3    27  VAL27      -0.1245
     40  CA         6.6830    5.7920   29.1340 C.3    27  VAL27       0.1561
     41  C          6.1960    4.7580   30.1550 C.2    27  VAL27       0.2260
     42  O          6.8850    3.7640   30.4050 O.2    27  VAL27      -0.2867
     43  CB         6.4660    5.3000   27.6620 C.3    27  VAL27       0.0252
     44  CG1        5.0030    4.9880   27.3950 C.3    27  VAL27       0.0019
     45  CG2        6.9510    6.3290   26.6680 C.3    27  VAL27       0.0019
     46  N          0.5220    2.5940   28.8950 N.3    31  THR31      -0.1218
     47  CA         0.7630    3.2580   27.6170 C.3    31  THR31       0.1862
     48  C          1.7430    2.4520   26.7470 C.2    31  THR31       0.2287
     49  O          1.5280    2.3880   25.5420 O.2    31  THR31      -0.2866
     50  CB         1.1960    4.7230   27.8180 C.3    31  THR31       0.1770
     51  OG1        0.2290    5.3910   28.6260 O.3    31  THR31      -0.2211
     52  CG2        1.3590    5.4730   26.5050 C.3    31  THR31       0.0375
     53  N         -0.1840   -0.5600   25.3070 N.3    34  VAL34      -0.1231
     54  CA        -1.1480   -0.0370   24.3280 C.3    34  VAL34       0.1692
     55  C         -0.4370    0.3630   23.0340 C.2    34  VAL34       0.2591
     56  O         -0.8970    0.0020   21.9520 O.2    34  VAL34      -0.2718
     57  CB        -2.0320    1.1070   24.9280 C.3    34  VAL34       0.0266
     58  CG1       -2.6600    1.9910   23.8420 C.3    34  VAL34       0.0020
     59  CG2       -3.1110    0.5390   25.8300 C.3    34  VAL34       0.0020
     60  N          0.6690    1.1100   23.1500 N.am   35  ALA35      -0.1980
     61  CA         1.4770    1.5480   22.0150 C.3    35  ALA35       0.1597
     62  C          2.1620    0.3790   21.3560 C.2    35  ALA35       0.2287
     63  O          2.2520    0.3550   20.1420 O.2    35  ALA35      -0.2864
     64  CB         2.5150    2.5810   22.4480 C.3    35  ALA35       0.0319
     65  N         -0.3390   -1.5600   18.9430 N.3    38  ALA38      -0.1245
     66  CA        -0.8060   -0.8020   17.7810 C.3    38  ALA38       0.1562
     67  C         -0.0260   -1.0860   16.4890 C.2    38  ALA38       0.2260
     68  O          1.1910   -1.2820   16.5210 O.2    38  ALA38      -0.2867
     69  CB        -0.8170    0.6850   18.1060 C.3    38  ALA38       0.0290
     70  N         -1.0950    9.8090   12.2470 N.3    55  SER55      -0.1217
     71  CA        -0.9860    8.3740   12.5270 C.3    55  SER55       0.1889
     72  C         -2.3950    7.8700   12.8750 C.2    55  SER55       0.2288
     73  O         -3.1340    8.5580   13.5900 O.2    55  SER55      -0.2866
     74  CB        -0.0410    8.1190   13.6960 C.3    55  SER55       0.2089
     75  OG        -0.7740    8.3260   14.8910 O.3    55  SER55      -0.2183
     76  N         -4.4800    4.4020   14.3610 N.3    57  SER57      -0.1217
     77  CA        -4.4860    3.0460   14.9270 C.3    57  SER57       0.1889
     78  C         -5.6890    2.8730   15.8490 C.2    57  SER57       0.2288
     79  O         -6.3430    3.8530   16.2030 O.2    57  SER57      -0.2866
     80  CB        -3.1870    2.7580   15.6830 C.3    57  SER57       0.2089
     81  OG        -3.1150    3.5050   16.8860 O.3    57  SER57      -0.2183
     82  N         -5.4760    2.1940   18.8590 N.3    59  PHE59      -0.1227
     83  CA        -4.9990    2.8640   20.0590 C.3    59  PHE59       0.1736
     84  C         -5.3360    4.3510   20.0290 C.2    59  PHE59       0.2595
     85  O         -5.8760    4.8550   21.0130 O.2    59  PHE59      -0.2718
     86  CB        -3.4830    2.6850   20.2060 C.3    59  PHE59       0.0547
     87  CG        -3.1690    1.2240   20.4260 C.ar   59  PHE59      -0.0202
     88  CD1       -3.4900    0.6440   21.6370 C.ar   59  PHE59      -0.0042
     89  CD2       -2.5970    0.4640   19.4300 C.ar   59  PHE59      -0.0042
     90  CE1       -3.2660   -0.7120   21.8190 C.ar   59  PHE59      -0.0003
     91  CE2       -2.3820   -0.8640   19.6360 C.ar   59  PHE59      -0.0003
     92  CZ        -2.7020   -1.4470   20.8320 C.ar   59  PHE59      -0.0000
     93  N         -5.0160    5.0570   18.9130 N.am   60  LYS60      -0.1980
     94  CA        -5.2280    6.5040   18.7850 C.3    60  LYS60       0.1596
     95  C         -5.2810    7.0190   17.3260 C.2    60  LYS60       0.2287
     96  O         -5.2270    6.2610   16.3580 O.2    60  LYS60      -0.2864
     97  CB        -4.0910    7.2460   19.5320 C.3    60  LYS60       0.0298
     98  CG        -4.4640    7.7960   20.8950 C.3    60  LYS60       0.0038
     99  CD        -3.2440    7.8250   21.7980 C.3    60  LYS60       0.0206
    100  CE        -3.5880    7.8790   23.2730 C.3    60  LYS60       0.1093
    101  NZ        -4.2360    6.6290   23.7580 N.3    60  LYS60      -0.1314
    102  N         -3.3930   10.5320   15.7490 N.3    62  THR62      -0.1218
    103  CA        -2.5860   11.7110   16.0830 C.3    62  THR62       0.1862
    104  C         -2.2810   12.4910   14.8290 C.2    62  THR62       0.2287
    105  O         -2.3420   11.9440   13.7270 O.2    62  THR62      -0.2866
    106  CB        -1.2960   11.3800   16.8670 C.3    62  THR62       0.1770
    107  OG1       -0.3840   10.6850   16.0150 O.3    62  THR62      -0.2211
    108  CG2       -1.5480   10.6030   18.1550 C.3    62  THR62       0.0375
    109  N          0.4670   15.8130   13.6510 N.3    64  ILE64      -0.1245
    110  CA         1.4310   16.8740   13.9280 C.3    64  ILE64       0.1561
    111  C          1.7040   17.5980   12.6210 C.2    64  ILE64       0.2260
    112  O          1.8210   16.9550   11.5720 O.2    64  ILE64      -0.2867
    113  CB         2.7250   16.3990   14.6570 C.3    64  ILE64       0.0252
    114  CG1        3.5070   15.3520   13.8450 C.3    64  ILE64       0.0019
    115  CG2        2.4160   15.8940   16.1000 C.3    64  ILE64       0.0019
    116  CD1        4.9780   15.1660   14.2390 C.3    64  ILE64       0.0001
    117  N          4.3260   19.2260   21.0490 N.3    74  GLU74      -0.1182
    118  CA         3.8170   17.9190   20.6470 C.3    74  GLU74       0.1915
    119  C          3.2100   17.2710   21.8910 C.2    74  GLU74       0.2634
    120  O          3.7370   17.4570   22.9850 O.2    74  GLU74      -0.2714
    121  CB         4.9810   17.0570   20.0850 C.2    74  GLU74       0.0085
    122  CG         4.5710   15.7190   19.4710 C.2    74  GLU74       0.0835
    123  CD         5.6650   14.8930   18.8180 C.2    74  GLU74       0.3877
    124  OE1        5.3290   13.9520   18.0640 O.co2  74  GLU74      -0.2406
    125  OE2        6.8570   15.1620   19.0740 O.co2  74  GLU74      -0.2406
    126  N          2.1110   16.5110   21.7220 N.am   75  VAL75      -0.1963
    127  CA         1.4260   15.8300   22.8240 C.3    75  VAL75       0.1727
    128  C          1.7450   14.3290   22.8530 C.2    75  VAL75       0.2617
    129  O          1.7880   13.6790   21.8040 O.2    75  VAL75      -0.2715
    130  CB        -0.1040   16.1000   22.8640 C.3    75  VAL75       0.0290
    131  CG1       -0.4100   17.5160   23.3420 C.3    75  VAL75       0.0023
    132  CG2       -0.7660   15.8280   21.5090 C.3    75  VAL75       0.0023
    133  N          1.9570   13.7840   24.0660 N.am   76  THR76      -0.1937
    134  CA         2.2350   12.3580   24.2880 C.3    76  THR76       0.2028
    135  C          1.4250   11.8120   25.4980 C.2    76  THR76       0.2642
    136  O          1.2380   12.5180   26.5000 O.2    76  THR76      -0.2714
    137  CB         3.7470   12.1010   24.5100 C.3    76  THR76       0.1808
    138  OG1        4.1860   12.8220   25.6650 O.3    76  THR76      -0.2208
    139  CG2        4.6080   12.4260   23.2900 C.3    76  THR76       0.0379
    140  N          1.0270   10.5300   25.4270 N.am   77  ALA77      -0.1963
    141  CA         0.3050    9.8530   26.5000 C.3    77  ALA77       0.1728
    142  C          1.2450    9.3820   27.6630 C.2    77  ALA77       0.2616
    143  O          1.1080    8.2680   28.1820 O.2    77  ALA77      -0.2715
    144  CB        -0.5180    8.6960   25.9370 C.3    77  ALA77       0.0334
    145  N          2.1630   10.2640   28.0950 N.am   78  ASP78      -0.1971
    146  CA         3.0850   10.0160   29.2110 C.3    78  ASP78       0.1709
    147  C          3.2340   11.2740   30.0840 C.2    78  ASP78       0.2293
    148  O          2.6670   12.3140   29.7440 O.2    78  ASP78      -0.2864
    149  CB         4.4450    9.5170   28.6950 C.3    78  ASP78       0.1436
    150  CG         5.2800    8.9360   29.8330 C.2    78  ASP78       0.3671
    151  OD1        4.8220    8.2200   30.7150 O.co2  78  ASP78      -0.2456
    152  OD2        6.4890    9.3270   29.8260 O.co2  78  ASP78      -0.2456
    153  N          5.3860   13.3540   30.2180 N.3    80  ARG80      -0.1245
    154  CA         6.2120   14.3060   29.4840 C.3    80  ARG80       0.1563
    155  C          5.4340   15.2280   28.5330 C.2    80  ARG80       0.2260
    156  O          4.5940   14.7620   27.7540 O.2    80  ARG80      -0.2867
    157  CB         7.3380   13.5780   28.7310 C.3    80  ARG80       0.0307
    158  CG         6.9080   12.3250   27.9720 C.3    80  ARG80       0.0489
    159  CD         8.0800   11.6740   27.2560 C.3    80  ARG80       0.2205
    160  NE         7.6500   11.1720   25.9550 N.pl3  80  ARG80      -0.0865
    161  CZ         8.3520   11.2680   24.8330 C.cat  80  ARG80       0.5346
    162  NH1        7.8620   10.8020   23.7000 N.pl3  80  ARG80       0.1354
    163  NH2        9.5630   11.8150   24.8400 N.pl3  80  ARG80       0.1354
    164  N         13.7670   13.7060   13.9840 N.3    95  HIS95      -0.1241
    165  CA        12.7710   14.2420   14.9150 C.3    95  HIS95       0.1621
    166  C         13.3460   14.1710   16.3150 C.2    95  HIS95       0.2264
    167  O         13.4720   13.0780   16.8710 O.2    95  HIS95      -0.2867
    168  CB        11.4570   13.4200   14.7770 C.3    95  HIS95       0.0745
    169  CG        10.3250   13.7960   15.6930 C.ar   95  HIS95       0.0817
    170  ND1        9.0720   13.2010   15.5590 N.ar   95  HIS95      -0.2268
    171  CD2       10.2660   14.7070   16.6970 C.ar   95  HIS95       0.1154
    172  CE1        8.3070   13.7710   16.4750 C.ar   95  HIS95       0.1986
    173  NE2        8.9800   14.6750   17.1860 N.ar   95  HIS95      -0.2212
    174  N         12.7780   15.0940   20.2150 N.3    97  GLN97      -0.1245
    175  CA        11.7880   15.3970   21.2510 C.3    97  GLN97       0.1566
    176  C         12.5770   15.7020   22.5240 C.2    97  GLN97       0.2260
    177  O         13.3940   14.8770   22.9230 O.2    97  GLN97      -0.2867
    178  CB        10.8740   14.2000   21.4980 C.3    97  GLN97       0.0367
    179  CG         9.9510   13.8260   20.3430 C.3    97  GLN97       0.0905
    180  CD         9.0690   12.6660   20.7500 C.2    97  GLN97       0.2608
    181  OE1        9.4100   11.8850   21.6410 O.2    97  GLN97      -0.2717
    182  NE2        7.9350   12.5090   20.0910 N.am   97  GLN97      -0.0878
    183  N         14.0650   10.3310   16.7910 N.3   106  ILE106     -0.1245
    184  CA        13.3310    9.4100   15.9150 C.3   106  ILE106      0.1561
    185  C         13.7650    9.7600   14.4820 C.2   106  ILE106      0.2260
    186  O         13.5000   10.8570   14.0060 O.2   106  ILE106     -0.2867
    187  CB        11.7850    9.5630   16.1100 C.3   106  ILE106      0.0252
    188  CG1       11.3770    9.2840   17.5930 C.3   106  ILE106      0.0019
    189  CG2       11.0000    8.6560   15.1230 C.3   106  ILE106      0.0019
    190  CD1        9.9900    9.8550   17.9820 C.3   106  ILE106      0.0001
@<TRIPOS>BOND
     1   112   111    2
     2    70    71    1
     3    71    72    1
     4    71    74    1
     5   111   110    1
     6    72    73    2
     7   109   110    1
     8    74    75    1
     9   105   104    2
    10   114   116    1
    11   114   113    1
    12   110   113    1
    13   164   165    1
    14   186   185    2
    15    76    77    1
    16   185   184    1
    17   113   115    1
    18   168   165    1
    19   168   169    1
    20   104   103    1
    21   165   166    1
    22    77    80    1
    23    77    78    1
    24   189   187    1
    25   170   169   ar
    26   170   172   ar
    27    80    81    1
    28   169   171   ar
    29   102   103    1
    30    78    79    2
    31   184   187    1
    32   184   183    1
    33   107   106    1
    34   103   106    1
    35   187   188    1
    36   166   167    2
    37    96    95    2
    38   172   173   ar
    39    67    68    2
    40    67    66    1
    41   171   173   ar
    42   106   108    1
    43    95    94    1
    44   188   190    1
    45    66    69    1
    46    66    65    1
    47   124   123   ar
    48    94    93    1
    49    94    97    1
    50   123   125   ar
    51   123   122    1
    52    82    83    1
    53    93    84   am
    54    89    91   ar
    55    89    87   ar
    56   122   121    2
    57    97    98    1
    58    91    92   ar
    59     9    11   ar
    60     9     7   ar
    61    11    10   ar
    62     7     6   ar
    63    10     8   ar
    64     6     8   ar
    65     6     5    1
    66    84    83    1
    67    84    85    2
    68    83    86    1
    69   121   118    1
    70   182   180   am
    71     5     2    1
    72    63    62    2
    73    86    87    1
    74   174   175    1
    75   179   180    1
    76   179   178    1
    77    87    88   ar
    78   118   117    1
    79   118   119    1
    80   180   181    2
    81     1     2    1
    82    92    90   ar
    83    98    99    1
    84     2     3    1
    85    23    22    1
    86   175   178    1
    87   175   176    1
    88    62    61    1
    89    22    21   ar
    90    22    20   ar
    91   132   130    1
    92    21    19   ar
    93    88    90   ar
    94   126   119   am
    95   126   127    1
    96    20    18   ar
    97    99   100    1
    98   129   128    2
    99    19    17   ar
   100   119   120    2
   101    56    55    2
   102    61    64    1
   103    61    60    1
   104    18    17   ar
   105    17    16    1
   106    16    13    1
   107     3     4    2
   108   176   177    2
   109   127   128    1
   110   127   130    1
   111   128   133   am
   112   130   131    1
   113    55    60   am
   114    55    54    1
   115   100   101    1
   116   139   137    1
   117    31    30    1
   118   162   161    1
   119    30    29    1
   120    58    57    1
   121    29    28    1
   122    13    12    1
   123    13    14    1
   124   133   134    1
   125   134   137    1
   126   134   135    1
   127    54    57    1
   128    54    53    1
   129   137   138    1
   130    14    24   am
   131    14    15    2
   132    24    25    1
   133   161   163    1
   134   161   160    2
   135    38    36    1
   136    57    59    1
   137    28    25    1
   138   140   135   am
   139   140   141    1
   140   135   136    2
   141    49    48    2
   142    25    26    1
   143   144   141    1
   144   160   159    1
   145    37    36    1
   146    36    33    1
   147   141   142    1
   148    52    50    1
   149    45    43    1
   150    48    47    1
   151    26    27    2
   152   159   158    1
   153    44    43    1
   154    33    32    1
   155    33    34    1
   156    47    50    1
   157    47    46    1
   158    43    40    1
   159   142   145   am
   160   142   143    2
   161   156   155    2
   162    50    51    1
   163   158   157    1
   164   145   146    1
   165   155   154    1
   166   149   146    1
   167   149   150    1
   168   157   154    1
   169    34    35    2
   170    40    39    1
   171    40    41    1
   172   146   147    1
   173   154   153    1
   174   148   147    2
   175   152   150   ar
   176   150   151   ar
   177    41    42    2
