@<TRIPOS>MOLECULE
tmp/6ayoA00.pdb
 147 139 0 0 0
SMALL
GASTEIGER

@<TRIPOS>ATOM
      1  N        -31.9460   -2.1640   95.2110 N.3     9  ALA9       -0.1231
      2  CA       -32.3930   -1.6610   96.5090 C.3     9  ALA9        0.1694
      3  C        -33.8920   -1.8660   96.7370 C.2     9  ALA9        0.2591
      4  O        -34.3100   -2.1710   97.8540 O.2     9  ALA9       -0.2718
      5  CB       -32.0400   -0.1910   96.6580 C.3     9  ALA9        0.0304
      6  N        -34.6860   -1.7010   95.6820 N.am   10  MET10      -0.1979
      7  CA       -36.1480   -1.7310   95.7790 C.3    10  MET10       0.1605
      8  C        -36.7330   -2.8380   94.9020 C.2    10  MET10       0.2287
      9  O        -36.1170   -3.2650   93.9310 O.2    10  MET10      -0.2864
     10  CB       -36.7140   -0.3800   95.3360 C.3    10  MET10       0.0413
     11  CG       -36.2290    0.8060   96.1440 C.3    10  MET10       0.0598
     12  SD       -36.8050    2.3510   95.4130 S.3    10  MET10      -0.1393
     13  CE       -38.5340    2.2960   95.8400 C.3    10  MET10       0.0692
     14  N        -36.6300   -2.4200   91.1280 N.3    13  GLU13      -0.1245
     15  CA       -35.3440   -2.6140   90.4700 C.3    13  GLU13       0.1567
     16  C        -35.0340   -4.0840   90.1470 C.2    13  GLU13       0.2260
     17  O        -34.2270   -4.3470   89.2660 O.2    13  GLU13      -0.2867
     18  CB       -34.2320   -1.9770   91.3170 C.3    13  GLU13       0.0388
     19  CG       -34.4150   -0.4630   91.4390 C.3    13  GLU13       0.1160
     20  CD       -33.5290    0.2010   92.4790 C.2    13  GLU13       0.3649
     21  OE1      -33.2690   -0.4130   93.5330 O.co2  13  GLU13      -0.2457
     22  OE2      -33.1270    1.3750   92.2490 O.co2  13  GLU13      -0.2457
     23  N        -33.8730   -0.0870  101.2080 N.3    51  ILE51      -0.1245
     24  CA       -33.1730    1.1660  100.9100 C.3    51  ILE51       0.1561
     25  C        -32.0250    1.4360  101.8820 C.2    51  ILE51       0.2260
     26  O        -32.1570    1.2030  103.0810 O.2    51  ILE51      -0.2867
     27  CB       -34.1770    2.3420  100.9380 C.3    51  ILE51       0.0252
     28  CG1      -35.1400    2.2140   99.7480 C.3    51  ILE51       0.0019
     29  CG2      -33.4640    3.6940  100.9390 C.3    51  ILE51       0.0019
     30  CD1      -36.3870    3.0680   99.8470 C.3    51  ILE51       0.0001
     31  N        -31.7640    2.6410   89.9950 N.3    77  VAL77      -0.1231
     32  CA       -31.9060    4.0100   89.5190 C.3    77  VAL77       0.1692
     33  C        -31.0730    4.9670   90.3740 C.2    77  VAL77       0.2592
     34  O        -30.5380    4.5760   91.4170 O.2    77  VAL77      -0.2718
     35  CB       -33.3980    4.4370   89.4360 C.3    77  VAL77       0.0266
     36  CG1      -34.1700    3.4700   88.5470 C.3    77  VAL77       0.0020
     37  CG2      -34.0630    4.5310   90.8030 C.3    77  VAL77       0.0020
     38  N        -30.9490    6.2080   89.9120 N.am   78  ALA78      -0.1966
     39  CA       -30.1560    7.2210   90.6060 C.3    78  ALA78       0.1728
     40  C        -30.6190    8.6290   90.2720 C.2    78  ALA78       0.2616
     41  O        -31.3910    8.8390   89.3280 O.2    78  ALA78      -0.2715
     42  CB       -28.6820    7.0610   90.2570 C.3    78  ALA78       0.0334
     43  N        -30.1380    9.5810   91.0680 N.am   79  GLY79      -0.1955
     44  CA       -30.3750   11.0020   90.8420 C.3    79  GLY79       0.1869
     45  C        -29.2240   11.6130   90.0760 C.2    79  GLY79       0.2309
     46  O        -28.0820   11.5210   90.5110 O.2    79  GLY79      -0.2863
     47  N        -29.4430    9.8020  102.3980 N.3   151  GLU151     -0.1231
     48  CA       -30.4790   10.8070  102.1930 C.3   151  GLU151      0.1699
     49  C        -30.9480   10.7790  100.7440 C.2   151  GLU151      0.2592
     50  O        -30.1410   10.6130   99.8380 O.2   151  GLU151     -0.2718
     51  CB       -29.9300   12.1920  102.5370 C.3   151  GLU151      0.0402
     52  CG       -30.9690   13.2950  102.4920 C.3   151  GLU151      0.1161
     53  CD       -30.4120   14.6570  102.8520 C.2   151  GLU151      0.3649
     54  OE1      -29.2110   14.8020  103.1860 O.co2 151  GLU151     -0.2457
     55  OE2      -31.2020   15.6150  102.7890 O.co2 151  GLU151     -0.2457
     56  N        -32.2520   10.9340  100.5300 N.am  152  PHE152     -0.1962
     57  CA       -32.7840   11.2040   99.2010 C.3   152  PHE152      0.1771
     58  C        -32.5280   12.6790   98.9000 C.2   152  PHE152      0.2619
     59  O        -33.0580   13.5550   99.5940 O.2   152  PHE152     -0.2715
     60  CB       -34.2820   10.9050   99.1160 C.3   152  PHE152      0.0574
     61  CG       -34.8510   11.1050   97.7400 C.ar  152  PHE152     -0.0200
     62  CD1      -34.7160   10.1220   96.7690 C.ar  152  PHE152     -0.0042
     63  CD2      -35.4960   12.2910   97.4050 C.ar  152  PHE152     -0.0042
     64  CE1      -35.2240   10.3040   95.4930 C.ar  152  PHE152     -0.0003
     65  CE2      -36.0120   12.4800   96.1210 C.ar  152  PHE152     -0.0003
     66  CZ       -35.8790   11.4880   95.1710 C.ar  152  PHE152     -0.0000
     67  N        -31.7210   12.9480   97.8800 N.am  153  ILE153     -0.1977
     68  CA       -31.3090   14.3170   97.5590 C.3   153  ILE153      0.1596
     69  C        -32.3580   14.9490   96.6410 C.2   153  ILE153      0.2287
     70  O        -32.6610   14.4200   95.5770 O.2   153  ILE153     -0.2864
     71  CB       -29.9220   14.3440   96.8900 C.3   153  ILE153      0.0276
     72  CG1      -28.8630   13.6660   97.7750 C.3   153  ILE153      0.0022
     73  CG2      -29.4980   15.7600   96.5400 C.3   153  ILE153      0.0022
     74  CD1      -28.6560   14.2940   99.1330 C.3   153  ILE153      0.0001
     75  N        -26.1270   10.5550   92.2930 N.3   171  CYS171     -0.1221
     76  CA       -26.2320   10.1220   93.6840 C.3   171  CYS171      0.1808
     77  C        -27.2250    8.9940   93.8510 C.2   171  CYS171      0.2601
     78  O        -28.1500    8.8130   93.0430 O.2   171  CYS171     -0.2717
     79  CB       -26.6180   11.2780   94.6090 C.3   171  CYS171      0.0970
     80  SG       -28.2870   11.9260   94.3410 S.3   171  CYS171     -0.0800
     81  N        -27.0200    8.2320   94.9200 N.am  172  GLU172     -0.1965
     82  CA       -27.9260    7.1530   95.3040 C.3   172  GLU172      0.1733
     83  C        -27.5880    6.7480   96.7420 C.2   172  GLU172      0.2616
     84  O        -26.8250    7.4580   97.4020 O.2   172  GLU172     -0.2715
     85  CB       -27.9170    6.0080   94.2660 C.3   172  GLU172      0.0429
     86  CG       -26.5960    5.7260   93.5590 C.3   172  GLU172      0.1163
     87  CD       -25.7290    4.7530   94.3070 C.2   172  GLU172      0.3649
     88  OE1      -25.2420    3.7890   93.6640 O.co2 172  GLU172     -0.2457
     89  OE2      -25.5480    4.9240   95.5360 O.co2 172  GLU172     -0.2457
     90  N        -28.1620    5.6560   97.2420 N.am  173  MET173     -0.1963
     91  CA       -28.0950    5.3540   98.6700 C.3   173  MET173      0.1736
     92  C        -27.4940    3.9710   98.9720 C.2   173  MET173      0.2616
     93  O        -27.5530    3.5220  100.1160 O.2   173  MET173     -0.2715
     94  CB       -29.5080    5.4960   99.2720 C.3   173  MET173      0.0427
     95  CG       -30.1370    6.8690   99.0420 C.3   173  MET173      0.0599
     96  SD       -31.8250    7.0550   99.6500 S.3   173  MET173     -0.1393
     97  CE       -31.5950    6.8380  101.4000 C.3   173  MET173      0.0692
     98  N        -26.8930    3.3200   97.9670 N.am  174  GLU174     -0.1977
     99  CA       -26.4040    1.9310   98.1180 C.3   174  GLU174      0.1602
    100  C        -25.0770    1.5600   97.4340 C.2   174  GLU174      0.2287
    101  O        -24.4770    0.5450   97.7880 O.2   174  GLU174     -0.2864
    102  CB       -27.4570    0.9450   97.6160 C.3   174  GLU174      0.0415
    103  CG       -28.8210    1.0390   98.2960 C.3   174  GLU174      0.1163
    104  CD       -29.7480    2.1140   97.7350 C.2   174  GLU174      0.3649
    105  OE1      -29.4810    2.7080   96.6560 O.co2 174  GLU174     -0.2457
    106  OE2      -30.7750    2.3710   98.3980 O.co2 174  GLU174     -0.2457
    107  N        -26.6030    2.3220   87.0910 N.3   193  ARG193     -0.1245
    108  CA       -27.7570    3.1120   87.4870 C.3   193  ARG193      0.1563
    109  C        -28.3730    3.7910   86.2680 C.2   193  ARG193      0.2260
    110  O        -27.6540    4.3370   85.4320 O.2   193  ARG193     -0.2867
    111  CB       -27.3490    4.1820   88.5050 C.3   193  ARG193      0.0307
    112  CG       -26.7850    3.6480   89.8180 C.3   193  ARG193      0.0489
    113  CD       -27.8320    2.9300   90.6450 C.3   193  ARG193      0.2205
    114  NE       -27.4400    2.7660   92.0520 N.pl3 193  ARG193     -0.0865
    115  CZ       -28.2840    2.5920   93.0770 C.cat 193  ARG193      0.5346
    116  NH1      -29.6030    2.5520   92.9060 N.pl3 193  ARG193      0.1354
    117  NH2      -27.8100    2.4370   94.3110 N.pl3 193  ARG193      0.1354
    118  N        -33.4580    8.3890   87.3080 N.3   196  SER196     -0.1202
    119  CA       -34.8990    8.5420   87.5680 C.3   196  SER196      0.2020
    120  C        -35.3260    9.9910   87.8150 C.2   196  SER196      0.2618
    121  O        -36.5260   10.2930   87.8130 O.2   196  SER196     -0.2717
    122  CB       -35.2930    7.7140   88.7800 C.3   196  SER196      0.2103
    123  OG       -34.5140    8.0780   89.9050 O.3   196  SER196     -0.2182
    124  N        -34.3580   10.8730   88.0450 N.am  197  ASP197     -0.1973
    125  CA       -34.6180   12.2590   88.4420 C.3   197  ASP197      0.1709
    126  C        -33.3110   13.0350   88.4110 C.2   197  ASP197      0.2293
    127  O        -32.2520   12.4560   88.1680 O.2   197  ASP197     -0.2864
    128  CB       -35.2630   12.3190   89.8420 C.3   197  ASP197      0.1436
    129  CG       -34.3900   11.7150   90.9160 C.2   197  ASP197      0.3671
    130  OD1      -33.5630   12.4500   91.4930 O.co2 197  ASP197     -0.2456
    131  OD2      -34.5410   10.5020   91.2000 O.co2 197  ASP197     -0.2456
    132  N        -32.3700   15.1120   91.0630 N.3   199  ALA199     -0.1245
    133  CA       -31.9290   15.3370   92.4450 C.3   199  ALA199      0.1562
    134  C        -32.0270   16.7840   92.9370 C.2   199  ALA199      0.2260
    135  O        -31.2790   17.1870   93.8320 O.2   199  ALA199     -0.2867
    136  CB       -30.5050   14.8130   92.6180 C.3   199  ALA199      0.0290
    137  N        -38.9180   11.0890   90.4170 N.3   207  PHE207     -0.1241
    138  CA       -38.6320    9.7140   90.8250 C.3   207  PHE207      0.1605
    139  C        -39.8780    8.8410   90.6980 C.2   207  PHE207      0.2264
    140  O        -39.8330    7.7840   90.0860 O.2   207  PHE207     -0.2867
    141  CB       -38.0880    9.6470   92.2560 C.3   207  PHE207      0.0534
    142  CG       -37.9600    8.2440   92.7780 C.ar  207  PHE207     -0.0203
    143  CD1      -36.8150    7.5010   92.5330 C.ar  207  PHE207     -0.0042
    144  CD2      -39.0060    7.6510   93.4750 C.ar  207  PHE207     -0.0042
    145  CE1      -36.7100    6.1970   92.9950 C.ar  207  PHE207     -0.0003
    146  CE2      -38.9050    6.3490   93.9370 C.ar  207  PHE207     -0.0003
    147  CZ       -37.7580    5.6180   93.6910 C.ar  207  PHE207     -0.0000
@<TRIPOS>BOND
     1   110   109    2
     2   109   108    1
     3   107   108    1
     4   118   119    1
     5   108   111    1
     6   119   120    1
     7   119   122    1
     8   121   120    2
     9   120   124   am
    10   124   125    1
    11   127   126    2
    12   126   125    1
    13   125   128    1
    14   111   112    1
    15    36    35    1
    16   122   123    1
    17    17    16    2
    18    41    40    2
    19    35    32    1
    20    35    37    1
    21    32    31    1
    22    32    33    1
    23   112   113    1
    24   128   129    1
    25    38    33   am
    26    38    39    1
    27    45    46    2
    28    45    44    1
    29   140   139    2
    30    16    15    1
    31    42    39    1
    32    40    39    1
    33    40    43   am
    34    33    34    2
    35   137   138    1
    36    15    14    1
    37    15    18    1
    38   113   114    1
    39   139   138    1
    40   138   141    1
    41    44    43    1
    42   129   131   ar
    43   129   130   ar
    44   132   133    1
    45    18    19    1
    46    19    20    1
    47   114   115    2
    48    22    20   ar
    49   141   142    1
    50    75    76    1
    51   133   136    1
    52   133   134    1
    53    20    21   ar
    54   143   142   ar
    55   143   145   ar
    56   142   144   ar
    57   116   115    1
    58   134   135    2
    59   145   147   ar
    60    78    77    2
    61   115   117    1
    62   144   146   ar
    63    86    85    1
    64    86    87    1
    65    88    87   ar
    66    76    77    1
    67    76    79    1
    68   147   146   ar
    69    77    81   am
    70     9     8    2
    71    85    82    1
    72    87    89   ar
    73    80    79    1
    74     8     7    1
    75    81    82    1
    76    66    64   ar
    77    66    65   ar
    78     1     2    1
    79    82    83    1
    80    10     7    1
    81    10    11    1
    82    12    13    1
    83    12    11    1
    84    64    62   ar
    85    70    69    2
    86     6     7    1
    87     6     3   am
    88    65    63   ar
    89     2     5    1
    90     2     3    1
    91    73    71    1
    92    69    68    1
    93   105   104   ar
    94     3     4    2
    95    83    90   am
    96    83    84    2
    97    62    61   ar
    98    71    68    1
    99    71    72    1
   100    90    91    1
   101    63    61   ar
   102   100   101    2
   103   100    99    1
   104    68    67    1
   105   102    99    1
   106   102   103    1
   107   104   103    1
   108   104   106   ar
   109    61    60    1
   110    72    74    1
   111    67    58   am
   112    98    99    1
   113    98    92   am
   114    91    92    1
   115    91    94    1
   116    58    57    1
   117    58    59    2
   118    92    93    2
   119    95    94    1
   120    95    96    1
   121    60    57    1
   122    57    56    1
   123    96    97    1
   124    28    30    1
   125    28    27    1
   126    50    49    2
   127    56    49   am
   128    49    48    1
   129    24    27    1
   130    24    23    1
   131    24    25    1
   132    27    29    1
   133    25    26    2
   134    48    47    1
   135    48    51    1
   136    52    51    1
   137    52    53    1
   138    55    53   ar
   139    53    54   ar
