@<TRIPOS>MOLECULE
tmp/6ayqB00.pdb
 147 139 0 0 0
SMALL
GASTEIGER

@<TRIPOS>ATOM
      1  N         -0.8350   -0.2650   53.1230 N.3     8  ALA8       -0.1231
      2  CA        -1.1550   -0.9920   51.8910 C.3     8  ALA8        0.1694
      3  C         -2.6410   -1.3260   51.7780 C.2     8  ALA8        0.2591
      4  O         -3.2070   -1.2570   50.6940 O.2     8  ALA8       -0.2718
      5  CB        -0.3110   -2.2610   51.7890 C.3     8  ALA8        0.0304
      6  N         -3.2640   -1.6910   52.9040 N.am    9  MET9       -0.1979
      7  CA        -4.6450   -2.1500   52.9200 C.3     9  MET9        0.1605
      8  C         -5.5200   -1.2200   53.7560 C.2     9  MET9        0.2287
      9  O         -5.0310   -0.5310   54.6550 O.2     9  MET9       -0.2864
     10  CB        -4.7120   -3.5540   53.5050 C.3     9  MET9        0.0413
     11  CG        -3.9140   -4.5910   52.7360 C.3     9  MET9        0.0598
     12  SD        -3.9090   -6.1790   53.5800 S.3     9  MET9       -0.1393
     13  CE        -5.6110   -6.7120   53.3990 C.3     9  MET9        0.0692
     14  N         -5.1430   -1.1180   57.5140 N.3    12  GLU12      -0.1245
     15  CA        -3.9680   -0.4610   58.0560 C.3    12  GLU12       0.1567
     16  C         -4.1220    1.0600   58.2460 C.2    12  GLU12       0.2260
     17  O         -3.3450    1.6740   58.9760 O.2    12  GLU12      -0.2867
     18  CB        -2.7510   -0.8010   57.1740 C.3    12  GLU12       0.0388
     19  CG        -2.4160   -2.2920   57.2370 C.3    12  GLU12       0.1160
     20  CD        -1.4080   -2.7620   56.2000 C.2    12  GLU12       0.3649
     21  OE1       -1.4210   -2.2260   55.0710 O.co2  12  GLU12      -0.2457
     22  OE2       -0.6220   -3.6870   56.5070 O.co2  12  GLU12      -0.2457
     23  N         -1.9960   -3.4930   47.4660 N.3    50  ILE50      -0.1245
     24  CA        -0.9180   -4.4020   47.8710 C.3    50  ILE50       0.1561
     25  C          0.2560   -4.3840   46.9060 C.2    50  ILE50       0.2260
     26  O          0.0810   -4.3580   45.6930 O.2    50  ILE50      -0.2867
     27  CB        -1.4670   -5.8380   48.0350 C.3    50  ILE50       0.0252
     28  CG1       -2.4220   -5.8690   49.2390 C.3    50  ILE50       0.0019
     29  CG2       -0.3550   -6.8660   48.2050 C.3    50  ILE50       0.0019
     30  CD1       -3.3430   -7.0540   49.2540 C.3    50  ILE50       0.0001
     31  N          1.1010   -4.2080   58.7650 N.3    76  VAL76      -0.1231
     32  CA         1.4170   -5.5060   59.3530 C.3    76  VAL76       0.1692
     33  C          2.5420   -6.2090   58.5790 C.2    76  VAL76       0.2592
     34  O          2.9280   -5.7730   57.4880 O.2    76  VAL76      -0.2718
     35  CB         0.1540   -6.3900   59.5150 C.3    76  VAL76       0.0266
     36  CG1       -0.8780   -5.6730   60.3750 C.3    76  VAL76       0.0020
     37  CG2       -0.4960   -6.7890   58.1890 C.3    76  VAL76       0.0020
     38  N          3.0960   -7.2700   59.1470 N.am   77  ALA77      -0.1966
     39  CA         4.1770   -8.0310   58.4820 C.3    77  ALA77       0.1728
     40  C          4.1810   -9.4820   58.9470 C.2    77  ALA77       0.2616
     41  O          3.5480   -9.8340   59.9630 O.2    77  ALA77      -0.2715
     42  CB         5.5420   -7.4040   58.7620 C.3    77  ALA77       0.0334
     43  N          4.8950  -10.3180   58.2020 N.am   78  GLY78      -0.1955
     44  CA         5.1480  -11.6980   58.5900 C.3    78  GLY78       0.1869
     45  C          6.4320  -11.8060   59.3730 C.2    78  GLY78       0.2309
     46  O          7.4720  -11.3860   58.8960 O.2    78  GLY78      -0.2863
     47  N          5.4290  -11.4330   46.9950 N.3   150  GLU150     -0.1231
     48  CA         4.7870  -12.7050   47.3350 C.3   150  GLU150      0.1699
     49  C          4.3300  -12.6810   48.7740 C.2   150  GLU150      0.2592
     50  O          5.0160  -12.1670   49.6370 O.2   150  GLU150     -0.2718
     51  CB         5.7660  -13.8620   47.1190 C.3   150  GLU150      0.0402
     52  CG         5.2050  -15.2540   47.3530 C.3   150  GLU150      0.1161
     53  CD         6.1590  -16.3480   46.8660 C.2   150  GLU150      0.3649
     54  OE1        7.2310  -16.0220   46.3130 O.co2 150  GLU150     -0.2457
     55  OE2        5.8470  -17.5490   47.0430 O.co2 150  GLU150     -0.2457
     56  N          3.1540  -13.2450   49.0490 N.am  151  PHE151     -0.1962
     57  CA         2.7760  -13.5350   50.4380 C.3   151  PHE151      0.1771
     58  C          3.5220  -14.8110   50.8330 C.2   151  PHE151      0.2619
     59  O          3.3400  -15.8540   50.1990 O.2   151  PHE151     -0.2715
     60  CB         1.2640  -13.7320   50.5920 C.3   151  PHE151      0.0574
     61  CG         0.8400  -13.9760   52.0140 C.ar  151  PHE151     -0.0200
     62  CD1        0.6800  -12.9280   52.9010 C.ar  151  PHE151     -0.0042
     63  CD2        0.6180  -15.2670   52.4670 C.ar  151  PHE151     -0.0042
     64  CE1        0.3020  -13.1530   54.2180 C.ar  151  PHE151     -0.0003
     65  CE2        0.2450  -15.5010   53.7830 C.ar  151  PHE151     -0.0003
     66  CZ         0.0720  -14.4460   54.6540 C.ar  151  PHE151     -0.0000
     67  N          4.3850  -14.7130   51.8440 N.am  152  ILE152     -0.1977
     68  CA         5.2440  -15.8370   52.2410 C.3   152  ILE152      0.1596
     69  C          4.5070  -16.6800   53.2790 C.2   152  ILE152      0.2287
     70  O          4.1110  -16.1790   54.3330 O.2   152  ILE152     -0.2864
     71  CB         6.5990  -15.3480   52.7960 C.3   152  ILE152      0.0276
     72  CG1        7.3230  -14.4660   51.7550 C.3   152  ILE152      0.0022
     73  CG2        7.4830  -16.5260   53.1950 C.3   152  ILE152      0.0022
     74  CD1        7.6340  -15.1270   50.4370 C.3   152  ILE152      0.0001
     75  N          8.9930  -10.0660   56.8810 N.3   170  CYS170     -0.1221
     76  CA         8.7290   -9.8250   55.4720 C.3   170  CYS170      0.1808
     77  C          7.4150   -9.0860   55.2680 C.2   170  CYS170      0.2601
     78  O          6.4910   -9.1280   56.1100 O.2   170  CYS170     -0.2717
     79  CB         8.6910  -11.1380   54.6810 C.3   170  CYS170      0.0970
     80  SG         7.3570  -12.2900   55.1250 S.3   170  CYS170     -0.0800
     81  N          7.3440   -8.4180   54.1250 N.am  171  GLU171     -0.1965
     82  CA         6.1410   -7.7070   53.7170 C.3   171  GLU171      0.1733
     83  C          6.2810   -7.3510   52.2400 C.2   171  GLU171      0.2616
     84  O          7.1990   -7.8580   51.5820 O.2   171  GLU171     -0.2715
     85  CB         5.8290   -6.5430   54.6820 C.3   171  GLU171      0.0429
     86  CG         7.0120   -5.7770   55.2620 C.3   171  GLU171      0.1163
     87  CD         7.4620   -4.6380   54.3890 C.2   171  GLU171      0.3649
     88  OE1        7.6100   -3.5040   54.9000 O.co2 171  GLU171     -0.2457
     89  OE2        7.6220   -4.8650   53.1670 O.co2 171  GLU171     -0.2457
     90  N          5.3560   -6.5610   51.6980 N.am  172  MET172     -0.1963
     91  CA         5.2840   -6.3740   50.2550 C.3   172  MET172      0.1736
     92  C          5.3690   -4.9190   49.7950 C.2   172  MET172      0.2616
     93  O          5.1340   -4.6470   48.6200 O.2   172  MET172     -0.2715
     94  CB         4.0060   -7.0530   49.7320 C.3   172  MET172      0.0427
     95  CG         3.9040   -8.5290   50.0840 C.3   172  MET172      0.0599
     96  SD         2.3420   -9.2910   49.6140 S.3   172  MET172     -0.1393
     97  CE         2.4960   -9.2140   47.8380 C.3   172  MET172      0.0692
     98  N          5.7570   -4.0100   50.6930 N.am  173  GLU173     -0.1977
     99  CA         5.7450   -2.5610   50.4020 C.3   173  GLU173      0.1602
    100  C          6.8710   -1.7310   51.0170 C.2   173  GLU173      0.2287
    101  O          7.0630   -0.5910   50.5910 O.2   173  GLU173     -0.2864
    102  CB         4.4240   -1.9470   50.8680 C.3   173  GLU173      0.0415
    103  CG         3.1440   -2.5750   50.3150 C.3   173  GLU173      0.1163
    104  CD         2.6740   -3.8540   51.0120 C.2   173  GLU173      0.3649
    105  OE1        3.1440   -4.2130   52.1290 O.co2 173  GLU173     -0.2457
    106  OE2        1.8050   -4.5250   50.4080 O.co2 173  GLU173     -0.2457
    107  N          5.9920   -1.9300   61.3150 N.3   192  ARG192     -0.1245
    108  CA         5.1480   -3.1000   61.0870 C.3   192  ARG192      0.1563
    109  C          4.8030   -3.7900   62.4080 C.2   192  ARG192      0.2260
    110  O          5.6800   -3.9790   63.2550 O.2   192  ARG192     -0.2867
    111  CB         5.8450   -4.1040   60.1450 C.3   192  ARG192      0.0307
    112  CG         6.1770   -3.5790   58.7370 C.3   192  ARG192      0.0489
    113  CD         4.9300   -3.2690   57.9290 C.3   192  ARG192      0.2205
    114  NE         5.2330   -3.1340   56.4950 N.pl3 192  ARG192     -0.0865
    115  CZ         4.3640   -3.3170   55.5030 C.cat 192  ARG192      0.5346
    116  NH1        3.1060   -3.6570   55.7380 N.pl3 192  ARG192      0.1354
    117  NH2        4.7330   -3.1290   54.2380 N.pl3 192  ARG192      0.1354
    118  N          1.4590   -9.8830   61.9940 N.3   195  SER195     -0.1202
    119  CA         0.1440  -10.5250   61.8340 C.3   195  SER195      0.2020
    120  C          0.2220  -12.0600   61.7350 C.2   195  SER195      0.2618
    121  O         -0.7960  -12.7450   61.8190 O.2   195  SER195     -0.2717
    122  CB        -0.5380   -9.9940   60.5770 C.3   195  SER195      0.2103
    123  OG         0.3070  -10.1570   59.4380 O.3   195  SER195     -0.2182
    124  N          1.4200  -12.5880   61.5130 N.am  196  ASP196     -0.1973
    125  CA         1.6340  -14.0090   61.2530 C.3   196  ASP196      0.1709
    126  C          3.1280  -14.3130   61.3080 C.2   196  ASP196      0.2293
    127  O          3.9410  -13.3980   61.5050 O.2   196  ASP196     -0.2864
    128  CB         1.0300  -14.4250   59.9010 C.3   196  ASP196      0.1436
    129  CG         1.6300  -13.6680   58.7300 C.2   196  ASP196      0.3671
    130  OD1        2.6380  -14.1650   58.1890 O.co2 196  ASP196     -0.2456
    131  OD2        1.1240  -12.5700   58.3820 O.co2 196  ASP196     -0.2456
    132  N          4.6570  -16.2540   58.8150 N.3   198  ALA198     -0.1245
    133  CA         5.1570  -16.4130   57.4460 C.3   198  ALA198      0.1562
    134  C          5.5350  -17.8480   57.0650 C.2   198  ALA198      0.2260
    135  O          6.3380  -18.0540   56.1470 O.2   198  ALA198     -0.2867
    136  CB         6.3330  -15.4710   57.1950 C.3   198  ALA198      0.0290
    137  N         -2.8690  -14.5480   59.3050 N.3   206  PHE206     -0.1241
    138  CA        -3.0250  -13.2130   58.7520 C.3   206  PHE206      0.1605
    139  C         -4.4880  -12.7410   58.8180 C.2   206  PHE206      0.2264
    140  O         -4.7700  -11.6530   59.3190 O.2   206  PHE206     -0.2867
    141  CB        -2.5110  -13.1330   57.3040 C.3   206  PHE206      0.0534
    142  CG        -2.8450  -11.8360   56.6450 C.ar  206  PHE206     -0.0203
    143  CD1       -2.0720  -10.7100   56.8930 C.ar  206  PHE206     -0.0042
    144  CD2       -3.9820  -11.7080   55.8510 C.ar  206  PHE206     -0.0042
    145  CE1       -2.3980   -9.4980   56.3370 C.ar  206  PHE206     -0.0003
    146  CE2       -4.3220  -10.4840   55.2880 C.ar  206  PHE206     -0.0003
    147  CZ        -3.5190   -9.3780   55.5290 C.ar  206  PHE206     -0.0000
@<TRIPOS>BOND
     1    26    25    2
     2    54    53   ar
     3    53    55   ar
     4    53    52    1
     5    25    24    1
     6    47    48    1
     7    51    48    1
     8    51    52    1
     9    48    49    1
    10    23    24    1
    11    97    96    1
    12    24    27    1
    13    27    29    1
    14    27    28    1
    15    93    92    2
    16    49    56   am
    17    49    50    2
    18    56    57    1
    19    28    30    1
    20    96    95    1
    21    94    95    1
    22    94    91    1
    23    92    91    1
    24    92    98   am
    25    59    58    2
    26    91    90    1
    27   103   102    1
    28   103   104    1
    29    99    98    1
    30    99   102    1
    31    99   100    1
    32   106   104   ar
    33    74    72    1
    34    57    60    1
    35    57    58    1
    36   101   100    2
    37    60    61    1
    38     4     3    2
    39    58    67   am
    40   104   105   ar
    41    84    83    2
    42    90    83   am
    43    72    71    1
    44     3     2    1
    45     3     6   am
    46     5     2    1
    47    67    68    1
    48     2     1    1
    49    61    63   ar
    50    61    62   ar
    51    83    82    1
    52    68    71    1
    53    68    69    1
    54    63    65   ar
    55    11    10    1
    56    11    12    1
    57    71    73    1
    58    62    64   ar
    59     6     7    1
    60     7    10    1
    61     7     8    1
    62    89    87   ar
    63    69    70    2
    64    13    12    1
    65    82    81    1
    66    82    85    1
    67     8     9    2
    68    65    66   ar
    69    81    77   am
    70    64    66   ar
    71   117   115    1
    72    87    88   ar
    73    87    86    1
    74    79    80    1
    75    79    76    1
    76    85    86    1
    77    21    20   ar
    78    77    76    1
    79    77    78    2
    80   146   147   ar
    81   146   144   ar
    82    76    75    1
    83   115   116    1
    84   115   114    2
    85   147   145   ar
    86   144   142   ar
    87   135   134    2
    88    20    22   ar
    89    20    19    1
    90   145   143   ar
    91   114   113    1
    92   142   143   ar
    93   142   141    1
    94   134   133    1
    95    18    19    1
    96    18    15    1
    97   136   133    1
    98   141   138    1
    99   133   132    1
   100    34    33    2
   101    14    15    1
   102   113   112    1
   103    15    16    1
   104   130   129   ar
   105    37    35    1
   106    43    44    1
   107    43    40   am
   108    16    17    2
   109   131   129   ar
   110    39    42    1
   111    39    40    1
   112    39    38    1
   113    33    38   am
   114    33    32    1
   115    44    45    1
   116   129   128    1
   117   112   111    1
   118   138   139    1
   119   138   137    1
   120    31    32    1
   121   139   140    2
   122    46    45    2
   123    40    41    2
   124    32    35    1
   125   123   122    1
   126    35    36    1
   127   128   125    1
   128   111   108    1
   129   122   119    1
   130   108   107    1
   131   108   109    1
   132   125   126    1
   133   125   124    1
   134   126   127    2
   135   124   120   am
   136   120   121    2
   137   120   119    1
   138   119   118    1
   139   109   110    2
