@<TRIPOS>MOLECULE
tmp/6aysA00.pdb
 159 151 0 0 0
SMALL
GASTEIGER

@<TRIPOS>ATOM
      1  N        -25.6740   22.5790   -1.7760 N.3     9  ALA9       -0.1231
      2  CA       -26.7610   23.4230   -1.2960 C.3     9  ALA9        0.1694
      3  C        -26.5230   24.9020   -1.5620 C.2     9  ALA9        0.2591
      4  O        -27.4510   25.6130   -1.9270 O.2     9  ALA9       -0.2718
      5  CB       -26.9800   23.1970    0.1900 C.3     9  ALA9        0.0304
      6  N        -25.2820   25.3540   -1.3750 N.am   10  MET10      -0.1979
      7  CA       -24.9330   26.7750   -1.4950 C.3    10  MET10       0.1605
      8  C        -23.9080   27.0000   -2.5940 C.2    10  MET10       0.2287
      9  O        -23.1770   26.0770   -2.9770 O.2    10  MET10      -0.2864
     10  CB       -24.3570   27.2960   -0.1690 C.3    10  MET10       0.0413
     11  CG       -25.2690   27.1090    1.0220 C.3    10  MET10       0.0598
     12  SD       -24.4590   27.5510    2.5690 S.3    10  MET10      -0.1393
     13  CE       -24.2370   29.3000    2.3810 C.3    10  MET10       0.0692
     14  N        -20.3700   25.7590   -2.1820 N.3    13  GLU13      -0.1245
     15  CA       -20.1340   24.3260   -2.3330 C.3    13  GLU13       0.1567
     16  C        -19.9400   23.8730   -3.7860 C.2    13  GLU13       0.2260
     17  O        -19.3770   22.8130   -4.0200 O.2    13  GLU13      -0.2867
     18  CB       -21.2670   23.5430   -1.6520 C.3    13  GLU13       0.0388
     19  CG       -21.3100   23.8200   -0.1490 C.3    13  GLU13       0.1160
     20  CD       -22.5660   23.3270    0.5490 C.2    13  GLU13       0.3649
     21  OE1      -23.6610   23.4060   -0.0460 O.co2  13  GLU13      -0.2457
     22  OE2      -22.4460   22.9280    1.7290 O.co2  13  GLU13      -0.2457
     23  N        -30.7900   26.2200    0.2750 N.3    51  ILE51      -0.1245
     24  CA       -30.6750   25.4910    1.5350 C.3    51  ILE51       0.1561
     25  C        -31.9230   24.6810    1.8560 C.2    51  ILE51       0.2260
     26  O        -33.0470   25.1360    1.6420 O.2    51  ILE51      -0.2867
     27  CB       -30.3640   26.4840    2.6780 C.3    51  ILE51       0.0252
     28  CG1      -28.9600   27.0700    2.4660 C.3    51  ILE51       0.0019
     29  CG2      -30.4790   25.8270    4.0490 C.3    51  ILE51       0.0019
     30  CD1      -28.7050   28.3270    3.2690 C.3    51  ILE51       0.0001
     31  N        -20.6820   21.0110    3.0720 N.3    77  VAL77      -0.1231
     32  CA       -20.1770   21.0580    4.4400 C.3    77  VAL77       0.1692
     33  C        -21.2020   20.5000    5.4270 C.2    77  VAL77       0.2592
     34  O        -22.3330   20.2230    5.0530 O.2    77  VAL77      -0.2718
     35  CB       -19.7100   22.4780    4.8310 C.3    77  VAL77       0.0266
     36  CG1      -18.6200   22.9470    3.8780 C.3    77  VAL77       0.0020
     37  CG2      -20.8500   23.4910    4.8610 C.3    77  VAL77       0.0020
     38  N        -20.7900   20.3270    6.6830 N.am   78  ALA78      -0.1966
     39  CA       -21.6640   19.7900    7.7190 C.3    78  ALA78       0.1728
     40  C        -21.2130   20.2100    9.1120 C.2    78  ALA78       0.2616
     41  O        -20.0800   20.6800    9.2880 O.2    78  ALA78      -0.2715
     42  CB       -21.7300   18.2670    7.6190 C.3    78  ALA78       0.0334
     43  N        -22.1090   20.0260   10.0790 N.am   79  GLY79      -0.1955
     44  CA       -21.8120   20.2350   11.4930 C.3    79  GLY79       0.1869
     45  C        -21.4040   18.9220   12.1310 C.2    79  GLY79       0.2309
     46  O        -22.1480   17.9520   12.0640 O.2    79  GLY79      -0.2863
     47  N        -34.1200   13.8660   11.1000 N.3    99  TYR99      -0.1241
     48  CA       -34.3900   13.9680   12.5500 C.3    99  TYR99       0.1605
     49  C        -35.6350   14.7910   12.9030 C.2    99  TYR99       0.2264
     50  O        -36.1020   14.7280   14.0350 O.2    99  TYR99      -0.2867
     51  CB       -33.1690   14.5070   13.3260 C.3    99  TYR99       0.0534
     52  CG       -32.7930   15.9360   12.9960 C.ar   99  TYR99      -0.0201
     53  CD1      -33.5330   17.0130   13.4870 C.ar   99  TYR99      -0.0009
     54  CD2      -31.6870   16.2100   12.1910 C.ar   99  TYR99      -0.0009
     55  CE1      -33.1950   18.3180   13.1760 C.ar   99  TYR99       0.0417
     56  CE2      -31.3320   17.5160   11.8740 C.ar   99  TYR99       0.0417
     57  CZ       -32.0850   18.5700   12.3720 C.ar   99  TYR99       0.1957
     58  OH       -31.7430   19.8640   12.0460 O.3    99  TYR99      -0.2866
     59  N        -33.0920   22.6770   10.2480 N.3   151  GLU151     -0.1231
     60  CA       -32.5750   23.6290   11.2240 C.3   151  GLU151      0.1699
     61  C        -31.0510   23.6790   11.1620 C.2   151  GLU151      0.2592
     62  O        -30.4080   22.6480   11.0460 O.2   151  GLU151     -0.2718
     63  CB       -33.0350   23.2150   12.6290 C.3   151  GLU151      0.0402
     64  CG       -32.6710   24.2220   13.7090 C.3   151  GLU151      0.1161
     65  CD       -33.1670   23.8840   15.0920 C.2   151  GLU151      0.3649
     66  OE1      -33.8820   22.8850   15.2960 O.co2 151  GLU151     -0.2457
     67  OE2      -32.8290   24.6750   15.9800 O.co2 151  GLU151     -0.2457
     68  N        -30.4770   24.8800   11.2510 N.am  152  PHE152     -0.1962
     69  CA       -29.0390   25.0140   11.5020 C.3   152  PHE152      0.1771
     70  C        -28.8280   24.7670   12.9920 C.2   152  PHE152      0.2619
     71  O        -29.3390   25.5200   13.8150 O.2   152  PHE152     -0.2715
     72  CB       -28.5130   26.3900   11.1170 C.3   152  PHE152      0.0574
     73  CG       -27.0340   26.5390   11.3170 C.ar  152  PHE152     -0.0200
     74  CD1      -26.1430   26.0370   10.3890 C.ar  152  PHE152     -0.0042
     75  CD2      -26.5260   27.1610   12.4600 C.ar  152  PHE152     -0.0042
     76  CE1      -24.7700   26.1600   10.5700 C.ar  152  PHE152     -0.0003
     77  CE2      -25.1550   27.2860   12.6460 C.ar  152  PHE152     -0.0003
     78  CZ       -24.2860   26.7800   11.7180 C.ar  152  PHE152     -0.0000
     79  N        -28.0970   23.7040   13.3230 N.am  153  ILE153     -0.1977
     80  CA       -27.9230   23.2730   14.7110 C.3   153  ILE153      0.1596
     81  C        -26.7400   24.0200   15.3140 C.2   153  ILE153      0.2287
     82  O        -25.6200   23.9490   14.8080 O.2   153  ILE153     -0.2864
     83  CB       -27.6990   21.7520   14.8030 C.3   153  ILE153      0.0276
     84  CG1      -28.8730   20.9810   14.1640 C.3   153  ILE153      0.0022
     85  CG2      -27.4800   21.3100   16.2450 C.3   153  ILE153      0.0022
     86  CD1      -30.2200   21.2440   14.7730 C.3   153  ILE153      0.0001
     87  N        -24.4630   16.5510   11.2260 N.3   171  CYS171     -0.1221
     88  CA       -25.7550   17.0450   10.7750 C.3   171  CYS171      0.1808
     89  C        -25.6250   17.9910    9.5970 C.2   171  CYS171      0.2601
     90  O        -24.5840   18.6100    9.3750 O.2   171  CYS171     -0.2717
     91  CB       -26.5130   17.7490   11.8980 C.3   171  CYS171      0.0970
     92  SG       -25.7700   19.2940   12.4690 S.3   171  CYS171     -0.0800
     93  N        -26.7090   18.0770    8.8350 N.am  172  GLU172     -0.1965
     94  CA       -26.7980   18.9920    7.7120 C.3   172  GLU172      0.1733
     95  C        -28.2680   19.0980    7.3000 C.2   172  GLU172      0.2616
     96  O        -29.1300   18.6140    8.0260 O.2   172  GLU172     -0.2715
     97  CB       -25.8120   18.6170    6.5850 C.3   172  GLU172      0.0429
     98  CG       -25.5460   17.1390    6.3530 C.3   172  GLU172      0.1163
     99  CD       -26.5320   16.5050    5.4070 C.2   172  GLU172      0.3649
    100  OE1      -26.0670   15.7990    4.4860 O.co2 172  GLU172     -0.2457
    101  OE2      -27.7590   16.7150    5.5610 O.co2 172  GLU172     -0.2457
    102  N        -28.5670   19.7580    6.1840 N.am  173  MET173     -0.1963
    103  CA       -29.9550   20.1150    5.8790 C.3   173  MET173      0.1736
    104  C        -30.4460   19.5950    4.5260 C.2   173  MET173      0.2616
    105  O        -31.5270   19.9830    4.0800 O.2   173  MET173     -0.2715
    106  CB       -30.1150   21.6400    5.9880 C.3   173  MET173      0.0427
    107  CG       -29.6940   22.2100    7.3320 C.3   173  MET173      0.0599
    108  SD       -29.6390   24.0010    7.4550 S.3   173  MET173     -0.1393
    109  CE       -31.3870   24.4200    7.3560 C.3   173  MET173      0.0692
    110  N        -29.6760   18.7050    3.8990 N.am  174  GLU174     -0.1977
    111  CA       -29.9720   18.2340    2.5350 C.3   174  GLU174      0.1602
    112  C        -29.7040   16.7500    2.2260 C.2   174  GLU174      0.2287
    113  O        -30.2040   16.2460    1.2200 O.2   174  GLU174     -0.2864
    114  CB       -29.1900   19.0620    1.5200 C.3   174  GLU174      0.0415
    115  CG       -29.4140   20.5720    1.5650 C.3   174  GLU174      0.1163
    116  CD       -28.5920   21.3250    2.6020 C.2   174  GLU174      0.3649
    117  OE1      -27.6100   20.7760    3.1680 O.co2 174  GLU174     -0.2457
    118  OE2      -28.9460   22.5040    2.8480 O.co2 174  GLU174     -0.2457
    119  N        -19.4310   15.1580    2.9690 N.3   193  ARG193     -0.1245
    120  CA       -19.4520   16.4190    3.7090 C.3   193  ARG193      0.1563
    121  C        -18.0930   16.6840    4.3540 C.2   193  ARG193      0.2260
    122  O        -17.4890   15.7760    4.9260 O.2   193  ARG193     -0.2867
    123  CB       -20.5280   16.3770    4.7930 C.3   193  ARG193      0.0307
    124  CG       -21.9610   16.1660    4.2950 C.3   193  ARG193      0.0489
    125  CD       -22.4620   17.3530    3.4780 C.3   193  ARG193      0.2205
    126  NE       -23.9260   17.3750    3.3450 N.pl3 193  ARG193     -0.0865
    127  CZ       -24.6670   18.4750    3.1300 C.cat 193  ARG193      0.5346
    128  NH1      -24.1180   19.6800    3.0350 N.pl3 193  ARG193      0.1354
    129  NH2      -25.9880   18.3760    3.0080 N.pl3 193  ARG193      0.1354
    130  N        -17.5730   22.0200    8.7210 N.3   196  SER196     -0.1202
    131  CA       -17.3880   23.4770    8.8160 C.3   196  SER196      0.2020
    132  C        -17.4810   24.0080   10.2500 C.2   196  SER196      0.2618
    133  O        -17.1030   25.1450   10.5040 O.2   196  SER196     -0.2717
    134  CB       -18.4250   24.1920    7.9660 C.3   196  SER196      0.2103
    135  OG       -19.7340   23.8190    8.3470 O.3   196  SER196     -0.2182
    136  N        -18.0080   23.1990   11.1670 N.am  197  ASP197     -0.1973
    137  CA       -18.2790   23.6300   12.5340 C.3   197  ASP197      0.1709
    138  C        -18.6350   22.3980   13.3620 C.2   197  ASP197      0.2293
    139  O        -18.7360   21.2950   12.8200 O.2   197  ASP197     -0.2864
    140  CB       -19.4220   24.6550   12.5640 C.3   197  ASP197      0.1436
    141  CG       -20.7050   24.1030   11.9940 C.2   197  ASP197      0.3671
    142  OD1      -21.4770   23.5080   12.7590 O.co2 197  ASP197     -0.2456
    143  OD2      -20.9270   24.2460   10.7700 O.co2 197  ASP197     -0.2456
    144  N        -21.4350   22.3920   15.5190 N.3   199  ALA199     -0.1245
    145  CA       -22.8830   22.4020   15.7720 C.3   199  ALA199      0.1562
    146  C        -23.3190   22.7280   17.2070 C.2   199  ALA199      0.2260
    147  O        -24.4130   22.3390   17.6310 O.2   199  ALA199     -0.2867
    148  CB       -23.4870   21.0760   15.3170 C.3   199  ALA199      0.0290
    149  N        -18.9450   28.2270   11.1490 N.3   207  PHE207     -0.1241
    150  CA       -19.4600   28.0440    9.7930 C.3   207  PHE207      0.1605
    151  C        -19.0340   29.1950    8.8790 C.2   207  PHE207      0.2264
    152  O        -18.5420   28.9630    7.7770 O.2   207  PHE207     -0.2867
    153  CB       -20.9910   27.8970    9.7760 C.3   207  PHE207      0.0534
    154  CG       -21.5740   27.9320    8.3970 C.ar  207  PHE207     -0.0203
    155  CD1      -21.6190   26.7810    7.6220 C.ar  207  PHE207     -0.0042
    156  CD2      -22.0340   29.1260    7.8560 C.ar  207  PHE207     -0.0042
    157  CE1      -22.1340   26.8270    6.3280 C.ar  207  PHE207     -0.0003
    158  CE2      -22.5360   29.1750    6.5660 C.ar  207  PHE207     -0.0003
    159  CZ       -22.5960   28.0310    5.8060 C.ar  207  PHE207     -0.0000
@<TRIPOS>BOND
     1    17    16    2
     2    16    15    1
     3     9     8    2
     4     8     7    1
     5    15    14    1
     6    15    18    1
     7     4     3    2
     8     1     2    1
     9    18    19    1
    10     3     6   am
    11     3     2    1
    12     7     6    1
    13     7    10    1
    14     2     5    1
    15    10    11    1
    16    19    20    1
    17    21    20   ar
    18    23    24    1
    19    20    22   ar
    20    11    12    1
    21   113   112    2
    22   114   115    1
    23   114   111    1
    24    24    25    1
    25    24    27    1
    26   115   116    1
    27    26    25    2
    28   112   111    1
    29    13    12    1
    30    28    27    1
    31    28    30    1
    32   111   110    1
    33   116   118   ar
    34   116   117   ar
    35    27    29    1
    36   119   120    1
    37   129   127    1
    38   128   127    1
    39    31    32    1
    40   127   126    2
    41   126   125    1
    42   125   124    1
    43   120   121    1
    44   120   123    1
    45    36    35    1
    46   110   104   am
    47   105   104    2
    48   124   123    1
    49   121   122    2
    50    32    35    1
    51    32    33    1
    52   100    99   ar
    53   104   103    1
    54    35    37    1
    55    34    33    2
    56    99   101   ar
    57    99    98    1
    58    33    38   am
    59   159   157   ar
    60   159   158   ar
    61   103   106    1
    62   103   102    1
    63   106   107    1
    64   102    95   am
    65   157   155   ar
    66    98    97    1
    67   158   156   ar
    68    97    94    1
    69    38    39    1
    70    95    94    1
    71    95    96    2
    72   107   108    1
    73   109   108    1
    74    42    39    1
    75   155   154   ar
    76    94    93    1
    77    39    40    1
    78   152   151    2
    79   156   154   ar
    80   134   135    1
    81   134   131    1
    82   154   153    1
    83   130   131    1
    84   131   132    1
    85    93    89   am
    86   151   150    1
    87    40    41    2
    88    40    43   am
    89    90    89    2
    90    89    88    1
    91   153   150    1
    92   150   149    1
    93    43    44    1
    94    59    60    1
    95   132   133    2
    96   132   136   am
    97    74    76   ar
    98    74    73   ar
    99    76    78   ar
   100   143   141   ar
   101    88    87    1
   102    88    91    1
   103    62    61    2
   104    47    48    1
   105    72    73    1
   106    72    69    1
   107    61    60    1
   108    61    68   am
   109   136   137    1
   110    60    63    1
   111    68    69    1
   112    73    75   ar
   113    44    45    1
   114    69    70    1
   115    78    77   ar
   116    56    54   ar
   117    56    57   ar
   118    91    92    1
   119   141   140    1
   120   141   142   ar
   121    58    57    1
   122    46    45    2
   123    54    52   ar
   124    57    55   ar
   125    75    77   ar
   126   137   140    1
   127   137   138    1
   128    48    49    1
   129    48    51    1
   130    63    64    1
   131   139   138    2
   132    49    50    2
   133    70    79   am
   134    70    71    2
   135    52    51    1
   136    52    53   ar
   137    55    53   ar
   138    79    80    1
   139    64    65    1
   140    84    86    1
   141    84    83    1
   142    80    83    1
   143    80    81    1
   144    83    85    1
   145    82    81    2
   146    65    66   ar
   147    65    67   ar
   148   148   145    1
   149   144   145    1
   150   145   146    1
   151   146   147    2
