@<TRIPOS>MOLECULE
tmp/6aytA00.pdb
 155 147 0 0 0
SMALL
GASTEIGER

@<TRIPOS>ATOM
      1  N        -12.0940    1.4680   36.9140 N.3     9  ALA9       -0.1231
      2  CA       -13.4850    1.0130   37.0670 C.3     9  ALA9        0.1694
      3  C        -13.9580    1.0670   38.5310 C.2     9  ALA9        0.2591
      4  O        -15.0860    1.4770   38.8040 O.2     9  ALA9       -0.2718
      5  CB       -13.6350   -0.3960   36.5060 C.3     9  ALA9        0.0304
      6  N        -13.0910    0.6490   39.4470 N.am   10  MET10      -0.1979
      7  CA       -13.4220    0.4700   40.8710 C.3    10  MET10       0.1605
      8  C        -12.6220    1.4460   41.7280 C.2    10  MET10       0.2287
      9  O        -11.5260    1.8560   41.3560 O.2    10  MET10      -0.2864
     10  CB       -13.0620   -0.9550   41.3090 C.3    10  MET10       0.0413
     11  CG       -13.7490   -2.0280   40.5040 C.3    10  MET10       0.0598
     12  SD       -13.3640   -3.7100   40.9030 S.3    10  MET10      -0.1393
     13  CE       -14.1050   -3.8600   42.5280 C.3    10  MET10       0.0692
     14  N         -8.9180    0.8700   42.2890 N.3    13  GLU13      -0.1245
     15  CA        -7.9970    1.1630   41.1890 C.3    13  GLU13       0.1567
     16  C         -7.5520    2.6220   41.1180 C.2    13  GLU13       0.2260
     17  O         -6.5640    2.9350   40.4460 O.2    13  GLU13      -0.2867
     18  CB        -8.6380    0.7110   39.8660 C.3    13  GLU13       0.0388
     19  CG        -8.8920   -0.8020   39.8420 C.3    13  GLU13       0.1160
     20  CD        -9.7890   -1.2680   38.7100 C.2    13  GLU13       0.3649
     21  OE1      -10.7380   -0.5450   38.3330 O.co2  13  GLU13      -0.2457
     22  OE2       -9.5660   -2.3840   38.1890 O.co2  13  GLU13      -0.2457
     23  N        -18.3670   -0.3710   37.2550 N.3    51  ILE51      -0.1245
     24  CA       -17.9830   -1.5280   36.4440 C.3    51  ILE51       0.1561
     25  C        -18.7180   -1.5830   35.1150 C.2    51  ILE51       0.2260
     26  O        -19.8940   -1.2340   35.0420 O.2    51  ILE51      -0.2867
     27  CB       -18.3740   -2.8360   37.2180 C.3    51  ILE51       0.0252
     28  CG1      -17.6560   -2.9660   38.5510 C.3    51  ILE51       0.0019
     29  CG2      -18.1870   -4.0860   36.3900 C.3    51  ILE51       0.0019
     30  CD1      -16.2350   -2.5520   38.5350 C.3    51  ILE51       0.0001
     31  N         -7.1780   -3.6130   37.1220 N.3    77  VAL77      -0.1231
     32  CA        -6.8040   -5.0190   37.1850 C.3    77  VAL77       0.1692
     33  C         -7.5140   -5.8180   36.0980 C.2    77  VAL77       0.2592
     34  O         -8.4360   -5.3130   35.4380 O.2    77  VAL77      -0.2718
     35  CB        -7.0160   -5.6090   38.6000 C.3    77  VAL77       0.0266
     36  CG1       -6.2440   -4.7870   39.6320 C.3    77  VAL77       0.0020
     37  CG2       -8.4790   -5.6970   38.9910 C.3    77  VAL77       0.0020
     38  N         -7.0700   -7.0590   35.8850 N.am   78  ALA78      -0.1966
     39  CA        -7.6370   -7.9060   34.8250 C.3    78  ALA78       0.1728
     40  C         -7.4370   -9.3950   35.1170 C.2    78  ALA78       0.2616
     41  O         -6.6310   -9.7680   35.9820 O.2    78  ALA78      -0.2715
     42  CB        -7.0240   -7.5350   33.4820 C.3    78  ALA78       0.0334
     43  N         -8.1870  -10.2270   34.3980 N.am   79  GLY79      -0.1955
     44  CA        -8.0490  -11.6840   34.4710 C.3    79  GLY79       0.1869
     45  C         -7.0880  -12.1650   33.3870 C.2    79  GLY79       0.2309
     46  O         -7.2980  -11.8890   32.2060 O.2    79  GLY79      -0.2863
     47  N        -19.1610   -9.5170   31.4070 N.3   151  GLU151     -0.1231
     48  CA       -19.1840  -10.6600   32.3100 C.3   151  GLU151      0.1699
     49  C        -17.8620  -10.7920   33.0740 C.2   151  GLU151      0.2592
     50  O        -16.7990  -10.6050   32.4920 O.2   151  GLU151     -0.2718
     51  CB       -19.4540  -11.9310   31.5080 C.3   151  GLU151      0.0402
     52  CG       -19.7300  -13.1540   32.3790 C.3   151  GLU151      0.1161
     53  CD       -19.8970  -14.4330   31.5940 C.2   151  GLU151      0.3649
     54  OE1      -20.1020  -14.3820   30.3590 O.co2 151  GLU151     -0.2457
     55  OE2      -19.8380  -15.5010   32.2510 O.co2 151  GLU151     -0.2457
     56  N        -17.9310  -11.1040   34.3700 N.am  152  PHE152     -0.1962
     57  CA       -16.7420  -11.5340   35.1140 C.3   152  PHE152      0.1771
     58  C        -16.4520  -12.9850   34.7270 C.2   152  PHE152      0.2619
     59  O        -17.2590  -13.8670   34.9940 O.2   152  PHE152     -0.2715
     60  CB       -16.9300  -11.4170   36.6350 C.3   152  PHE152      0.0574
     61  CG       -15.6940  -11.7710   37.4230 C.ar  152  PHE152     -0.0200
     62  CD1      -14.6950  -10.8410   37.6190 C.ar  152  PHE152     -0.0042
     63  CD2      -15.5370  -13.0360   37.9660 C.ar  152  PHE152     -0.0042
     64  CE1      -13.5530  -11.1470   38.3520 C.ar  152  PHE152     -0.0003
     65  CE2      -14.3850  -13.3670   38.6950 C.ar  152  PHE152     -0.0003
     66  CZ       -13.3900  -12.4070   38.8890 C.ar  152  PHE152     -0.0000
     67  N        -15.3120  -13.2180   34.0800 N.am  153  ILE153     -0.1977
     68  CA       -14.9610  -14.5450   33.5650 C.3   153  ILE153      0.1596
     69  C        -14.3010  -15.3850   34.6650 C.2   153  ILE153      0.2287
     70  O        -13.2280  -15.0320   35.1660 O.2   153  ILE153     -0.2864
     71  CB       -14.0220  -14.4520   32.3440 C.3   153  ILE153      0.0276
     72  CG1      -14.6740  -13.6350   31.2090 C.3   153  ILE153      0.0022
     73  CG2      -13.6390  -15.8390   31.8480 C.3   153  ILE153      0.0022
     74  CD1      -16.0210  -14.1450   30.7210 C.3   153  ILE153      0.0001
     75  N         -8.6410  -10.5810   30.0750 N.3   171  CYS171     -0.1221
     76  CA       -10.0050  -10.0850   29.9690 C.3   171  CYS171      0.1808
     77  C        -10.3160   -9.0880   31.0730 C.2   171  CYS171      0.2601
     78  O         -9.6920   -9.0820   32.1450 O.2   171  CYS171     -0.2717
     79  CB       -11.0310  -11.2180   30.0040 C.3   171  CYS171      0.0970
     80  SG       -11.1790  -12.0850   31.5940 S.3   171  CYS171     -0.0800
     81  N        -11.2740   -8.2200   30.7770 N.am  172  GLU172     -0.1965
     82  CA       -11.7790   -7.2330   31.7270 C.3   172  GLU172      0.1733
     83  C        -13.0890   -6.6660   31.1540 C.2   172  GLU172      0.2616
     84  O        -13.6190   -7.2060   30.1830 O.2   172  GLU172     -0.2715
     85  CB       -10.7010   -6.1770   32.0740 C.3   172  GLU172      0.0429
     86  CG        -9.7280   -5.7910   30.9530 C.3   172  GLU172      0.1163
     87  CD       -10.2330   -4.6630   30.1070 C.2   172  GLU172      0.3649
     88  OE1       -9.4790   -3.6680   29.9540 O.co2 172  GLU172     -0.2457
     89  OE2      -11.3860   -4.7320   29.6190 O.co2 172  GLU172     -0.2457
     90  N        -13.6270   -5.6120   31.7490 N.am  173  MET173     -0.1963
     91  CA       -14.9830   -5.1670   31.4520 C.3   173  MET173      0.1736
     92  C        -15.0850   -3.7010   31.0210 C.2   173  MET173      0.2616
     93  O        -16.1860   -3.1710   30.9380 O.2   173  MET173     -0.2715
     94  CB       -15.8720   -5.4500   32.6880 C.3   173  MET173      0.0427
     95  CG       -15.8660   -6.9130   33.1400 C.3   173  MET173      0.0599
     96  SD       -16.8170   -7.2400   34.6560 S.3   173  MET173     -0.1393
     97  CE       -18.4630   -6.8180   34.1670 C.3   173  MET173      0.0692
     98  N        -13.9510   -3.0550   30.7340 N.am  174  GLU174     -0.1977
     99  CA       -13.9230   -1.6250   30.4070 C.3   174  GLU174      0.1602
    100  C        -12.9710   -1.1770   29.2760 C.2   174  GLU174      0.2287
    101  O        -13.1300   -0.0740   28.7660 O.2   174  GLU174     -0.2864
    102  CB       -13.5790   -0.8070   31.6570 C.3   174  GLU174      0.0415
    103  CG       -14.5110   -1.0080   32.8630 C.3   174  GLU174      0.1163
    104  CD       -14.2360   -2.2540   33.6930 C.2   174  GLU174      0.3649
    105  OE1      -13.1640   -2.8870   33.5510 O.co2 174  GLU174     -0.2457
    106  OE2      -15.1310   -2.6090   34.5010 O.co2 174  GLU174     -0.2457
    107  N         -3.3100   -2.8710   32.6190 N.3   193  ARG193     -0.1245
    108  CA        -3.9250   -3.7720   33.5750 C.3   193  ARG193      0.1563
    109  C         -2.8610   -4.5930   34.3080 C.2   193  ARG193      0.2260
    110  O         -1.9370   -5.1080   33.6820 O.2   193  ARG193     -0.2867
    111  CB        -4.9040   -4.7040   32.8730 C.3   193  ARG193      0.0307
    112  CG        -6.0450   -3.9990   32.1420 C.3   193  ARG193      0.0489
    113  CD        -7.0380   -3.3730   33.1130 C.3   193  ARG193      0.2205
    114  NE        -8.3230   -3.0580   32.4660 N.pl3 193  ARG193     -0.0865
    115  CZ        -9.4980   -2.9140   33.0890 C.cat 193  ARG193      0.5346
    116  NH1       -9.6190   -3.0640   34.4100 N.pl3 193  ARG193      0.1354
    117  NH2      -10.5850   -2.6000   32.3830 N.pl3 193  ARG193      0.1354
    118  N         -5.0930   -9.7050   38.4340 N.3   196  SER196     -0.1202
    119  CA        -5.6330  -10.0280   39.7640 C.3   196  SER196      0.2020
    120  C         -6.0450  -11.4910   39.9290 C.2   196  SER196      0.2618
    121  O         -6.2570  -11.9520   41.0530 O.2   196  SER196     -0.2717
    122  CB        -6.8520   -9.1630   40.0500 C.3   196  SER196      0.2103
    123  OG        -7.8220   -9.3250   39.0290 O.3   196  SER196     -0.2182
    124  N         -6.1830  -12.2040   38.8200 N.am  197  ASP197     -0.1973
    125  CA        -6.6430  -13.6010   38.8230 C.3   197  ASP197      0.1709
    126  C         -6.3570  -14.2060   37.4430 C.2   197  ASP197      0.2293
    127  O         -5.8420  -13.5160   36.5540 O.2   197  ASP197     -0.2864
    128  CB        -8.1390  -13.6750   39.1530 C.3   197  ASP197      0.1436
    129  CG        -8.9860  -12.8760   38.1870 C.2   197  ASP197      0.3671
    130  OD1       -9.1900  -11.6630   38.4200 O.co2 197  ASP197     -0.2456
    131  OD2       -9.4460  -13.4600   37.1860 O.co2 197  ASP197     -0.2456
    132  N         -8.8770  -15.9830   35.7320 N.3   199  ALA199     -0.1245
    133  CA       -10.1670  -16.0890   35.0320 C.3   199  ALA199      0.1562
    134  C        -10.7470  -17.5070   34.9240 C.2   199  ALA199      0.2260
    135  O        -11.5740  -17.7710   34.0440 O.2   199  ALA199     -0.2867
    136  CB       -10.0450  -15.4570   33.6400 C.3   199  ALA199      0.0290
    137  N         -9.3510  -12.7960   42.8910 N.3   207  PHE207     -0.1227
    138  CA        -9.6380  -11.3720   42.7380 C.3   207  PHE207      0.1736
    139  C         -9.7240  -10.6620   44.0990 C.2   207  PHE207      0.2595
    140  O         -9.0570   -9.6510   44.3110 O.2   207  PHE207     -0.2718
    141  CB       -10.9420  -11.1540   41.9550 C.3   207  PHE207      0.0547
    142  CG       -11.3250   -9.7150   41.8420 C.ar  207  PHE207     -0.0202
    143  CD1      -10.8380   -8.9390   40.7940 C.ar  207  PHE207     -0.0042
    144  CD2      -12.1310   -9.1180   42.8060 C.ar  207  PHE207     -0.0042
    145  CE1      -11.1690   -7.5980   40.7020 C.ar  207  PHE207     -0.0003
    146  CE2      -12.4540   -7.7730   42.7200 C.ar  207  PHE207     -0.0003
    147  CZ       -11.9750   -7.0220   41.6640 C.ar  207  PHE207     -0.0000
    148  N        -10.5550  -11.1890   44.9940 N.am  208  ASP208     -0.1974
    149  CA       -10.7140  -10.6310   46.3470 C.3   208  ASP208      0.1709
    150  C         -9.3840  -10.5070   47.0790 C.2   208  ASP208      0.2293
    151  O         -9.1280   -9.4850   47.7200 O.2   208  ASP208     -0.2864
    152  CB       -11.6730  -11.4810   47.2050 C.3   208  ASP208      0.1436
    153  CG       -13.1410  -11.1840   46.9410 C.2   208  ASP208      0.3671
    154  OD1      -13.4680  -10.1730   46.2790 O.co2 208  ASP208     -0.2456
    155  OD2      -13.9830  -11.9680   47.4170 O.co2 208  ASP208     -0.2456
@<TRIPOS>BOND
     1   101   100    2
     2   100    99    1
     3    89    87   ar
     4    88    87   ar
     5    76    79    1
     6    76    75    1
     7    76    77    1
     8    79    80    1
     9    87    86    1
    10    84    83    2
    11    54    53   ar
    12    99    98    1
    13    99   102    1
    14    74    72    1
    15    98    92   am
    16    81    77   am
    17    81    82    1
    18    93    92    2
    19    86    85    1
    20    92    91    1
    21    77    78    2
    22    83    82    1
    23    83    90   am
    24    72    71    1
    25    47    48    1
    26    91    90    1
    27    91    94    1
    28    51    48    1
    29    51    52    1
    30    53    55   ar
    31    53    52    1
    32   102   103    1
    33    82    85    1
    34    73    71    1
    35   112   111    1
    36   112   113    1
    37    46    45    2
    38    48    49    1
    39    71    68    1
    40   117   115    1
    41   114   115    2
    42   114   113    1
    43    50    49    2
    44   107   108    1
    45    94    95    1
    46   103   104    1
    47   111   108    1
    48    49    56   am
    49   115   116    1
    50    95    96    1
    51    45    44    1
    52    42    39    1
    53   105   104   ar
    54    68    67    1
    55    68    69    1
    56   108   109    1
    57   136   133    1
    58   110   109    2
    59   104   106   ar
    60   135   134    2
    61    67    58   am
    62    97    96    1
    63    56    57    1
    64    43    44    1
    65    43    40   am
    66    69    70    2
    67    58    59    2
    68    58    57    1
    69    39    40    1
    70    39    38    1
    71   134   133    1
    72   133   132    1
    73    26    25    2
    74    57    60    1
    75    25    24    1
    76    40    41    2
    77    34    33    2
    78    38    33   am
    79    33    32    1
    80    29    27    1
    81    24    27    1
    82    24    23    1
    83     5     2    1
    84   127   126    2
    85    60    61    1
    86     1     2    1
    87     2     3    1
    88    31    32    1
    89    32    35    1
    90   131   129   ar
    91    27    28    1
    92    61    62   ar
    93    61    63   ar
    94   126   125    1
    95    62    64   ar
    96    63    65   ar
    97   129   130   ar
    98   129   128    1
    99    22    20   ar
   100    21    20   ar
   101    64    66   ar
   102   118   119    1
   103     3     4    2
   104     3     6   am
   105    30    28    1
   106    35    37    1
   107    35    36    1
   108    65    66   ar
   109    20    19    1
   110   124   125    1
   111   124   120   am
   112   125   128    1
   113   123   122    1
   114     6     7    1
   115   119   120    1
   116   119   122    1
   117    19    18    1
   118    18    15    1
   119   120   121    2
   120    17    16    2
   121    11    12    1
   122    11    10    1
   123   145   143   ar
   124   145   147   ar
   125   143   142   ar
   126     7    10    1
   127     7     8    1
   128    12    13    1
   129    16    15    1
   130    15    14    1
   131     9     8    2
   132   147   146   ar
   133   142   141    1
   134   142   144   ar
   135   141   138    1
   136   146   144   ar
   137   138   137    1
   138   138   139    1
   139   139   140    2
   140   139   148   am
   141   148   149    1
   142   154   153   ar
   143   149   150    1
   144   149   152    1
   145   153   152    1
   146   153   155   ar
   147   150   151    2
