@<TRIPOS>MOLECULE
tmp/6ayvA00.pdb
 87 80 0 0 0
SMALL
GASTEIGER

@<TRIPOS>ATOM
      1  N         17.0800   53.9690   11.9440 N.3    83  ASP83      -0.1225
      2  CA        15.6310   53.8350   11.9950 C.3    83  ASP83       0.1805
      3  C         15.2490   52.4990   11.3620 C.2    83  ASP83       0.2598
      4  O         14.9180   52.4110   10.1820 O.2    83  ASP83      -0.2718
      5  CB        14.9260   54.9930   11.3070 C.3    83  ASP83       0.1424
      6  CG        13.4170   54.8410   11.3830 C.2    83  ASP83       0.3668
      7  OD1       12.9490   54.0960   12.2740 O.co2  83  ASP83      -0.2456
      8  OD2       12.7040   55.4050   10.5340 O.co2  83  ASP83      -0.2456
      9  N         15.2530   51.4430   12.1700 N.am   84  GLY84      -0.1957
     10  CA        15.0380   50.1150   11.6360 C.3    84  GLY84       0.1869
     11  C         16.3330   49.3360   11.5410 C.2    84  GLY84       0.2309
     12  O         16.8480   49.1000   10.4430 O.2    84  GLY84      -0.2863
     13  N          3.2440   53.6490   21.2980 N.3   115  TYR115     -0.1241
     14  CA         2.8030   53.7720   19.9170 C.3   115  TYR115      0.1605
     15  C          1.8950   54.9770   19.7160 C.2   115  TYR115      0.2264
     16  O          1.2580   55.4920   20.6430 O.2   115  TYR115     -0.2867
     17  CB         2.0620   52.5220   19.4500 C.3   115  TYR115      0.0534
     18  CG         2.9240   51.3110   19.2310 C.ar  115  TYR115     -0.0201
     19  CD1        3.7530   51.2100   18.1220 C.ar  115  TYR115     -0.0009
     20  CD2        2.8700   50.2400   20.1030 C.ar  115  TYR115     -0.0009
     21  CE1        4.5160   50.0760   17.9070 C.ar  115  TYR115      0.0417
     22  CE2        3.6340   49.1080   19.9030 C.ar  115  TYR115      0.0417
     23  CZ         4.4560   49.0240   18.8100 C.ar  115  TYR115      0.1957
     24  OH         5.2090   47.8710   18.6330 O.3   115  TYR115     -0.2866
     25  N          3.4710   50.8070    7.0370 N.3   158  LEU158     -0.1245
     26  CA         4.1850   49.6770    7.6180 C.3   158  LEU158      0.1561
     27  C          3.4170   48.3830    7.4170 C.2   158  LEU158      0.2260
     28  O          2.2250   48.2940    7.7350 O.2   158  LEU158     -0.2867
     29  CB         4.3980   49.9070    9.1130 C.3   158  LEU158      0.0270
     30  CG         5.3770   50.9960    9.5580 C.3   158  LEU158      0.0019
     31  CD1        5.2330   51.2370   11.0670 C.3   158  LEU158      0.0001
     32  CD2        6.8240   50.6000    9.2050 C.3   158  LEU158      0.0001
     33  N          2.1150   45.4220    8.6460 N.3   160  ARG160     -0.1245
     34  CA         1.8120   44.8380    9.9640 C.3   160  ARG160      0.1563
     35  C          0.4090   44.2390    9.9840 C.2   160  ARG160      0.2260
     36  O         -0.5090   44.7790    9.3460 O.2   160  ARG160     -0.2867
     37  CB         1.9090   45.8700   11.0840 C.3   160  ARG160      0.0307
     38  CG         3.2540   46.5520   11.2290 C.3   160  ARG160      0.0489
     39  CD         4.2590   45.6060   11.8920 C.3   160  ARG160      0.2205
     40  NE         5.5160   46.2940   12.1540 N.pl3 160  ARG160     -0.0865
     41  CZ         6.4600   46.4900   11.2320 C.cat 160  ARG160      0.5346
     42  NH1        6.2910   46.0450    9.9890 N.pl3 160  ARG160      0.1354
     43  NH2        7.5700   47.1380   11.5510 N.pl3 160  ARG160      0.1354
     44  N         -1.6640   44.5920   12.3550 N.3   162  ARG162     -0.1245
     45  CA        -2.5150   45.6570   12.8560 C.3   162  ARG162      0.1563
     46  C         -2.9720   46.6170   11.7620 C.2   162  ARG162      0.2260
     47  O         -3.8680   47.4300   12.0140 O.2   162  ARG162     -0.2867
     48  CB        -1.7850   46.4240   13.9620 C.3   162  ARG162      0.0307
     49  CG        -0.5790   47.2060   13.4810 C.3   162  ARG162      0.0489
     50  CD        -0.2090   48.2690   14.4920 C.3   162  ARG162      0.2205
     51  NE         0.9850   49.0160   14.1220 N.pl3 162  ARG162     -0.0865
     52  CZ         2.2340   48.6070   14.3370 C.cat 162  ARG162      0.5346
     53  NH1        3.2420   49.3660   13.9420 N.pl3 162  ARG162      0.1354
     54  NH2        2.4830   47.4380   14.9170 N.pl3 162  ARG162      0.1354
     55  N          9.8120   48.4100    7.7770 N.3   182  ASP182     -0.1225
     56  CA        10.3180   49.1490    8.9270 C.3   182  ASP182      0.1805
     57  C         10.6770   50.5250    8.4090 C.2   182  ASP182      0.2598
     58  O         10.9480   50.6880    7.2180 O.2   182  ASP182     -0.2718
     59  CB        11.5540   48.4810    9.5640 C.3   182  ASP182      0.1424
     60  CG        11.2210   47.6130   10.7880 C.2   182  ASP182      0.3668
     61  OD1       10.5660   48.1000   11.7510 O.co2 182  ASP182     -0.2456
     62  OD2       11.6470   46.4310   10.8000 O.co2 182  ASP182     -0.2456
     63  N         10.6950   51.5110    9.3060 N.am  183  GLY183     -0.1942
     64  CA        11.2750   52.8030    8.9600 C.3   183  GLY183      0.2014
     65  C         10.3380   53.9700    8.6940 C.2   183  GLY183      0.2638
     66  O         10.4430   54.6240    7.6470 O.2   183  GLY183     -0.2714
     67  N          9.4340   54.2920    9.6260 N.am  184  ASP184     -0.1971
     68  CA         8.4720   55.3320    9.2980 C.3   184  ASP184      0.1709
     69  C          8.9590   56.7260    9.6450 C.2   184  ASP184      0.2293
     70  O          8.1950   57.6770    9.4790 O.2   184  ASP184     -0.2864
     71  CB         7.0820   55.0630    9.9310 C.3   184  ASP184      0.1436
     72  CG         7.0870   55.0790   11.4560 C.2   184  ASP184      0.3671
     73  OD1        8.1690   55.2480   12.0860 O.co2 184  ASP184     -0.2456
     74  OD2        5.9760   54.9230   12.0260 O.co2 184  ASP184     -0.2456
     75  N          6.0710   53.9420   16.0770 N.3   206  GLY206     -0.1225
     76  CA         6.6060   54.2970   17.3780 C.3   206  GLY206      0.1811
     77  C          6.4040   55.7680   17.6790 C.2   206  GLY206      0.2280
     78  O          6.4970   56.6270   16.7980 O.2   206  GLY206     -0.2866
     79  N          9.6650   57.7610   17.0280 N.3   209  GLU209     -0.1245
     80  CA         9.7530   57.9760   15.5870 C.3   209  GLU209      0.1567
     81  C          8.8130   59.0810   15.1180 C.2   209  GLU209      0.2260
     82  O          9.1630   59.8670   14.2260 O.2   209  GLU209     -0.2867
     83  CB         9.4650   56.6690   14.8550 C.3   209  GLU209      0.0388
     84  CG        10.6090   55.6490   14.9800 C.3   209  GLU209      0.1160
     85  CD        10.5460   54.8250   16.2530 C.2   209  GLU209      0.3649
     86  OE1        9.6880   55.1080   17.1360 O.co2 209  GLU209     -0.2457
     87  OE2       11.3640   53.8810   16.3710 O.co2 209  GLU209     -0.2457
@<TRIPOS>BOND
     1    25    26    1
     2    58    57    2
     3    27    26    1
     4    27    28    2
     5    26    29    1
     6    66    65    2
     7    55    56    1
     8    57    56    1
     9    57    63   am
    10    33    34    1
    11    65    64    1
    12    65    67   am
    13    56    59    1
    14    64    63    1
    15    29    30    1
    16    32    30    1
    17    68    67    1
    18    68    69    1
    19    68    71    1
    20    36    35    2
    21    70    69    2
    22    30    31    1
    23    59    60    1
    24    71    72    1
    25    34    35    1
    26    34    37    1
    27    42    41    1
    28     4     3    2
    29    12    11    2
    30     8     6   ar
    31    60    62   ar
    32    60    61   ar
    33    37    38    1
    34    38    39    1
    35    41    43    1
    36    41    40    2
    37     5     6    1
    38     5     2    1
    39     3     2    1
    40     3     9   am
    41     6     7   ar
    42    72    74   ar
    43    72    73   ar
    44    11    10    1
    45    10     9    1
    46    46    47    2
    47    46    45    1
    48    39    40    1
    49     1     2    1
    50    44    45    1
    51    45    48    1
    52    49    48    1
    53    49    50    1
    54    53    52    1
    55    51    52    2
    56    51    50    1
    57    82    81    2
    58    52    54    1
    59    83    84    1
    60    83    80    1
    61    84    85    1
    62    81    80    1
    63    80    79    1
    64    75    76    1
    65    85    87   ar
    66    85    86   ar
    67    78    77    2
    68    76    77    1
    69    21    19   ar
    70    21    23   ar
    71    19    18   ar
    72    24    23    1
    73    23    22   ar
    74    18    17    1
    75    18    20   ar
    76    17    14    1
    77    15    14    1
    78    15    16    2
    79    22    20   ar
    80    14    13    1
