@<TRIPOS>MOLECULE
tmp/6aywB01.pdb
 167 157 0 0 0
SMALL
GASTEIGER

@<TRIPOS>ATOM
      1  N          8.6350   49.3760   81.5310 N.3    14  LEU14      -0.1231
      2  CA         7.3360   49.5460   80.9000 C.3    14  LEU14       0.1693
      3  C          7.1660   48.6810   79.6630 C.2    14  LEU14       0.2593
      4  O          6.0450   48.2480   79.3630 O.2    14  LEU14      -0.2718
      5  CB         7.1380   51.0180   80.5390 C.3    14  LEU14       0.0284
      6  CG         6.9900   51.9280   81.7550 C.3    14  LEU14       0.0019
      7  CD1        6.5000   53.3020   81.3460 C.3    14  LEU14       0.0001
      8  CD2        6.0200   51.3040   82.7570 C.3    14  LEU14       0.0001
      9  N          8.2450   48.4250   78.9400 N.am   15  GLY15      -0.1942
     10  CA         8.1740   47.6080   77.7470 C.3    15  GLY15       0.2014
     11  C          9.5650   47.4140   77.1850 C.2    15  GLY15       0.2639
     12  O         10.5420   48.0210   77.6440 O.2    15  GLY15      -0.2714
     13  N          9.6440   46.5410   76.1850 N.am   16  LYS16      -0.1963
     14  CA        10.8930   46.2230   75.5060 C.3    16  LYS16       0.1728
     15  C         10.7790   46.5860   74.0370 C.2    16  LYS16       0.2616
     16  O          9.7160   46.4260   73.4280 O.2    16  LYS16      -0.2715
     17  CB        11.2440   44.7360   75.6300 C.3    16  LYS16       0.0311
     18  CG        11.3760   44.2700   77.0630 C.3    16  LYS16       0.0038
     19  CD        12.8260   44.0250   77.5010 C.3    16  LYS16       0.0206
     20  CE        12.9920   44.3680   78.9800 C.3    16  LYS16       0.1093
     21  NZ        13.8150   43.4510   79.8380 N.3    16  LYS16      -0.1314
     22  N         11.8820   47.0680   73.4680 N.am   17  GLY17      -0.1955
     23  CA        11.9930   47.2710   72.0510 C.3    17  GLY17       0.1869
     24  C         12.8650   46.2240   71.3920 C.2    17  GLY17       0.2309
     25  O         13.1580   45.1640   71.9620 O.2    17  GLY17      -0.2863
     26  N         12.3590   50.4660   77.8320 N.3    22  VAL22      -0.1245
     27  CA        11.6880   51.6640   78.3140 C.3    22  VAL22       0.1561
     28  C         11.3780   51.4470   79.7870 C.2    22  VAL22       0.2260
     29  O         10.8760   50.3830   80.1700 O.2    22  VAL22      -0.2867
     30  CB        10.4030   51.9610   77.5180 C.3    22  VAL22       0.0252
     31  CG1        9.7260   53.1860   78.0820 C.3    22  VAL22       0.0019
     32  CG2       10.7220   52.1690   76.0430 C.3    22  VAL22       0.0019
     33  N          8.8370   58.5570   81.0620 N.3    35  ALA35      -0.1245
     34  CA         9.3210   57.3150   80.4900 C.3    35  ALA35       0.1562
     35  C         10.6630   57.5790   79.8230 C.2    35  ALA35       0.2260
     36  O         10.8490   58.6050   79.1540 O.2    35  ALA35      -0.2867
     37  CB         8.3290   56.7460   79.4740 C.3    35  ALA35       0.0290
     38  N         13.4390   55.9110   77.2410 N.3    37  LYS37      -0.1245
     39  CA        13.9210   54.9060   76.2990 C.3    37  LYS37       0.1561
     40  C         15.4370   54.8140   76.4560 C.2    37  LYS37       0.2260
     41  O         16.1650   55.7600   76.1370 O.2    37  LYS37      -0.2867
     42  CB        13.5310   55.2530   74.8620 C.3    37  LYS37       0.0271
     43  CG        13.9200   54.1670   73.8620 C.3    37  LYS37       0.0035
     44  CD        13.3940   54.4420   72.4700 C.3    37  LYS37       0.0206
     45  CE        13.8240   53.3410   71.5080 C.3    37  LYS37       0.1093
     46  NZ        13.0510   53.3920   70.2260 N.3    37  LYS37      -0.1314
     47  N         15.9130   59.5130   65.1740 N.3    55  GLU55      -0.1245
     48  CA        14.8150   59.3370   66.1180 C.3    55  GLU55       0.1567
     49  C         14.6790   60.5410   67.0460 C.2    55  GLU55       0.2260
     50  O         13.5850   61.0810   67.2220 O.2    55  GLU55      -0.2867
     51  CB        15.0440   58.0470   66.9130 C.3    55  GLU55       0.0388
     52  CG        13.9510   57.6910   67.9190 C.3    55  GLU55       0.1160
     53  CD        14.1640   56.3300   68.5830 C.2    55  GLU55       0.3649
     54  OE1       15.2370   55.7150   68.3780 O.co2  55  GLU55      -0.2457
     55  OE2       13.2500   55.8750   69.3110 O.co2  55  GLU55      -0.2457
     56  N          3.3910   61.0130   71.6880 N.3    68  VAL68      -0.1245
     57  CA         4.2620   61.1180   72.8600 C.3    68  VAL68       0.1561
     58  C          5.2080   62.2990   72.6770 C.2    68  VAL68       0.2260
     59  O          5.7240   62.5350   71.5830 O.2    68  VAL68      -0.2867
     60  CB         5.0420   59.8100   73.0850 C.3    68  VAL68       0.0252
     61  CG1        4.1280   58.7160   73.6110 C.3    68  VAL68       0.0019
     62  CG2        5.7070   59.3660   71.8090 C.3    68  VAL68       0.0019
     63  N         10.6170   60.8420   77.7280 N.3    84  PHE84      -0.1227
     64  CA         9.3000   61.2460   77.2420 C.3    84  PHE84       0.1736
     65  C          8.3690   61.4750   78.4200 C.2    84  PHE84       0.2595
     66  O          8.4750   60.7980   79.4470 O.2    84  PHE84      -0.2718
     67  CB         8.6670   60.1850   76.3360 C.3    84  PHE84       0.0547
     68  CG         9.4050   59.9540   75.0560 C.ar   84  PHE84      -0.0202
     69  CD1       10.4340   59.0300   74.9900 C.ar   84  PHE84      -0.0042
     70  CD2        9.0590   60.6480   73.9060 C.ar   84  PHE84      -0.0042
     71  CE1       11.1120   58.8090   73.8030 C.ar   84  PHE84      -0.0003
     72  CE2        9.7400   60.4340   72.7150 C.ar   84  PHE84      -0.0003
     73  CZ        10.7540   59.5140   72.6610 C.ar   84  PHE84      -0.0000
     74  N          7.4350   62.4080   78.2600 N.am   85  ASP85      -0.1960
     75  CA         6.3580   62.5190   79.2350 C.3    85  ASP85       0.1840
     76  C          5.6530   61.1730   79.3750 C.2    85  ASP85       0.2622
     77  O          5.5550   60.4080   78.4170 O.2    85  ASP85      -0.2715
     78  CB         5.3870   63.6170   78.8230 C.3    85  ASP85       0.1450
     79  CG         6.0500   64.9910   78.7620 C.2    85  ASP85       0.3671
     80  OD1        7.1990   65.1370   79.2320 O.co2  85  ASP85      -0.2456
     81  OD2        5.4310   65.9370   78.2380 O.co2  85  ASP85      -0.2456
     82  N          5.2310   60.8470   80.5920 N.am   86  LEU86      -0.1963
     83  CA         4.7010   59.5220   80.8830 C.3    86  LEU86       0.1728
     84  C          3.2030   59.4610   80.5750 C.2    86  LEU86       0.2616
     85  O          2.4460   60.3820   80.8980 O.2    86  LEU86      -0.2715
     86  CB         4.9570   59.1530   82.3470 C.3    86  LEU86       0.0311
     87  CG         4.5370   57.7450   82.7870 C.3    86  LEU86       0.0022
     88  CD1        5.3750   56.6380   82.1510 C.3    86  LEU86       0.0001
     89  CD2        4.5310   57.6130   84.3130 C.3    86  LEU86       0.0001
     90  N          2.7770   58.3750   79.9370 N.am   87  VAL87      -0.1977
     91  CA         1.3580   58.1150   79.6980 C.3    87  VAL87       0.1596
     92  C          0.9890   56.8490   80.4600 C.2    87  VAL87       0.2287
     93  O          1.6430   55.8080   80.3170 O.2    87  VAL87      -0.2864
     94  CB         1.0300   58.0110   78.1940 C.3    87  VAL87       0.0276
     95  CG1        1.4450   59.2850   77.4820 C.3    87  VAL87       0.0022
     96  CG2        1.6920   56.8290   77.5500 C.3    87  VAL87       0.0022
     97  N         -1.5160   52.6940   79.6120 N.3    90  GLY90      -0.1210
     98  CA        -1.1760   51.4080   79.0080 C.3    90  GLY90       0.1956
     99  C         -1.4660   51.3730   77.5060 C.2    90  GLY90       0.2611
    100  O         -1.6610   52.4030   76.8610 O.2    90  GLY90      -0.2717
    101  N         -1.4890   50.1520   76.9600 N.am   91  GLU91      -0.1979
    102  CA        -1.7830   49.9330   75.5500 C.3    91  GLU91       0.1602
    103  C         -3.2880   50.0240   75.2940 C.2    91  GLU91       0.2287
    104  O         -4.0970   49.5940   76.1190 O.2    91  GLU91      -0.2864
    105  CB        -1.2630   48.5630   75.1050 C.3    91  GLU91       0.0415
    106  CG         0.2400   48.4890   74.9390 C.3    91  GLU91       0.1163
    107  CD         0.7610   47.0630   74.7880 C.2    91  GLU91       0.3649
    108  OE1        1.9940   46.8700   74.9050 O.co2  91  GLU91      -0.2457
    109  OE2       -0.0420   46.1380   74.5550 O.co2  91  GLU91      -0.2457
    110  N          1.2960   49.9760   64.8350 N.3   132  LYS132     -0.1245
    111  CA         0.8570   48.6790   65.3230 C.3   132  LYS132      0.1561
    112  C          0.2820   48.8580   66.7270 C.2   132  LYS132      0.2260
    113  O          0.5140   49.8950   67.3690 O.2   132  LYS132     -0.2867
    114  CB         2.0140   47.6710   65.3080 C.3   132  LYS132      0.0271
    115  CG         3.1380   47.9770   66.2680 C.3   132  LYS132      0.0035
    116  CD         4.2120   46.9170   66.1300 C.3   132  LYS132      0.0206
    117  CE         5.4620   47.3010   66.8430 C.3   132  LYS132      0.1093
    118  NZ         6.3850   46.1530   66.7980 N.3   132  LYS132     -0.1314
    119  N          0.9680   47.7810   69.7250 N.3   134  GLU134     -0.1231
    120  CA         1.9590   48.0700   70.7660 C.3   134  GLU134      0.1699
    121  C          2.4410   49.5170   70.7510 C.2   134  GLU134      0.2592
    122  O          3.1220   49.9340   71.6960 O.2   134  GLU134     -0.2718
    123  CB         3.1690   47.1390   70.6210 C.3   134  GLU134      0.0402
    124  CG         2.8800   45.6450   70.8120 C.3   134  GLU134      0.1161
    125  CD         2.3790   44.9510   69.5410 C.2   134  GLU134      0.3649
    126  OE1        2.1280   45.6360   68.5210 O.co2 134  GLU134     -0.2457
    127  OE2        2.2330   43.7100   69.5660 O.co2 134  GLU134     -0.2457
    128  N          2.1340   50.2870   69.7050 N.am  135  ASN135     -0.1974
    129  CA         2.5620   51.6780   69.6180 C.3   135  ASN135      0.1688
    130  C          1.4600   52.6790   69.9080 C.2   135  ASN135      0.2292
    131  O          1.7120   53.8860   69.8150 O.2   135  ASN135     -0.2864
    132  CB         3.1490   51.9570   68.2380 C.3   135  ASN135      0.1181
    133  CG         4.5610   51.4540   68.1260 C.2   135  ASN135      0.2629
    134  OD1        5.1910   51.1690   69.1430 O.2   135  ASN135     -0.2716
    135  ND2        5.0590   51.3140   66.9040 N.am  135  ASN135     -0.0877
    136  N         -0.7380   54.0940   72.8090 N.3   137  LEU137     -0.1245
    137  CA        -0.8130   54.1970   74.2600 C.3   137  LEU137      0.1561
    138  C         -1.9380   55.1400   74.6550 C.2   137  LEU137      0.2260
    139  O         -2.3010   56.0440   73.9010 O.2   137  LEU137     -0.2867
    140  CB         0.5220   54.7020   74.8520 C.3   137  LEU137      0.0270
    141  CG         1.7700   53.9780   74.3710 C.3   137  LEU137      0.0019
    142  CD1        3.0740   54.5270   75.0130 C.3   137  LEU137      0.0001
    143  CD2        1.6140   52.4930   74.6480 C.3   137  LEU137      0.0001
    144  N          3.2970   56.3090   69.7080 N.3   150  ALA150     -0.1231
    145  CA         4.6210   56.2260   70.3180 C.3   150  ALA150      0.1694
    146  C          5.6240   55.5470   69.3910 C.2   150  ALA150      0.2592
    147  O          5.2780   55.0050   68.3360 O.2   150  ALA150     -0.2718
    148  CB         4.5730   55.4700   71.6520 C.3   150  ALA150      0.0304
    149  N          6.8920   55.5920   69.8170 N.am  151  ASP151     -0.1960
    150  CA         8.0060   54.8540   69.2200 C.3   151  ASP151      0.1840
    151  C          8.2610   55.2010   67.7570 C.2   151  ASP151      0.2622
    152  O          7.7410   54.5410   66.8500 O.2   151  ASP151     -0.2715
    153  CB         7.7910   53.3450   69.3550 C.3   151  ASP151      0.1450
    154  CG         9.1050   52.5650   69.3090 C.2   151  ASP151      0.3671
    155  OD1       10.1090   53.1090   68.7910 O.co2 151  ASP151     -0.2456
    156  OD2        9.1320   51.4110   69.7890 O.co2 151  ASP151     -0.2456
    157  N          9.1060   56.2050   67.5250 N.am  152  PHE152     -0.1974
    158  CA         9.5360   56.6020   66.1900 C.3   152  PHE152      0.1639
    159  C         10.8950   56.0130   65.8160 C.2   152  PHE152      0.2290
    160  O         11.6050   56.5650   64.9670 O.2   152  PHE152     -0.2864
    161  CB         9.5500   58.1270   66.0910 C.3   152  PHE152      0.0560
    162  CG         8.1790   58.7250   66.1290 C.ar  152  PHE152     -0.0200
    163  CD1        7.5530   58.9790   67.3390 C.ar  152  PHE152     -0.0042
    164  CD2        7.4970   58.9950   64.9550 C.ar  152  PHE152     -0.0042
    165  CE1        6.2620   59.5010   67.3690 C.ar  152  PHE152     -0.0003
    166  CE2        6.2220   59.5230   64.9820 C.ar  152  PHE152     -0.0003
    167  CZ         5.6050   59.7790   66.1860 C.ar  152  PHE152     -0.0000
@<TRIPOS>BOND
     1   110   111    1
     2   164   166   ar
     3   164   162   ar
     4   160   159    2
     5   166   167   ar
     6    47    48    1
     7   114   111    1
     8   114   115    1
     9   111   112    1
    10   159   158    1
    11   161   162    1
    12   161   158    1
    13    48    51    1
    14    48    49    1
    15   162   163   ar
    16   116   115    1
    17   116   117    1
    18   167   165   ar
    19   158   157    1
    20   112   113    2
    21   118   117    1
    22   152   151    2
    23   135   133   am
    24    51    52    1
    25    49    50    2
    26   163   165   ar
    27   157   151   am
    28   151   150    1
    29    52    53    1
    30   133   132    1
    31   133   134    2
    32   132   129    1
    33   147   146    2
    34    54    53   ar
    35   126   125   ar
    36    53    55   ar
    37   155   154   ar
    38   150   153    1
    39   150   149    1
    40   154   153    1
    41   154   156   ar
    42   146   149   am
    43   146   145    1
    44   125   127   ar
    45   125   124    1
    46   129   128    1
    47   129   130    1
    48   128   121   am
    49   144   145    1
    50   119   120    1
    51   131   130    2
    52    46    45    1
    53   145   148    1
    54   123   120    1
    55   123   124    1
    56   121   120    1
    57   121   122    2
    58    24    25    2
    59    24    23    1
    60    45    44    1
    61    59    58    2
    62    56    57    1
    63    62    60    1
    64    23    22    1
    65    44    43    1
    66    73    72   ar
    67    73    71   ar
    68    58    57    1
    69    72    70   ar
    70   136   137    1
    71    57    60    1
    72    60    61    1
    73    16    15    2
    74    22    15   am
    75    71    69   ar
    76    43    42    1
    77   139   138    2
    78    70    68   ar
    79    15    14    1
    80   137   138    1
    81   137   140    1
    82   141   143    1
    83   141   140    1
    84   141   142    1
    85   109   107   ar
    86   107   108   ar
    87   107   106    1
    88    42    39    1
    89   106   105    1
    90    69    68   ar
    91    68    67    1
    92   105   102    1
    93   103   102    1
    94   103   104    2
    95    14    17    1
    96    14    13    1
    97   102   101    1
    98    17    18    1
    99    32    30    1
   100    41    40    2
   101    13    11   am
   102    39    40    1
   103    39    38    1
   104    67    64    1
   105   100    99    2
   106   101    99   am
   107    18    19    1
   108    11    12    2
   109    11    10    1
   110    64    63    1
   111    64    65    1
   112    95    94    1
   113    19    20    1
   114    99    98    1
   115    30    31    1
   116    30    27    1
   117    96    94    1
   118    10     9    1
   119    26    27    1
   120    94    91    1
   121    81    79   ar
   122    74    65   am
   123    74    75    1
   124    27    28    1
   125    77    76    2
   126    65    66    2
   127    79    78    1
   128    79    80   ar
   129    78    75    1
   130     9     3   am
   131    20    21    1
   132    98    97    1
   133    36    35    2
   134    75    76    1
   135     4     3    2
   136    76    82   am
   137    37    34    1
   138     3     2    1
   139    91    90    1
   140    91    92    1
   141    28    29    2
   142    35    34    1
   143    90    84   am
   144    93    92    2
   145    34    33    1
   146     5     2    1
   147     5     6    1
   148    84    83    1
   149    84    85    2
   150    82    83    1
   151    83    86    1
   152     2     1    1
   153     7     6    1
   154     6     8    1
   155    88    87    1
   156    86    87    1
   157    87    89    1
