@<TRIPOS>MOLECULE
tmp/6az0B01.pdb
 162 156 0 0 0
SMALL
GASTEIGER

@<TRIPOS>ATOM
      1  N         42.4180  106.5290   93.6300 N.3     4  ASP4       -0.1225
      2  CA        43.8380  106.8520   93.6800 C.3     4  ASP4        0.1805
      3  C         44.5900  106.2750   92.4910 C.2     4  ASP4        0.2598
      4  O         45.7230  106.6840   92.2230 O.2     4  ASP4       -0.2718
      5  CB        44.4490  106.3380   94.9790 C.3     4  ASP4        0.1424
      6  CG        43.9730  107.1110   96.1920 C.2     4  ASP4        0.3668
      7  OD1       43.6440  108.3040   96.0470 O.co2   4  ASP4       -0.2456
      8  OD2       43.9290  106.5240   97.2960 O.co2   4  ASP4       -0.2456
      9  N         43.9910  105.3340   91.7670 N.am    5  VAL5       -0.1966
     10  CA        44.6490  104.7530   90.6060 C.3     5  VAL5        0.1727
     11  C         44.2720  105.5620   89.3750 C.2     5  VAL5        0.2616
     12  O         43.4210  105.1450   88.5830 O.2     5  VAL5       -0.2715
     13  CB        44.2640  103.2760   90.4300 C.3     5  VAL5        0.0290
     14  CG1       45.0150  102.6730   89.2640 C.3     5  VAL5        0.0023
     15  CG2       44.5160  102.5110   91.7000 C.3     5  VAL5        0.0023
     16  N         44.9210  106.7040   89.1850 N.am    6  CYS6       -0.1954
     17  CA        44.5600  107.5810   88.0830 C.3     6  CYS6        0.1843
     18  C         45.3440  107.2110   86.8340 C.2     6  CYS6        0.2626
     19  O         46.5680  107.0900   86.8660 O.2     6  CYS6       -0.2714
     20  CB        44.8200  109.0330   88.4610 C.3     6  CYS6        0.0997
     21  SG        43.7650  109.6300   89.7980 S.3     6  CYS6       -0.0797
     22  N         44.6360  107.0590   85.7220 N.am    7  GLY7       -0.1940
     23  CA        45.2130  106.4370   84.5510 C.3     7  GLY7        0.2014
     24  C         44.8570  104.9680   84.5380 C.2     7  GLY7        0.2639
     25  O         44.4530  104.3930   85.5480 O.2     7  GLY7       -0.2714
     26  N         44.9990  104.3600   83.3570 N.am    8  CYS8       -0.1967
     27  CA        44.6060  102.9680   83.0920 C.3     8  CYS8        0.1712
     28  C         43.2280  102.6400   83.6690 C.2     8  CYS8        0.2296
     29  O         43.0860  101.7940   84.5520 O.2     8  CYS8       -0.2864
     30  CB        45.6620  101.9680   83.5810 C.3     8  CYS8        0.0983
     31  SG        45.9650  101.8230   85.3580 S.3     8  CYS8       -0.0798
     32  N         57.3940   97.5420   84.2040 N.3    45  PRO45      -0.2102
     33  CA        57.7060   97.8930   85.5940 C.3    45  PRO45       0.1504
     34  C         57.2470   99.3000   85.9370 C.2    45  PRO45       0.2576
     35  O         57.5780  100.2610   85.2440 O.2    45  PRO45      -0.2718
     36  CB        59.2320   97.7840   85.6500 C.3    45  PRO45       0.0282
     37  CG        59.6000   96.9430   84.4990 C.3    45  PRO45       0.0208
     38  CD        58.6190   97.2960   83.4340 C.3    45  PRO45       0.0893
     39  N         56.4990   99.4160   87.0290 N.am   46  GLY46      -0.1943
     40  CA        56.1010  100.6980   87.5650 C.3    46  GLY46       0.2014
     41  C         54.7880  101.2410   87.0650 C.2    46  GLY46       0.2640
     42  O         54.4850  102.4040   87.3350 O.2    46  GLY46      -0.2714
     43  N         53.9910  100.4410   86.3660 N.am   47  THR47      -0.1936
     44  CA        52.7800  100.9440   85.7370 C.3    47  THR47       0.2028
     45  C         51.5900  101.0140   86.6800 C.2    47  THR47       0.2643
     46  O         50.6120  101.6930   86.3580 O.2    47  THR47      -0.2714
     47  CB        52.4350  100.0800   84.5330 C.3    47  THR47       0.1808
     48  OG1       52.2780   98.7270   84.9610 O.3    47  THR47      -0.2208
     49  CG2       53.5450  100.1460   83.5160 C.3    47  THR47       0.0379
     50  N         51.6440  100.3560   87.8320 N.am   48  GLY48      -0.1939
     51  CA        50.5790  100.5020   88.8030 C.3    48  GLY48       0.2014
     52  C         49.8310   99.2400   89.1680 C.2    48  GLY48       0.2639
     53  O         48.6330   99.2910   89.4410 O.2    48  GLY48      -0.2714
     54  N         50.5190   98.1020   89.1890 N.am   49  LYS49      -0.1963
     55  CA        49.8480   96.8380   89.4690 C.3    49  LYS49       0.1728
     56  C         49.5790   96.6550   90.9570 C.2    49  LYS49       0.2617
     57  O         48.4240   96.5090   91.3720 O.2    49  LYS49      -0.2715
     58  CB        50.6820   95.6870   88.9260 C.3    49  LYS49       0.0311
     59  CG        50.8240   95.7340   87.4340 C.3    49  LYS49       0.0038
     60  CD        51.6220   94.5700   86.9300 C.3    49  LYS49       0.0206
     61  CE        53.0830   94.7520   87.2220 C.3    49  LYS49       0.1093
     62  NZ        53.6310   95.8640   86.4140 N.3    49  LYS49      -0.1314
     63  N         50.6280   96.6640   91.7800 N.am   50  THR50      -0.1937
     64  CA        50.4250   96.5380   93.2170 C.3    50  THR50       0.2028
     65  C         49.6250   97.6980   93.7830 C.2    50  THR50       0.2642
     66  O         49.0630   97.5740   94.8720 O.2    50  THR50      -0.2714
     67  CB        51.7570   96.4370   93.9460 C.3    50  THR50       0.1808
     68  OG1       52.5060   97.6330   93.7360 O.3    50  THR50      -0.2208
     69  CG2       52.5540   95.2740   93.4260 C.3    50  THR50       0.0379
     70  N         49.5750   98.8240   93.0790 N.am   51  LEU51      -0.1977
     71  CA        48.6350   99.8690   93.4420 C.3    51  LEU51       0.1596
     72  C         47.2020   99.3940   93.2630 C.2    51  LEU51       0.2287
     73  O         46.3230   99.7760   94.0390 O.2    51  LEU51      -0.2864
     74  CB        48.9140  101.1060   92.5980 C.3    51  LEU51       0.0297
     75  CG        48.1360  102.3800   92.8750 C.3    51  LEU51       0.0022
     76  CD1       48.4480  102.8880   94.2570 C.3    51  LEU51       0.0001
     77  CD2       48.4830  103.4140   91.8360 C.3    51  LEU51       0.0001
     78  N         46.5610   96.9260   96.1670 N.3    54  ARG54      -0.1245
     79  CA        46.2930   97.6590   97.3950 C.3    54  ARG54       0.1563
     80  C         44.9310   98.3340   97.3510 C.2    54  ARG54       0.2260
     81  O         44.1710   98.2600   98.3230 O.2    54  ARG54      -0.2867
     82  CB        47.3940   98.6880   97.6190 C.3    54  ARG54       0.0307
     83  CG        47.3790   99.3450   98.9680 C.3    54  ARG54       0.0489
     84  CD        48.5120  100.3460   99.0700 C.3    54  ARG54       0.2205
     85  NE        49.8080   99.7150   98.8640 N.pl3  54  ARG54      -0.0865
     86  CZ        50.6200   99.9970   97.8540 C.cat  54  ARG54       0.5346
     87  NH1       50.2850  100.9160   96.9640 N.pl3  54  ARG54       0.1354
     88  NH2       51.7800   99.3720   97.7440 N.pl3  54  ARG54       0.1354
     89  N         52.2080   88.1830   94.8570 N.3   102  ASP102     -0.1225
     90  CA        52.9650   89.1280   94.0580 C.3   102  ASP102      0.1805
     91  C         54.2680   88.4980   93.5990 C.2   102  ASP102      0.2597
     92  O         54.8760   87.6960   94.3090 O.2   102  ASP102     -0.2718
     93  CB        53.2530   90.3940   94.8560 C.3   102  ASP102      0.1424
     94  CG        53.6800   91.5340   93.9820 C.2   102  ASP102      0.3668
     95  OD1       53.7820   91.3240   92.7590 O.co2 102  ASP102     -0.2456
     96  OD2       53.8990   92.6420   94.5120 O.co2 102  ASP102     -0.2456
     97  N         54.7010   88.8760   92.3990 N.am  103  GLN103     -0.1979
     98  CA        55.8970   88.3110   91.7820 C.3   103  GLN103      0.1601
     99  C         55.7420   86.8010   91.5670 C.2   103  GLN103      0.2287
    100  O         56.4360   85.9880   92.1730 O.2   103  GLN103     -0.2864
    101  CB        57.1400   88.5940   92.6330 C.3   103  GLN103      0.0394
    102  CG        57.4930   90.0550   92.8260 C.3   103  GLN103      0.0908
    103  CD        57.9090   90.7290   91.5450 C.2   103  GLN103      0.2608
    104  OE1       58.5550   90.1250   90.6940 O.2   103  GLN103     -0.2717
    105  NE2       57.5600   91.9980   91.4080 N.am  103  GLN103     -0.0878
    106  N         55.3650   90.8400   85.5400 N.3   146  ASN146     -0.1240
    107  CA        55.7550   91.6550   84.4020 C.3   146  ASN146      0.1653
    108  C         56.4200   90.8470   83.3020 C.2   146  ASN146      0.2266
    109  O         56.7780   91.4140   82.2660 O.2   146  ASN146     -0.2867
    110  CB        56.6690   92.7950   84.8580 C.3   146  ASN146      0.1155
    111  CG        57.8330   92.3120   85.6690 C.2   146  ASN146      0.2627
    112  OD1       58.0430   91.1120   85.8070 O.2   146  ASN146     -0.2716
    113  ND2       58.5900   93.2400   86.2320 N.am  146  ASN146     -0.0877
    114  N         51.2350  104.1580   80.4950 N.3   170  PRO170     -0.2116
    115  CA        50.1880  105.1660   80.2950 C.3   170  PRO170      0.1372
    116  C         50.4020  106.0030   79.0470 C.2   170  PRO170      0.2244
    117  O         51.5220  106.1540   78.5600 O.2   170  PRO170     -0.2868
    118  CB        50.2880  106.0280   81.5560 C.3   170  PRO170      0.0268
    119  CG        50.8990  105.1490   82.5550 C.3   170  PRO170      0.0207
    120  CD        51.8800  104.3050   81.8040 C.3   170  PRO170      0.0892
    121  N         47.4970  111.4280   86.0300 N.3   178  ILE178     -0.1245
    122  CA        48.4120  111.0330   87.0930 C.3   178  ILE178      0.1561
    123  C         49.0550  112.2560   87.7210 C.2   178  ILE178      0.2260
    124  O         49.0730  112.4020   88.9490 O.2   178  ILE178     -0.2867
    125  CB        49.4770  110.0690   86.5520 C.3   178  ILE178      0.0252
    126  CG1       48.8210  108.8090   86.0090 C.3   178  ILE178      0.0019
    127  CG2       50.4580  109.7230   87.6410 C.3   178  ILE178      0.0019
    128  CD1       49.7400  107.9630   85.1900 C.3   178  ILE178      0.0001
    129  N         46.8880  114.0140   89.8110 N.3   181  HIS181     -0.1226
    130  CA        46.6260  113.2990   91.0540 C.3   181  HIS181      0.1752
    131  C         47.7280  113.5050   92.0780 C.2   181  HIS181      0.2596
    132  O         47.4480  113.6150   93.2750 O.2   181  HIS181     -0.2718
    133  CB        46.4550  111.8070   90.8060 C.3   181  HIS181      0.0759
    134  CG        46.3210  111.0200   92.0670 C.ar  181  HIS181      0.0818
    135  ND1       45.1930  111.0660   92.8540 N.ar  181  HIS181     -0.2268
    136  CD2       47.1840  110.1880   92.6950 C.ar  181  HIS181      0.1154
    137  CE1       45.3610  110.2850   93.9060 C.ar  181  HIS181      0.1986
    138  NE2       46.5600  109.7410   93.8330 N.ar  181  HIS181     -0.2212
    139  N         48.9860  113.5270   91.6440 N.am  182  HIS182     -0.1975
    140  CA        50.0670  113.7310   92.5970 C.3   182  HIS182      0.1656
    141  C         50.2700  115.1940   92.9500 C.2   182  HIS182      0.2291
    142  O         50.9300  115.4860   93.9500 O.2   182  HIS182     -0.2864
    143  CB        51.3670  113.1340   92.0680 C.3   182  HIS182      0.0771
    144  CG        51.3690  111.6420   92.0500 C.ar  182  HIS182      0.0820
    145  ND1       51.4450  110.8900   93.2000 N.ar  182  HIS182     -0.2267
    146  CD2       51.3030  110.7600   91.0270 C.ar  182  HIS182      0.1154
    147  CE1       51.4220  109.6080   92.8870 C.ar  182  HIS182      0.1986
    148  NE2       51.3370  109.5020   91.5750 N.ar  182  HIS182     -0.2212
    149  N         53.7640  105.6340   86.1490 N.3   206  GLY206     -0.1210
    150  CA        53.3510  106.4400   87.2790 C.3   206  GLY206      0.1956
    151  C         54.4810  106.7710   88.2240 C.2   206  GLY206      0.2611
    152  O         54.5330  107.8820   88.7630 O.2   206  GLY206     -0.2717
    153  N         55.3990  105.8280   88.4330 N.am  207  ALA207     -0.1979
    154  CA        56.4890  106.0410   89.3750 C.3   207  ALA207      0.1597
    155  C         57.3610  107.2160   88.9620 C.2   207  ALA207      0.2287
    156  O         57.7360  108.0380   89.8050 O.2   207  ALA207     -0.2864
    157  CB        57.3240  104.7730   89.4970 C.3   207  ALA207      0.0319
    158  N         55.4620  110.5170   89.7090 N.3   210  ALA210     -0.1245
    159  CA        55.4920  110.8140   91.1350 C.3   210  ALA210      0.1562
    160  C         56.8650  111.3160   91.5580 C.2   210  ALA210      0.2260
    161  O         56.9750  112.2850   92.3210 O.2   210  ALA210     -0.2867
    162  CB        55.1070  109.5750   91.9350 C.3   210  ALA210      0.0290
@<TRIPOS>BOND
     1   117   116    2
     2   116   115    1
     3   115   114    1
     4   115   118    1
     5   114   120    1
     6   118   119    1
     7   120   119    1
     8   109   108    2
     9    27    26    1
    10    27    30    1
    11    27    28    1
    12   108   107    1
    13    26    24   am
    14    38    32    1
    15    38    37    1
    16    49    47    1
    17    30    31    1
    18    28    29    2
    19    32    33    1
    20   107   110    1
    21   107   106    1
    22    37    36    1
    23    47    48    1
    24    47    44    1
    25    24    23    1
    26    24    25    2
    27    23    22    1
    28   110   111    1
    29   128   126    1
    30    35    34    2
    31    33    36    1
    32    33    34    1
    33   111   112    2
    34   111   113   am
    35    22    18   am
    36    44    43    1
    37    44    45    1
    38    34    39   am
    39   126   125    1
    40   121   122    1
    41   149   150    1
    42    46    45    2
    43    43    41   am
    44    62    61    1
    45   125   122    1
    46   125   127    1
    47    45    50   am
    48    18    19    2
    49    18    17    1
    50    60    61    1
    51    60    59    1
    52    39    40    1
    53    41    42    2
    54    41    40    1
    55   122   123    1
    56   150   151    1
    57    59    58    1
    58   123   124    2
    59    50    51    1
    60    17    20    1
    61    17    16    1
    62   151   153   am
    63   151   152    2
    64   153   154    1
    65    20    21    1
    66    12    11    2
    67    51    52    1
    68    58    55    1
    69   155   154    1
    70   155   156    2
    71    52    54   am
    72    52    53    2
    73    16    11   am
    74    54    55    1
    75    14    13    1
    76   154   157    1
    77    11    10    1
    78    55    56    1
    79   158   159    1
    80   129   130    1
    81    13    10    1
    82    13    15    1
    83    10     9    1
    84   104   103    2
    85   133   130    1
    86   133   134    1
    87    56    57    2
    88    56    63   am
    89   146   148   ar
    90   146   144   ar
    91   130   131    1
    92   159   160    1
    93   159   162    1
    94   105   103   am
    95   103   102    1
    96   160   161    2
    97    99    98    1
    98    99   100    2
    99   148   147   ar
   100   139   131   am
   101   139   140    1
   102     9     3   am
   103    63    64    1
   104    98    97    1
   105    98   101    1
   106    77    75    1
   107   144   143    1
   108   144   145   ar
   109   134   136   ar
   110   134   135   ar
   111   143   140    1
   112   131   132    2
   113     4     3    2
   114    97    91   am
   115     3     2    1
   116   140   141    1
   117    74    75    1
   118    74    71    1
   119   101   102    1
   120   136   138   ar
   121    95    94   ar
   122   135   137   ar
   123    75    76    1
   124   147   145   ar
   125   141   142    2
   126    70    71    1
   127    70    65   am
   128    64    65    1
   129    64    67    1
   130    72    71    1
   131    72    73    2
   132    69    67    1
   133    91    90    1
   134    91    92    2
   135     1     2    1
   136     2     5    1
   137    68    67    1
   138    65    66    2
   139   138   137   ar
   140    94    96   ar
   141    94    93    1
   142    90    93    1
   143    90    89    1
   144     5     6    1
   145     7     6   ar
   146    78    79    1
   147     6     8   ar
   148    87    86    1
   149    80    79    1
   150    80    81    2
   151    79    82    1
   152    82    83    1
   153    88    86    1
   154    86    85    2
   155    85    84    1
   156    83    84    1
