@<TRIPOS>MOLECULE
tmp/6az0E01.pdb
 131 125 0 0 0
SMALL
GASTEIGER

@<TRIPOS>ATOM
      1  N        108.8030   41.7020   84.0680 N.3     4  ASP4       -0.1225
      2  CA       107.4700   41.5480   83.5090 C.3     4  ASP4        0.1805
      3  C        107.2350   42.4530   82.3130 C.2     4  ASP4        0.2598
      4  O        106.3480   42.1700   81.5040 O.2     4  ASP4       -0.2718
      5  CB       106.4270   41.8300   84.5790 C.3     4  ASP4        0.1424
      6  CG       106.5030   40.8540   85.7190 C.2     4  ASP4        0.3668
      7  OD1      106.9590   39.7160   85.4890 O.co2   4  ASP4       -0.2456
      8  OD2      106.1110   41.2200   86.8460 O.co2   4  ASP4       -0.2456
      9  N        107.9930   43.5350   82.1850 N.am    5  VAL5       -0.1966
     10  CA       107.8880   44.4290   81.0400 C.3     5  VAL5        0.1727
     11  C        108.9450   44.0020   80.0280 C.2     5  VAL5        0.2616
     12  O        110.0650   44.5160   80.0100 O.2     5  VAL5       -0.2715
     13  CB       108.0180   45.8980   81.4490 C.3     5  VAL5        0.0290
     14  CG1      109.2790   46.1330   82.2420 C.3     5  VAL5        0.0023
     15  CG2      108.0110   46.7750   80.2240 C.3     5  VAL5        0.0023
     16  N        108.5790   43.0580   79.1680 N.am    6  CYS6       -0.1954
     17  CA       109.4730   42.5410   78.1450 C.3     6  CYS6        0.1843
     18  C        109.3380   43.3670   76.8750 C.2     6  CYS6        0.2626
     19  O        108.2480   43.4870   76.3100 O.2     6  CYS6       -0.2714
     20  CB       109.1810   41.0690   77.8620 C.3     6  CYS6        0.0997
     21  SG       109.5840   39.9730   79.2450 S.3     6  CYS6       -0.0797
     22  N        110.4600   43.9040   76.4130 N.am    7  GLY7       -0.1940
     23  CA       110.4570   44.9870   75.4560 C.3     7  GLY7        0.2014
     24  C        110.6390   46.3080   76.1740 C.2     7  GLY7        0.2639
     25  O        110.4610   46.4220   77.3870 O.2     7  GLY7       -0.2714
     26  N        111.0050   47.3350   75.4090 N.am    8  CYS8       -0.1967
     27  CA       111.3020   48.6470   75.9810 C.3     8  CYS8        0.1712
     28  C        112.4640   48.5450   76.9740 C.2     8  CYS8        0.2296
     29  O        112.3250   48.7630   78.1750 O.2     8  CYS8       -0.2864
     30  CB       110.0620   49.2440   76.6540 C.3     8  CYS8        0.0983
     31  SG       108.6720   49.5330   75.5470 S.3     8  CYS8       -0.0798
     32  N         98.1450   51.5410   75.0580 N.3    46  GLY46      -0.1210
     33  CA        98.4300   50.1430   75.3000 C.3    46  GLY46       0.1956
     34  C         99.8100   49.6870   74.8950 C.2    46  GLY46       0.2613
     35  O         99.9420   48.6380   74.2650 O.2    46  GLY46      -0.2717
     36  N        100.8450   50.4580   75.2200 N.am   47  THR47      -0.1938
     37  CA       102.2210   50.0390   74.9950 C.3    47  THR47       0.2028
     38  C        102.9240   49.6820   76.2970 C.2    47  THR47       0.2643
     39  O        104.1480   49.5420   76.3200 O.2    47  THR47      -0.2714
     40  CB       103.0080   51.1200   74.2560 C.3    47  THR47       0.1808
     41  OG1      103.0460   52.3070   75.0490 O.3    47  THR47      -0.2208
     42  CG2      102.3600   51.4340   72.9340 C.3    47  THR47       0.0379
     43  N        102.1740   49.5370   77.3800 N.am   48  GLY48      -0.1939
     44  CA       102.7740   49.1940   78.6500 C.3    48  GLY48       0.2014
     45  C        103.4200   50.3640   79.3550 C.2    48  GLY48       0.2639
     46  O        104.6380   50.3880   79.5400 O.2    48  GLY48      -0.2714
     47  N        102.6160   51.3490   79.7440 N.am   49  LYS49      -0.1963
     48  CA       103.0960   52.4660   80.5430 C.3    49  LYS49       0.1728
     49  C        102.7340   52.3090   82.0120 C.2    49  LYS49       0.2617
     50  O        103.5910   52.4830   82.8780 O.2    49  LYS49      -0.2715
     51  CB       102.5430   53.7860   80.0030 C.3    49  LYS49       0.0311
     52  CG       102.9910   54.1050   78.5960 C.3    49  LYS49       0.0038
     53  CD       102.4830   55.4500   78.1670 C.3    49  LYS49       0.0206
     54  CE       100.9820   55.4280   78.0390 C.3    49  LYS49       0.1093
     55  NZ       100.5550   54.5180   76.9560 N.3    49  LYS49      -0.1314
     56  N        101.4790   51.9680   82.3140 N.am   50  THR50      -0.1937
     57  CA       101.1290   51.6750   83.6970 C.3    50  THR50       0.2028
     58  C        101.8670   50.4470   84.1950 C.2    50  THR50       0.2642
     59  O        102.1380   50.3280   85.3940 O.2    50  THR50      -0.2714
     60  CB        99.6310   51.4540   83.8450 C.3    50  THR50       0.1808
     61  OG1       99.2620   50.2600   83.1520 O.3    50  THR50      -0.2208
     62  CG2       98.8720   52.6070   83.2540 C.3    50  THR50       0.0379
     63  N        102.1880   49.5260   83.2920 N.am   51  LEU51      -0.1977
     64  CA       102.9890   48.3710   83.6660 C.3    51  LEU51       0.1596
     65  C        104.3540   48.7980   84.1880 C.2    51  LEU51       0.2287
     66  O        104.8400   48.2540   85.1840 O.2    51  LEU51      -0.2864
     67  CB       103.1250   47.4370   82.4660 C.3    51  LEU51       0.0297
     68  CG       103.8570   46.1220   82.6950 C.3    51  LEU51       0.0022
     69  CD1      103.1070   45.2880   83.7020 C.3    51  LEU51       0.0001
     70  CD2      103.9990   45.3760   81.3940 C.3    51  LEU51       0.0001
     71  N        103.8730   50.4350   87.7170 N.3    54  ARG54      -0.1245
     72  CA       103.7480   49.4130   88.7480 C.3    54  ARG54       0.1563
     73  C        105.0290   48.6110   88.8920 C.2    54  ARG54       0.2260
     74  O        105.2560   47.9950   89.9360 O.2    54  ARG54      -0.2867
     75  CB       102.5760   48.4810   88.4660 C.3    54  ARG54       0.0307
     76  CG       101.2310   49.1450   88.6170 C.3    54  ARG54       0.0489
     77  CD       100.1200   48.1300   88.8040 C.3    54  ARG54       0.2205
     78  NE        99.9280   47.2670   87.6470 N.pl3  54  ARG54      -0.0865
     79  CZ        99.1230   47.5550   86.6330 C.cat  54  ARG54       0.5346
     80  NH1       98.4440   48.6920   86.6300 N.pl3  54  ARG54       0.1354
     81  NH2       99.0030   46.7100   85.6210 N.pl3  54  ARG54       0.1354
     82  N         97.3190   58.8780   84.8480 N.3   102  ASP102     -0.1239
     83  CA        97.1680   58.3300   83.5100 C.3   102  ASP102      0.1674
     84  C         96.2880   59.2390   82.6660 C.2   102  ASP102      0.2266
     85  O         95.2500   59.7190   83.1270 O.2   102  ASP102     -0.2867
     86  CB        96.5720   56.9260   83.5740 C.3   102  ASP102      0.1410
     87  CG        96.5410   56.2430   82.2280 C.2   102  ASP102      0.3668
     88  OD1       97.6120   55.8260   81.7440 O.co2 102  ASP102     -0.2456
     89  OD2       95.4420   56.1070   81.6570 O.co2 102  ASP102     -0.2456
     90  N        107.7910   39.9190   73.8230 N.3   178  ILE178     -0.1245
     91  CA       106.4940   39.9080   74.4900 C.3   178  ILE178      0.1561
     92  C        105.8100   38.5630   74.2950 C.2   178  ILE178      0.2260
     93  O        105.2950   37.9680   75.2510 O.2   178  ILE178     -0.2867
     94  CB       105.6110   41.0580   73.9850 C.3   178  ILE178      0.0252
     95  CG1      106.2610   42.4020   74.2770 C.3   178  ILE178      0.0019
     96  CG2      104.2630   40.9980   74.6520 C.3   178  ILE178      0.0019
     97  CD1      105.5880   43.5500   73.5930 C.3   178  ILE178      0.0001
     98  N        107.3070   36.0040   76.4040 N.3   181  HIS181     -0.1226
     99  CA       106.9880   36.1760   77.8130 C.3   181  HIS181      0.1752
    100  C        105.5920   35.6650   78.1390 C.2   181  HIS181      0.2596
    101  O        105.3980   34.9880   79.1530 O.2   181  HIS181     -0.2718
    102  CB       107.1170   37.6430   78.2000 C.3   181  HIS181      0.0759
    103  CG       106.8470   37.8990   79.6430 C.ar  181  HIS181      0.0818
    104  ND1      107.7610   37.6140   80.6310 N.ar  181  HIS181     -0.2268
    105  CD2      105.7510   38.3810   80.2700 C.ar  181  HIS181      0.1154
    106  CE1      107.2470   37.9300   81.8050 C.ar  181  HIS181      0.1986
    107  NE2      106.0270   38.3960   81.6140 N.ar  181  HIS181     -0.2212
    108  N        104.6020   35.9720   77.3000 N.am  182  HIS182     -0.1975
    109  CA       103.2440   35.5620   77.6380 C.3   182  HIS182      0.1656
    110  C        102.9930   34.1050   77.2820 C.2   182  HIS182      0.2291
    111  O        102.1990   33.4330   77.9480 O.2   182  HIS182     -0.2864
    112  CB       102.2290   36.4770   76.9650 C.3   182  HIS182      0.0771
    113  CG       102.2030   37.8550   77.5400 C.ar  182  HIS182      0.0820
    114  ND1      101.6530   38.1310   78.7710 N.ar  182  HIS182     -0.2267
    115  CD2      102.6730   39.0320   77.0660 C.ar  182  HIS182      0.1154
    116  CE1      101.7790   39.4180   79.0290 C.ar  182  HIS182      0.1986
    117  NE2      102.3920   39.9890   78.0090 N.ar  182  HIS182     -0.2212
    118  N        101.6900   45.6880   72.9170 N.3   206  GLY206     -0.1210
    119  CA       101.8590   44.6810   73.9500 C.3   206  GLY206      0.1956
    120  C        100.5550   44.0210   74.3490 C.2   206  GLY206      0.2611
    121  O        100.4780   42.7930   74.4600 O.2   206  GLY206     -0.2717
    122  N         99.5130   44.8210   74.5640 N.am  207  ALA207     -0.1979
    123  CA        98.2320   44.2600   74.9720 C.3   207  ALA207      0.1597
    124  C         97.6680   43.3220   73.9160 C.2   207  ALA207      0.2287
    125  O         97.2340   42.2100   74.2410 O.2   207  ALA207     -0.2864
    126  CB        97.2440   45.3850   75.2630 C.3   207  ALA207      0.0319
    127  N         99.3040   40.0950   74.1180 N.3   210  ALA210     -0.1245
    128  CA        98.8780   39.3190   75.2740 C.3   210  ALA210      0.1562
    129  C         97.5300   38.6540   75.0480 C.2   210  ALA210      0.2260
    130  O         97.3740   37.4620   75.3380 O.2   210  ALA210     -0.2867
    131  CB        98.8250   40.2080   76.5090 C.3   210  ALA210      0.0290
@<TRIPOS>BOND
     1   118   119    1
     2    42    40    1
     3    97    95    1
     4    90    91    1
     5   124   125    2
     6   124   123    1
     7   119   120    1
     8    94    95    1
     9    94    91    1
    10    94    96    1
    11   127   128    1
    12    40    37    1
    13    40    41    1
    14    35    34    2
    15    92    91    1
    16    92    93    2
    17   120   121    2
    18   120   122   am
    19   122   123    1
    20    34    36   am
    21    34    33    1
    22   123   126    1
    23    37    36    1
    24    37    38    1
    25   129   128    1
    26   129   130    2
    27    32    33    1
    28   128   131    1
    29    26    27    1
    30    26    24   am
    31    23    24    1
    32    23    22    1
    33    31    30    1
    34    27    30    1
    35    27    28    1
    36    24    25    2
    37    38    39    2
    38    38    43   am
    39    19    18    2
    40    98    99    1
    41    22    18   am
    42    18    17    1
    43    55    54    1
    44   112   113    1
    45   112   109    1
    46    28    29    2
    47   115   113   ar
    48   115   117   ar
    49   110   109    1
    50   110   111    2
    51   108   109    1
    52   108   100   am
    53    43    44    1
    54   113   114   ar
    55    99   100    1
    56    99   102    1
    57    20    17    1
    58    20    21    1
    59   117   116   ar
    60    54    53    1
    61   100   101    2
    62    17    16    1
    63    53    52    1
    64   102   103    1
    65    52    51    1
    66    44    45    1
    67   114   116   ar
    68    16    11   am
    69    45    46    2
    70    45    47   am
    71   103   105   ar
    72   103   104   ar
    73    47    48    1
    74    51    48    1
    75    12    11    2
    76    11    10    1
    77    15    13    1
    78   105   107   ar
    79    48    49    1
    80   104   106   ar
    81    10    13    1
    82    10     9    1
    83    70    68    1
    84    13    14    1
    85     4     3    2
    86   107   106   ar
    87    89    87   ar
    88    88    87   ar
    89    49    56   am
    90    49    50    2
    91     9     3   am
    92    87    86    1
    93     3     2    1
    94    56    57    1
    95    67    68    1
    96    67    64    1
    97    84    85    2
    98    84    83    1
    99    68    69    1
   100    61    60    1
   101    62    60    1
   102    63    64    1
   103    63    58   am
   104     2     1    1
   105     2     5    1
   106    83    86    1
   107    83    82    1
   108    64    65    1
   109    57    60    1
   110    57    58    1
   111    65    66    2
   112    58    59    2
   113     5     6    1
   114     7     6   ar
   115    81    79    1
   116     6     8   ar
   117    80    79    1
   118    79    78    2
   119    78    77    1
   120    71    72    1
   121    75    76    1
   122    75    72    1
   123    76    77    1
   124    72    73    1
   125    73    74    2
