@<TRIPOS>MOLECULE
tmp/6azjB00.pdb
 198 189 0 0 0
SMALL
GASTEIGER

@<TRIPOS>ATOM
      1  N         -5.1430   -9.3330   15.2910 N.3   170  TYR170     -0.1241
      2  CA        -3.9460   -8.5570   15.6370 C.3   170  TYR170      0.1605
      3  C         -3.8600   -8.1820   17.1200 C.2   170  TYR170      0.2264
      4  O         -2.9200   -7.4930   17.5200 O.2   170  TYR170     -0.2867
      5  CB        -3.8530   -7.3150   14.7450 C.3   170  TYR170      0.0534
      6  CG        -3.6530   -7.6620   13.2910 C.ar  170  TYR170     -0.0201
      7  CD1       -2.3960   -8.0050   12.8030 C.ar  170  TYR170     -0.0009
      8  CD2       -4.7320   -7.7060   12.4100 C.ar  170  TYR170     -0.0009
      9  CE1       -2.2080   -8.3490   11.4630 C.ar  170  TYR170      0.0417
     10  CE2       -4.5550   -8.0350   11.0640 C.ar  170  TYR170      0.0417
     11  CZ        -3.2920   -8.3670   10.5980 C.ar  170  TYR170      0.1957
     12  OH        -3.1110   -8.7170    9.2780 O.3   170  TYR170     -0.2866
     13  N         -0.1470  -10.8790   19.8140 N.3   173  HIS173     -0.1241
     14  CA         1.0850  -11.0220   19.0430 C.3   173  HIS173      0.1621
     15  C          2.0390  -12.0770   19.6470 C.2   173  HIS173      0.2264
     16  O          2.1760  -12.1930   20.8720 O.2   173  HIS173     -0.2867
     17  CB         1.7650   -9.6230   18.9150 C.3   173  HIS173      0.0745
     18  CG         2.7260   -9.4860   17.7630 C.ar  173  HIS173      0.0817
     19  ND1        2.3070   -9.0300   16.5190 N.ar  173  HIS173     -0.2268
     20  CD2        4.0520   -9.7360   17.7050 C.ar  173  HIS173      0.1154
     21  CE1        3.3820   -9.0350   15.7480 C.ar  173  HIS173      0.1986
     22  NE2        4.4550   -9.4510   16.4170 N.ar  173  HIS173     -0.2212
     23  N          5.5760  -13.2100   20.7710 N.3   175  PHE175     -0.1241
     24  CA         6.9000  -12.7780   21.2470 C.3   175  PHE175      0.1605
     25  C          7.7720  -13.9850   21.7330 C.2   175  PHE175      0.2264
     26  O          8.8810  -13.7870   22.2340 O.2   175  PHE175     -0.2867
     27  CB         6.7660  -11.7210   22.3730 C.3   175  PHE175      0.0534
     28  CG         6.0880  -10.3990   22.0480 C.ar  175  PHE175     -0.0203
     29  CD1        5.9330   -9.9750   20.7330 C.ar  175  PHE175     -0.0042
     30  CD2        5.6300   -9.5690   23.0610 C.ar  175  PHE175     -0.0042
     31  CE1        5.3080   -8.7540   20.4380 C.ar  175  PHE175     -0.0003
     32  CE2        5.0220   -8.3440   22.7640 C.ar  175  PHE175     -0.0003
     33  CZ         4.8310   -7.9690   21.4540 C.ar  175  PHE175     -0.0000
     34  N          9.8290  -16.4040   20.4680 N.3   177  TYR177     -0.1227
     35  CA        11.0930  -16.9300   19.9090 C.3   177  TYR177      0.1736
     36  C         12.2100  -17.2150   20.9370 C.2   177  TYR177      0.2595
     37  O         12.8520  -18.2720   20.8830 O.2   177  TYR177     -0.2718
     38  CB        11.6290  -16.0140   18.7880 C.3   177  TYR177      0.0548
     39  CG        12.2570  -16.6840   17.5840 C.ar  177  TYR177     -0.0200
     40  CD1       12.8680  -17.9300   17.6890 C.ar  177  TYR177     -0.0009
     41  CD2       12.3000  -16.0400   16.3490 C.ar  177  TYR177     -0.0009
     42  CE1       13.4230  -18.5610   16.5710 C.ar  177  TYR177      0.0417
     43  CE2       12.8810  -16.6470   15.2310 C.ar  177  TYR177      0.0417
     44  CZ        13.4270  -17.9130   15.3430 C.ar  177  TYR177      0.1957
     45  OH        13.9940  -18.5100   14.2480 O.3   177  TYR177     -0.2866
     46  N         12.4330  -16.2730   21.8500 N.am  178  ARG178     -0.1980
     47  CA        13.4690  -16.3540   22.8960 C.3   178  ARG178      0.1597
     48  C         13.1320  -17.3750   23.9680 C.2   178  ARG178      0.2287
     49  O         14.0340  -18.0210   24.5110 O.2   178  ARG178     -0.2864
     50  CB        13.5750  -14.9980   23.6160 C.3   178  ARG178      0.0334
     51  CG        14.5970  -14.0640   23.0190 C.3   178  ARG178      0.0492
     52  CD        14.4650  -12.7110   23.6810 C.3   178  ARG178      0.2205
     53  NE        13.6690  -11.8180   22.8480 N.pl3 178  ARG178     -0.0865
     54  CZ        13.4600  -10.5350   23.1060 C.cat 178  ARG178      0.5346
     55  NH1       13.9560   -9.9800   24.2050 N.pl3 178  ARG178      0.1354
     56  NH2       12.7470   -9.7980   22.2730 N.pl3 178  ARG178      0.1354
     57  N         -0.4950  -11.7580   13.8870 N.3   199  GLY199     -0.1225
     58  CA         0.6810  -11.1070   14.4520 C.3   199  GLY199      0.1811
     59  C          1.7820  -12.0000   15.0100 C.2   199  GLY199      0.2280
     60  O          1.6240  -12.6400   16.0530 O.2   199  GLY199     -0.2866
     61  N          6.3340  -12.2530   15.7140 N.3   201  ASP201     -0.1239
     62  CA         7.7380  -11.8180   15.6680 C.3   201  ASP201      0.1674
     63  C          8.6830  -13.0540   15.4990 C.2   201  ASP201      0.2266
     64  O          9.8900  -12.9100   15.2270 O.2   201  ASP201     -0.2867
     65  CB         8.1220  -10.9540   16.8760 C.3   201  ASP201      0.1410
     66  CG         8.1270   -9.4660   16.6010 C.2   201  ASP201      0.3668
     67  OD1        7.0550   -8.9190   16.2960 O.co2 201  ASP201     -0.2456
     68  OD2        9.2050   -8.8450   16.7110 O.co2 201  ASP201     -0.2456
     69  N          2.3290  -11.2480   10.2300 N.3   222  TYR222     -0.1227
     70  CA         2.7840   -9.8760   10.0700 C.3   222  TYR222      0.1736
     71  C          3.3670   -9.2870   11.3660 C.2   222  TYR222      0.2596
     72  O          3.0470   -9.7510   12.4620 O.2   222  TYR222     -0.2718
     73  CB         1.5940   -9.0020    9.5850 C.3   222  TYR222      0.0548
     74  CG         0.9790   -9.4830    8.2790 C.ar  222  TYR222     -0.0200
     75  CD1        1.6000   -9.2310    7.0590 C.ar  222  TYR222     -0.0009
     76  CD2       -0.1940  -10.2380    8.2710 C.ar  222  TYR222     -0.0009
     77  CE1        1.0500   -9.6790    5.8570 C.ar  222  TYR222      0.0417
     78  CE2       -0.7450  -10.7080    7.0740 C.ar  222  TYR222      0.0417
     79  CZ        -0.1150  -10.4280    5.8690 C.ar  222  TYR222      0.1957
     80  OH        -0.6160  -10.8900    4.6740 O.3   222  TYR222     -0.2866
     81  N          4.2110   -8.2540   11.2310 N.am  223  SER223     -0.1938
     82  CA         4.7430   -7.5130   12.3660 C.3   223  SER223      0.2055
     83  C          4.9580   -6.0390   12.0310 C.2   223  SER223      0.2642
     84  O          4.7730   -5.6160   10.8800 O.2   223  SER223     -0.2714
     85  CB         6.0160   -8.1430   12.9250 C.3   223  SER223      0.2130
     86  OG         6.1710   -7.7290   14.2720 O.3   223  SER223     -0.2179
     87  N          5.3210   -5.2580   13.0580 N.am  224  VAL224     -0.1977
     88  CA         5.5780   -3.8240   12.9570 C.3   224  VAL224      0.1596
     89  C          7.0010   -3.5040   13.5070 C.2   224  VAL224      0.2287
     90  O          7.4860   -4.2240   14.3920 O.2   224  VAL224     -0.2864
     91  CB         4.4650   -2.9890   13.6680 C.3   224  VAL224      0.0276
     92  CG1        3.0700   -3.2800   13.0840 C.3   224  VAL224      0.0022
     93  CG2        4.4790   -3.1800   15.1880 C.3   224  VAL224      0.0022
     94  N          9.7630   -1.9740   15.9530 N.3   226  ALA226     -0.1231
     95  CA         9.6730   -1.6910   17.3860 C.3   226  ALA226      0.1694
     96  C         10.9940   -1.3230   18.0290 C.2   226  ALA226      0.2592
     97  O         12.0470   -1.7990   17.6280 O.2   226  ALA226     -0.2718
     98  CB         9.0300   -2.8500   18.1200 C.3   226  ALA226      0.0304
     99  N         10.9130   -0.4740   19.0470 N.am  227  ALA227     -0.1966
    100  CA        12.0430    0.0710   19.7800 C.3   227  ALA227      0.1728
    101  C         12.1970   -0.5290   21.1720 C.2   227  ALA227      0.2616
    102  O         11.3620   -0.2720   22.0320 O.2   227  ALA227     -0.2715
    103  CB        11.9060    1.5910   19.8650 C.3   227  ALA227      0.0334
    104  N         13.2770   -1.3130   21.3940 N.am  228  GLU228     -0.1977
    105  CA        13.5720   -1.9250   22.6920 C.3   228  GLU228      0.1602
    106  C         14.4500   -1.0070   23.5700 C.2   228  GLU228      0.2287
    107  O         15.0200   -0.0430   23.0440 O.2   228  GLU228     -0.2864
    108  CB        14.1800   -3.3310   22.5200 C.3   228  GLU228      0.0415
    109  CG        15.6140   -3.3730   22.0130 C.3   228  GLU228      0.1163
    110  CD        16.3280   -4.6780   22.3130 C.2   228  GLU228      0.3649
    111  OE1       16.7500   -5.3620   21.3530 O.co2 228  GLU228     -0.2457
    112  OE2       16.4890   -5.0050   23.5120 O.co2 228  GLU228     -0.2457
    113  N          2.9680    1.1960   11.4680 N.3   255  PRO255     -0.2116
    114  CA         2.7850    1.4610   12.9060 C.3   255  PRO255      0.1372
    115  C          4.1140    1.3810   13.6410 C.2   255  PRO255      0.2244
    116  O          5.0230    0.6880   13.1730 O.2   255  PRO255     -0.2868
    117  CB         1.8430    0.3400   13.3600 C.3   255  PRO255      0.0268
    118  CG         1.1970   -0.1320   12.1330 C.3   255  PRO255      0.0207
    119  CD         2.1820    0.0210   11.0380 C.3   255  PRO255      0.0892
    120  N          6.1040    0.7500   17.4720 N.3   257  SER257     -0.1217
    121  CA         6.0900    0.3790   18.8800 C.3   257  SER257      0.1889
    122  C          7.3520    0.9240   19.5610 C.2   257  SER257      0.2288
    123  O          8.4600    0.7040   19.0670 O.2   257  SER257     -0.2866
    124  CB         5.9730   -1.1380   19.0340 C.3   257  SER257      0.2089
    125  OG         6.0750   -1.5530   20.3880 O.3   257  SER257     -0.2183
    126  N         -3.9260    6.2910   10.7630 N.3   286  THR286     -0.1203
    127  CA        -4.6200    5.3440   11.6390 C.3   286  THR286      0.1994
    128  C         -4.0460    3.9510   11.3470 C.2   286  THR286      0.2617
    129  O         -3.9500    3.1260   12.2520 O.2   286  THR286     -0.2717
    130  CB        -6.1470    5.4710   11.4610 C.3   286  THR286      0.1784
    131  OG1       -6.5490    6.7990   11.8020 O.3   286  THR286     -0.2211
    132  CG2       -6.9350    4.4630   12.2980 C.3   286  THR286      0.0376
    133  N         -3.6060    3.7390   10.0840 N.am  287  GLN287     -0.1979
    134  CA        -2.9740    2.5270    9.5500 C.3   287  GLN287      0.1601
    135  C         -1.4760    2.4550    9.9240 C.2   287  GLN287      0.2287
    136  O         -0.8220    1.4400    9.6520 O.2   287  GLN287     -0.2864
    137  CB        -3.1220    2.4880    8.0120 C.3   287  GLN287      0.0394
    138  CG        -4.5310    2.1840    7.5030 C.3   287  GLN287      0.0908
    139  CD        -5.4400    3.3800    7.6270 C.2   287  GLN287      0.2608
    140  OE1       -6.1130    3.5720    8.6480 O.2   287  GLN287     -0.2717
    141  NE2       -5.4220    4.2450    6.6200 N.am  287  GLN287     -0.0878
    142  N         -0.1030    3.9680   13.3420 N.3   289  PRO289     -0.2116
    143  CA        -0.0580    4.7370   14.5930 C.3   289  PRO289      0.1372
    144  C          1.1490    4.4540   15.4880 C.2   289  PRO289      0.2244
    145  O          1.8630    3.4770   15.2910 O.2   289  PRO289     -0.2868
    146  CB        -1.3600    4.3230   15.2890 C.3   289  PRO289      0.0268
    147  CG        -1.6240    2.9490   14.8200 C.3   289  PRO289      0.0207
    148  CD        -0.9440    2.7570   13.4960 C.3   289  PRO289      0.0892
    149  N          2.5280    3.1190   18.9780 N.3   291  ILE291     -0.1245
    150  CA         2.1520    2.1630   20.0100 C.3   291  ILE291      0.1561
    151  C          3.1410    2.3060   21.1790 C.2   291  ILE291      0.2260
    152  O          4.3560    2.1760   20.9920 O.2   291  ILE291     -0.2867
    153  CB         2.0450    0.7010   19.4810 C.3   291  ILE291      0.0252
    154  CG1        1.3730    0.6340   18.0930 C.3   291  ILE291      0.0019
    155  CG2        1.2940   -0.1720   20.4900 C.3   291  ILE291      0.0019
    156  CD1        1.9830   -0.3410   17.1280 C.3   291  ILE291      0.0001
    157  N          4.5490    0.9820   24.8100 N.3   293  ARG293     -0.1245
    158  CA         4.6850   -0.2120   25.6340 C.3   293  ARG293      0.1563
    159  C          4.6980    0.2130   27.1000 C.2   293  ARG293      0.2260
    160  O          5.5890    0.9730   27.4730 O.2   293  ARG293     -0.2867
    161  CB         5.9540   -0.9920   25.2840 C.3   293  ARG293      0.0307
    162  CG         5.8310   -1.8670   24.0520 C.3   293  ARG293      0.0489
    163  CD         7.0420   -2.7650   23.8180 C.3   293  ARG293      0.2205
    164  NE         7.2300   -3.7630   24.8750 N.pl3 293  ARG293     -0.0865
    165  CZ         8.2560   -4.6090   24.9500 C.cat 293  ARG293      0.5346
    166  NH1        8.3370   -5.4770   25.9520 N.pl3 293  ARG293      0.1354
    167  NH2        9.2100   -4.5920   24.0250 N.pl3 293  ARG293      0.1354
    168  N         -1.8820    4.0450   20.4010 N.3   331  ARG331     -0.1231
    169  CA        -2.2920    2.7080   20.8500 C.3   331  ARG331      0.1694
    170  C         -1.3460    2.1930   21.9140 C.2   331  ARG331      0.2592
    171  O         -0.3060    2.8080   22.1610 O.2   331  ARG331     -0.2718
    172  CB        -2.4100    1.7070   19.6830 C.3   331  ARG331      0.0321
    173  CG        -3.6160    1.9170   18.7550 C.3   331  ARG331      0.0489
    174  CD        -4.9740    1.7900   19.4440 C.3   331  ARG331      0.2205
    175  NE        -6.0720    2.0850   18.5190 N.pl3 331  ARG331     -0.0865
    176  CZ        -6.9460    3.0770   18.6680 C.cat 331  ARG331      0.5346
    177  NH1       -6.8760    3.8810   19.7200 N.pl3 331  ARG331      0.1354
    178  NH2       -7.9100    3.2590   17.7740 N.pl3 331  ARG331      0.1354
    179  N         -1.7330    1.1060   22.5900 N.am  332  VAL332     -0.1966
    180  CA        -0.9410    0.5030   23.6540 C.3   332  VAL332      0.1727
    181  C         -0.8020   -1.0150   23.4060 C.2   332  VAL332      0.2616
    182  O         -1.7290   -1.6570   22.8910 O.2   332  VAL332     -0.2715
    183  CB        -1.5280    0.8360   25.0640 C.3   332  VAL332      0.0290
    184  CG1       -0.7320    0.1680   26.1830 C.3   332  VAL332      0.0023
    185  CG2       -1.6100    2.3450   25.3060 C.3   332  VAL332      0.0023
    186  N          0.3750   -1.5670   23.7510 N.am  333  ILE333     -0.1977
    187  CA         0.6790   -2.9910   23.6850 C.3   333  ILE333      0.1596
    188  C          1.2670   -3.4270   24.9980 C.2   333  ILE333      0.2287
    189  O          2.3020   -2.9060   25.4060 O.2   333  ILE333     -0.2864
    190  CB         1.5250   -3.4830   22.4570 C.3   333  ILE333      0.0276
    191  CG1        1.8010   -5.0180   22.5590 C.3   333  ILE333      0.0022
    192  CG2        2.8500   -2.7060   22.2970 C.3   333  ILE333      0.0022
    193  CD1        1.9970   -5.7570   21.2670 C.3   333  ILE333      0.0001
    194  N         -3.5220   -4.1540   22.4860 N.3   361  ALA361     -0.1245
    195  CA        -3.0660   -5.3710   21.8280 C.3   361  ALA361      0.1562
    196  C         -2.1390   -6.0000   22.8450 C.2   361  ALA361      0.2260
    197  O         -1.6840   -5.3250   23.7730 O.2   361  ALA361     -0.2867
    198  CB        -2.3220   -5.0780   20.5360 C.3   361  ALA361      0.0290
@<TRIPOS>BOND
     1    80    79    1
     2    77    79   ar
     3    77    75   ar
     4    79    78   ar
     5   141   139   am
     6    75    74   ar
     7    78    76   ar
     8   138   139    1
     9   138   137    1
    10   139   140    2
    11   137   134    1
    12    76    74   ar
    13    74    73    1
    14    12    11    1
    15   134   135    1
    16   134   133    1
    17    73    70    1
    18   136   135    2
    19    70    69    1
    20    70    71    1
    21   133   128   am
    22    11    10   ar
    23    11     9   ar
    24   126   127    1
    25    84    83    2
    26   119   113    1
    27   119   118    1
    28    10     8   ar
    29    81    71   am
    30    81    82    1
    31   128   127    1
    32   128   129    2
    33    71    72    2
    34   130   127    1
    35   130   131    1
    36   130   132    1
    37     9     7   ar
    38   113   114    1
    39    83    82    1
    40    83    87   am
    41   118   117    1
    42    82    85    1
    43     8     6   ar
    44     7     6   ar
    45   114   117    1
    46   114   115    1
    47    85    86    1
    48    88    87    1
    49    88    89    1
    50    88    91    1
    51    92    91    1
    52   116   115    2
    53     6     5    1
    54   142   148    1
    55   142   143    1
    56   148   147    1
    57    89    90    2
    58    91    93    1
    59    57    58    1
    60    45    44    1
    61    58    59    1
    62   143   146    1
    63   143   144    1
    64     5     2    1
    65   147   146    1
    66    59    60    2
    67    64    63    2
    68    43    44   ar
    69    43    41   ar
    70     1     2    1
    71   145   144    2
    72    44    42   ar
    73    63    62    1
    74     2     3    1
    75    62    61    1
    76    62    65    1
    77    21    22   ar
    78    21    19   ar
    79    94    95    1
    80    67    66   ar
    81    41    39   ar
    82    22    20   ar
    83    19    18   ar
    84    42    40   ar
    85    66    68   ar
    86    66    65    1
    87     3     4    2
    88   156   154    1
    89    95    96    1
    90    95    98    1
    91   120   121    1
    92    39    40   ar
    93    39    38    1
    94    97    96    2
    95    20    18   ar
    96    18    17    1
    97   178   176    1
    98    96    99   am
    99   154   153    1
   100   175   176    2
   101   175   174    1
   102   176   177    1
   103   173   174    1
   104   173   172    1
   105    38    35    1
   106   121   124    1
   107   121   122    1
   108    17    14    1
   109   149   150    1
   110   124   125    1
   111    14    15    1
   112    14    13    1
   113    99   100    1
   114   123   122    2
   115   153   150    1
   116   153   155    1
   117    15    16    2
   118   172   169    1
   119   100   103    1
   120   100   101    1
   121    35    34    1
   122    35    36    1
   123   150   151    1
   124   168   169    1
   125    31    29   ar
   126    31    33   ar
   127   198   195    1
   128    29    28   ar
   129    23    24    1
   130   169   170    1
   131    37    36    2
   132    36    46   am
   133   152   151    2
   134   101   104   am
   135   101   102    2
   136    24    25    1
   137    24    27    1
   138   193   191    1
   139   111   110   ar
   140   104   105    1
   141    33    32   ar
   142    25    26    2
   143   195   194    1
   144   195   196    1
   145    46    47    1
   146   170   171    2
   147   170   179   am
   148   109   110    1
   149   109   108    1
   150    28    27    1
   151    28    30   ar
   152    56    54    1
   153   192   190    1
   154   110   112   ar
   155   190   191    1
   156   190   187    1
   157   108   105    1
   158   179   180    1
   159   105   106    1
   160    32    30   ar
   161   196   197    2
   162    53    54    2
   163    53    52    1
   164   182   181    2
   165    47    50    1
   166    47    48    1
   167    51    50    1
   168    51    52    1
   169   107   106    2
   170    54    55    1
   171   181   180    1
   172   181   186   am
   173   180   183    1
   174   187   186    1
   175   187   188    1
   176   163   162    1
   177   163   164    1
   178    48    49    2
   179   167   165    1
   180   162   161    1
   181   157   158    1
   182   164   165    2
   183   165   166    1
   184   188   189    2
   185   183   185    1
   186   183   184    1
   187   161   158    1
   188   158   159    1
   189   159   160    2
