@<TRIPOS>MOLECULE
tmp/6azqB00.pdb
 91 85 0 0 0
SMALL
GASTEIGER

@<TRIPOS>ATOM
      1  N          0.6670  -14.1140   69.7670 N.3    29  ASP29      -0.1239
      2  CA         0.1960  -15.5040   69.6350 C.3    29  ASP29       0.1674
      3  C          1.3020  -16.5650   69.6430 C.2    29  ASP29       0.2266
      4  O          1.2230  -17.5730   68.9120 O.2    29  ASP29      -0.2867
      5  CB        -0.6920  -15.6670   68.3760 C.3    29  ASP29       0.1410
      6  CG        -1.9180  -14.7500   68.4020 C.2    29  ASP29       0.3668
      7  OD1       -2.2390  -14.1840   69.4800 O.co2  29  ASP29      -0.2456
      8  OD2       -2.5920  -14.5920   67.3440 O.co2  29  ASP29      -0.2456
      9  N          0.0190  -22.6350   67.9550 N.3    34  PHE34      -0.1241
     10  CA         0.5690  -22.1070   66.7190 C.3    34  PHE34       0.1605
     11  C          2.0020  -22.5120   66.4350 C.2    34  PHE34       0.2264
     12  O          2.4280  -22.4010   65.3030 O.2    34  PHE34      -0.2867
     13  CB         0.4220  -20.6030   66.6800 C.3    34  PHE34       0.0534
     14  CG        -1.0000  -20.1530   66.6490 C.ar   34  PHE34      -0.0203
     15  CD1       -1.8080  -20.4340   65.5330 C.ar   34  PHE34      -0.0042
     16  CD2       -1.5520  -19.4720   67.7100 C.ar   34  PHE34      -0.0042
     17  CE1       -3.1300  -20.0460   65.5030 C.ar   34  PHE34      -0.0003
     18  CE2       -2.8710  -19.0630   67.6790 C.ar   34  PHE34      -0.0003
     19  CZ        -3.6640  -19.3490   66.5680 C.ar   34  PHE34      -0.0000
     20  N         -2.8800  -26.8280   67.0670 N.3    40  TYR40      -0.1227
     21  CA        -3.6710  -26.5120   65.8840 C.3    40  TYR40       0.1736
     22  C         -2.8500  -26.5480   64.6020 C.2    40  TYR40       0.2595
     23  O         -3.2290  -27.2330   63.6530 O.2    40  TYR40      -0.2718
     24  CB        -4.2870  -25.1150   66.0640 C.3    40  TYR40       0.0548
     25  CG        -4.9950  -24.5000   64.8720 C.ar   40  TYR40      -0.0200
     26  CD1       -6.0630  -25.1370   64.2560 C.ar   40  TYR40      -0.0009
     27  CD2       -4.6300  -23.2310   64.4080 C.ar   40  TYR40      -0.0009
     28  CE1       -6.7320  -24.5380   63.1900 C.ar   40  TYR40       0.0417
     29  CE2       -5.2930  -22.6300   63.3560 C.ar   40  TYR40       0.0417
     30  CZ        -6.3400  -23.2870   62.7430 C.ar   40  TYR40       0.1957
     31  OH        -6.9700  -22.6980   61.6800 O.3    40  TYR40      -0.2866
     32  N         -1.7410  -25.7990   64.5830 N.am   41  VAL41      -0.1980
     33  CA        -0.8960  -25.7180   63.4030 C.3    41  VAL41       0.1595
     34  C         -0.2760  -27.0890   63.0830 C.2    41  VAL41       0.2287
     35  O         -0.2080  -27.4810   61.9120 O.2    41  VAL41      -0.2864
     36  CB         0.1800  -24.6190   63.5600 C.3    41  VAL41       0.0276
     37  CG1        1.2720  -24.7280   62.4940 C.3    41  VAL41       0.0022
     38  CG2       -0.4780  -23.2570   63.4770 C.3    41  VAL41       0.0022
     39  N         -4.5820  -15.8410   70.7420 N.3    77  GLU77      -0.1245
     40  CA        -5.8030  -16.1080   70.0130 C.3    77  GLU77       0.1567
     41  C         -6.4810  -17.2900   70.6660 C.2    77  GLU77       0.2260
     42  O         -5.8490  -18.3120   70.9510 O.2    77  GLU77      -0.2867
     43  CB        -5.5400  -16.4010   68.5400 C.3    77  GLU77       0.0388
     44  CG        -6.8340  -16.6650   67.7670 C.3    77  GLU77       0.1160
     45  CD        -6.5950  -16.9550   66.3100 C.2    77  GLU77       0.3649
     46  OE1       -5.4670  -16.6560   65.8130 O.co2  77  GLU77      -0.2457
     47  OE2       -7.5190  -17.5040   65.6520 O.co2  77  GLU77      -0.2457
     48  N         -7.9150  -12.8100   64.4300 N.3   138  LYS138     -0.1245
     49  CA        -6.5320  -12.7060   64.0290 C.3   138  LYS138      0.1561
     50  C         -6.0130  -11.3140   64.3750 C.2   138  LYS138      0.2260
     51  O         -4.8980  -11.1860   64.9260 O.2   138  LYS138     -0.2867
     52  CB        -6.3780  -12.9400   62.5200 C.3   138  LYS138      0.0271
     53  CG        -7.0980  -14.1800   62.0090 C.3   138  LYS138      0.0035
     54  CD        -6.7700  -15.4390   62.8290 C.3   138  LYS138      0.0206
     55  CE        -7.4970  -16.6370   62.2530 C.3   138  LYS138      0.1093
     56  NZ        -7.1670  -17.8750   62.9890 N.3   138  LYS138     -0.1314
     57  N          3.6460  -14.8060   65.6580 N.3   163  ILE163     -0.1231
     58  CA         3.1840  -15.6720   64.5780 C.3   163  ILE163      0.1692
     59  C          1.6610  -15.6290   64.4240 C.2   163  ILE163      0.2592
     60  O          0.9740  -15.3250   65.3850 O.2   163  ILE163     -0.2718
     61  CB         3.6390  -17.1400   64.8120 C.3   163  ILE163      0.0266
     62  CG1        3.0040  -17.7320   66.0900 C.3   163  ILE163      0.0019
     63  CG2        5.1650  -17.2130   64.7950 C.3   163  ILE163      0.0020
     64  CD1        3.5460  -19.0800   66.4770 C.3   163  ILE163      0.0001
     65  N          1.1340  -15.9320   63.2410 N.am  164  THR164     -0.1953
     66  CA         1.9020  -16.0990   62.0140 C.3   164  THR164      0.1897
     67  C          1.9810  -14.7780   61.2720 C.2   164  THR164      0.2313
     68  O          1.1060  -13.9190   61.3810 O.2   164  THR164     -0.2863
     69  CB         1.3320  -17.1930   61.0830 C.3   164  THR164      0.1794
     70  OG1       -0.0130  -16.8690   60.6860 O.3   164  THR164     -0.2208
     71  CG2        1.3760  -18.5370   61.7590 C.3   164  THR164      0.0378
     72  N         -0.9540  -13.7670   58.9850 N.3   167  VAL167     -0.1231
     73  CA        -2.3020  -13.8620   59.5360 C.3   167  VAL167      0.1692
     74  C         -2.4420  -12.8990   60.6980 C.2   167  VAL167      0.2592
     75  O         -2.7730  -11.7490   60.4500 O.2   167  VAL167     -0.2718
     76  CB        -2.6870  -15.3450   59.8210 C.3   167  VAL167      0.0266
     77  CG1       -4.0850  -15.4590   60.3720 C.3   167  VAL167      0.0020
     78  CG2       -2.5490  -16.1930   58.5500 C.3   167  VAL167      0.0020
     79  N         -2.1730  -13.3150   61.9290 N.am  168  SER168     -0.1952
     80  CA        -2.3250  -12.4450   63.0940 C.3   168  SER168      0.1924
     81  C         -1.3850  -11.2580   63.1040 C.2   168  SER168      0.2314
     82  O         -1.8080  -10.1440   63.4310 O.2   168  SER168     -0.2863
     83  CB        -2.1850  -13.2080   64.4050 C.3   168  SER168      0.2116
     84  OG        -3.3350  -14.0340   64.6100 O.3   168  SER168     -0.2180
     85  N          2.9780  -20.3100   58.2090 N.3   193  THR193     -0.1218
     86  CA         2.6970  -21.6500   57.7130 C.3   193  THR193      0.1862
     87  C          3.3390  -21.9390   56.3350 C.2   193  THR193      0.2287
     88  O          3.4580  -23.0990   55.9290 O.2   193  THR193     -0.2866
     89  CB         1.1980  -21.9120   57.6040 C.3   193  THR193      0.1770
     90  OG1        0.5890  -21.0410   56.6700 O.3   193  THR193     -0.2211
     91  CG2        0.5460  -21.7870   58.9670 C.3   193  THR193      0.0375
@<TRIPOS>BOND
     1    88    87    2
     2    87    86    1
     3    90    89    1
     4    89    86    1
     5    89    91    1
     6    86    85    1
     7    78    76    1
     8    72    73    1
     9    73    76    1
    10    73    74    1
    11    76    77    1
    12    75    74    2
    13    70    69    1
    14    74    79   am
    15    69    71    1
    16    69    66    1
    17    67    68    2
    18    67    66    1
    19    31    30    1
    20    35    34    2
    21    79    80    1
    22    53    52    1
    23    53    54    1
    24    66    65    1
    25    55    54    1
    26    55    56    1
    27    37    36    1
    28    52    49    1
    29    30    28   ar
    30    30    29   ar
    31    34    33    1
    32    80    81    1
    33    80    83    1
    34    81    82    2
    35    28    26   ar
    36    65    59   am
    37    29    27   ar
    38    33    36    1
    39    33    32    1
    40    38    36    1
    41    23    22    2
    42    49    50    1
    43    49    48    1
    44    26    25   ar
    45    50    51    2
    46    83    84    1
    47    27    25   ar
    48    59    58    1
    49    59    60    2
    50    58    61    1
    51    58    57    1
    52    32    22   am
    53    22    21    1
    54    63    61    1
    55    61    62    1
    56    25    24    1
    57    12    11    2
    58    17    15   ar
    59    17    19   ar
    60    15    14   ar
    61    47    45   ar
    62    46    45   ar
    63    21    24    1
    64    21    20    1
    65    62    64    1
    66    45    44    1
    67    11    10    1
    68    19    18   ar
    69    14    13    1
    70    14    16   ar
    71    13    10    1
    72    10     9    1
    73     8     6   ar
    74    18    16   ar
    75    44    43    1
    76     5     6    1
    77     5     2    1
    78     6     7   ar
    79    43    40    1
    80     4     3    2
    81     2     3    1
    82     2     1    1
    83    40    41    1
    84    40    39    1
    85    41    42    2
