@<TRIPOS>MOLECULE
tmp/6azrA00.pdb
 188 179 0 0 0
SMALL
GASTEIGER

@<TRIPOS>ATOM
      1  N        -33.0520   15.1970   -6.5810 N.3    18  GLU18      -0.1245
      2  CA       -32.0760   14.1190   -6.4560 C.3    18  GLU18       0.1567
      3  C        -30.7140   14.5270   -7.0020 C.2    18  GLU18       0.2260
      4  O        -29.6920   13.9650   -6.5950 O.2    18  GLU18      -0.2867
      5  CB       -32.5720   12.8660   -7.1770 C.3    18  GLU18       0.0388
      6  CG       -33.5980   12.0520   -6.4050 C.3    18  GLU18       0.1160
      7  CD       -33.6490   10.6050   -6.8610 C.2    18  GLU18       0.3649
      8  OE1      -32.7970   10.2110   -7.6850 O.co2  18  GLU18      -0.2457
      9  OE2      -34.5400    9.8620   -6.3980 O.co2  18  GLU18      -0.2457
     10  N        -32.0440    5.0540  -13.1760 N.3    65  GLU65      -0.1245
     11  CA       -33.4930    5.1330  -13.0200 C.3    65  GLU65       0.1567
     12  C        -34.1400    5.8610  -14.1900 C.2    65  GLU65       0.2260
     13  O        -35.2750    5.5450  -14.5630 O.2    65  GLU65      -0.2867
     14  CB       -33.8530    5.8180  -11.7010 C.3    65  GLU65       0.0388
     15  CG       -33.9550    4.8660  -10.5190 C.3    65  GLU65       0.1160
     16  CD       -34.6250    5.5010   -9.3170 C.2    65  GLU65       0.3649
     17  OE1      -35.0590    6.6670   -9.4250 O.co2  65  GLU65      -0.2457
     18  OE2      -34.7170    4.8340   -8.2660 O.co2  65  GLU65      -0.2457
     19  N        -33.1040   -2.5310   -4.2440 N.3   133  ASN133     -0.1240
     20  CA       -34.1200   -1.4860   -4.1770 C.3   133  ASN133      0.1653
     21  C        -34.9720   -1.6260   -2.9210 C.2   133  ASN133      0.2266
     22  O        -35.2210   -0.6400   -2.2190 O.2   133  ASN133     -0.2867
     23  CB       -35.0010   -1.5210   -5.4270 C.3   133  ASN133      0.1155
     24  CG       -36.1470   -0.5330   -5.3580 C.2   133  ASN133      0.2627
     25  OD1      -37.2860   -0.9040   -5.0750 O.2   133  ASN133     -0.2716
     26  ND2      -35.8500    0.7350   -5.6150 N.am  133  ASN133     -0.0877
     27  N        -32.6420   -0.8060    0.0170 N.3   136  ASN136     -0.1225
     28  CA       -32.3880    0.6300    0.1150 C.3   136  ASN136      0.1785
     29  C        -33.5840    1.3670    0.6990 C.2   136  ASN136      0.2597
     30  O        -33.4120    2.3580    1.4170 O.2   136  ASN136     -0.2718
     31  CB       -32.0300    1.2070   -1.2570 C.3   136  ASN136      0.1169
     32  CG       -30.5880    1.6790   -1.3380 C.2   136  ASN136      0.2627
     33  OD1      -29.7340    1.2420   -0.5710 O.2   136  ASN136     -0.2716
     34  ND2      -30.3130    2.5760   -2.2790 N.am  136  ASN136     -0.0877
     35  N        -34.7980    0.8990    0.4070 N.am  137  ASN137     -0.1960
     36  CA       -35.9940    1.5220    0.9590 C.3   137  ASN137      0.1819
     37  C        -36.2140    1.1360    2.4150 C.2   137  ASN137      0.2621
     38  O        -36.7660    1.9280    3.1860 O.2   137  ASN137     -0.2715
     39  CB       -37.2160    1.1410    0.1220 C.3   137  ASN137      0.1195
     40  CG       -37.2070    1.7890   -1.2500 C.2   137  ASN137      0.2630
     41  OD1      -37.4830    2.9800   -1.3880 O.2   137  ASN137     -0.2716
     42  ND2      -36.8880    1.0040   -2.2730 N.am  137  ASN137     -0.0877
     43  N        -35.7890   -0.0670    2.8100 N.am  138  GLY138     -0.1954
     44  CA       -35.9630   -0.4890    4.1880 C.3   138  GLY138      0.1869
     45  C        -35.0810    0.2630    5.1630 C.2   138  GLY138      0.2309
     46  O        -35.4730    0.4900    6.3110 O.2   138  GLY138     -0.2863
     47  N        -33.5570    3.4250    4.3780 N.3   140  LYS140     -0.1231
     48  CA       -33.7740    4.8640    4.2520 C.3   140  LYS140      0.1693
     49  C        -35.0110    5.3050    5.0240 C.2   140  LYS140      0.2592
     50  O        -34.9510    6.2360    5.8350 O.2   140  LYS140     -0.2718
     51  CB       -33.8900    5.2510    2.7780 C.3   140  LYS140      0.0285
     52  CG       -33.9010    6.7500    2.5310 C.3   140  LYS140      0.0035
     53  CD       -33.7450    7.0690    1.0530 C.3   140  LYS140      0.0206
     54  CE       -34.9540    6.6050    0.2580 C.3   140  LYS140      0.1093
     55  NZ       -34.8280    6.9300   -1.1900 N.3   140  LYS140     -0.1314
     56  N        -36.1440    4.6460    4.7880 N.am  141  TYR141     -0.1976
     57  CA       -37.3840    4.9850    5.4730 C.3   141  TYR141      0.1639
     58  C        -37.4910    4.3580    6.8570 C.2   141  TYR141      0.2290
     59  O        -38.5540    4.4490    7.4800 O.2   141  TYR141     -0.2864
     60  CB       -38.5870    4.5750    4.6190 C.3   141  TYR141      0.0560
     61  CG       -38.6070    5.2320    3.2590 C.ar  141  TYR141     -0.0198
     62  CD1      -39.1110    6.5150    3.0950 C.ar  141  TYR141     -0.0009
     63  CD2      -38.1240    4.5700    2.1380 C.ar  141  TYR141     -0.0009
     64  CE1      -39.1300    7.1220    1.8550 C.ar  141  TYR141      0.0417
     65  CE2      -38.1410    5.1680    0.8920 C.ar  141  TYR141      0.0417
     66  CZ       -38.6460    6.4440    0.7570 C.ar  141  TYR141      0.1957
     67  OH       -38.6650    7.0460   -0.4810 O.3   141  TYR141     -0.2866
     68  N        -38.6350   -5.0060    8.0410 N.3   168  ASP168     -0.1239
     69  CA       -37.8870   -3.9160    8.6510 C.3   168  ASP168      0.1674
     70  C        -38.7460   -3.2720    9.7290 C.2   168  ASP168      0.2266
     71  O        -39.9630   -3.4650    9.7760 O.2   168  ASP168     -0.2867
     72  CB       -37.4550   -2.8770    7.6100 C.3   168  ASP168      0.1410
     73  CG       -38.6230   -2.3280    6.8110 C.2   168  ASP168      0.3668
     74  OD1      -39.3830   -1.5000    7.3550 O.co2 168  ASP168     -0.2456
     75  OD2      -38.7810   -2.7260    5.6370 O.co2 168  ASP168     -0.2456
     76  N        -39.2790   -0.0640    9.9630 N.3   170  GLY170     -0.1210
     77  CA       -39.3860    1.2730    9.4270 C.3   170  GLY170      0.1956
     78  C        -40.5880    2.0280    9.9680 C.2   170  GLY170      0.2612
     79  O        -41.3210    1.5780   10.8490 O.2   170  GLY170     -0.2717
     80  N        -40.7840    3.2230    9.4040 N.am  171  ILE171     -0.1965
     81  CA       -41.8780    4.0870    9.8270 C.3   171  ILE171      0.1727
     82  C        -43.2350    3.5040    9.4640 C.2   171  ILE171      0.2617
     83  O        -44.2520    3.9040   10.0420 O.2   171  ILE171     -0.2715
     84  CB       -41.7160    5.4920    9.2190 C.3   171  ILE171      0.0290
     85  CG1      -41.7590    5.4210    7.6910 C.3   171  ILE171      0.0022
     86  CG2      -40.4200    6.1330    9.6940 C.3   171  ILE171      0.0023
     87  CD1      -41.6640    6.7700    7.0130 C.3   171  ILE171      0.0001
     88  N        -43.2830    2.5700    8.5180 N.am  172  GLY172     -0.1940
     89  CA       -44.5330    1.9420    8.1440 C.3   172  GLY172      0.2014
     90  C        -45.3420    2.7510    7.1530 C.2   172  GLY172      0.2638
     91  O        -45.4070    3.9810    7.2460 O.2   172  GLY172     -0.2714
     92  N        -45.9630    2.0680    6.1990 N.am  173  ILE173     -0.1977
     93  CA       -46.7900    2.7140    5.1830 C.3   173  ILE173      0.1596
     94  C        -48.2180    2.8010    5.7080 C.2   173  ILE173      0.2287
     95  O        -48.7410    1.8090    6.2380 O.2   173  ILE173     -0.2864
     96  CB       -46.7270    1.9510    3.8510 C.3   173  ILE173      0.0276
     97  CG1      -45.2820    1.5590    3.5360 C.3   173  ILE173      0.0022
     98  CG2      -47.3110    2.7860    2.7210 C.3   173  ILE173      0.0022
     99  CD1      -45.1310    0.7410    2.2770 C.3   173  ILE173      0.0001
    100  N        -48.2840    2.7160   -3.7970 N.3   181  ILE181     -0.1245
    101  CA       -46.8290    2.7730   -3.6820 C.3   181  ILE181      0.1561
    102  C        -46.1430    2.0990   -4.8610 C.2   181  ILE181      0.2260
    103  O        -44.9690    2.3750   -5.1310 O.2   181  ILE181     -0.2867
    104  CB       -46.3550    2.1490   -2.3530 C.3   181  ILE181      0.0252
    105  CG1      -46.6360    0.6440   -2.3280 C.3   181  ILE181      0.0019
    106  CG2      -46.9880    2.8570   -1.1680 C.3   181  ILE181      0.0019
    107  CD1      -45.9600   -0.0780   -1.1880 C.3   181  ILE181      0.0001
    108  N        -45.4850    7.7870   -7.5780 N.3   186  TYR186     -0.1227
    109  CA       -46.1930    7.9230   -6.3130 C.3   186  TYR186      0.1736
    110  C        -45.2350    7.7490   -5.1410 C.2   186  TYR186      0.2595
    111  O        -44.4090    6.8310   -5.1300 O.2   186  TYR186     -0.2718
    112  CB       -47.3320    6.9090   -6.2230 C.3   186  TYR186      0.0548
    113  CG       -48.3200    7.2120   -5.1190 C.ar  186  TYR186     -0.0200
    114  CD1      -48.0970    6.7780   -3.8180 C.ar  186  TYR186     -0.0009
    115  CD2      -49.4670    7.9520   -5.3750 C.ar  186  TYR186     -0.0009
    116  CE1      -48.9940    7.0620   -2.8070 C.ar  186  TYR186      0.0417
    117  CE2      -50.3700    8.2410   -4.3700 C.ar  186  TYR186      0.0417
    118  CZ       -50.1270    7.7930   -3.0880 C.ar  186  TYR186      0.1957
    119  OH       -51.0240    8.0790   -2.0850 O.3   186  TYR186     -0.2866
    120  N        -45.3540    8.6360   -4.1540 N.am  187  ARG187     -0.1966
    121  CA       -44.5440    8.5770   -2.9460 C.3   187  ARG187      0.1729
    122  C        -45.3740    9.0700   -1.7710 C.2   187  ARG187      0.2616
    123  O        -46.1700   10.0020   -1.9140 O.2   187  ARG187     -0.2715
    124  CB       -43.2670    9.4140   -3.0810 C.3   187  ARG187      0.0348
    125  CG       -42.0760    8.8000   -2.3680 C.3   187  ARG187      0.0492
    126  CD       -40.8450    9.6790   -2.4910 C.3   187  ARG187      0.2205
    127  NE       -40.9770   10.8940   -1.6970 N.pl3 187  ARG187     -0.0865
    128  CZ       -40.3350   12.0380   -1.9510 C.cat 187  ARG187      0.5346
    129  NH1      -39.5090   12.1270   -3.0010 N.pl3 187  ARG187      0.1354
    130  NH2      -40.4980   13.0790   -1.1310 N.pl3 187  ARG187      0.1354
    131  N        -45.1830    8.4420   -0.6120 N.am  188  VAL188     -0.1977
    132  CA       -45.9130    8.8200    0.5920 C.3   188  VAL188      0.1596
    133  C        -45.4020   10.1740    1.0680 C.2   188  VAL188      0.2287
    134  O        -44.3450   10.2650    1.7030 O.2   188  VAL188     -0.2864
    135  CB       -45.7760    7.7480    1.6900 C.3   188  VAL188      0.0276
    136  CG1      -46.5030    8.1770    2.9570 C.3   188  VAL188      0.0022
    137  CG2      -46.3040    6.4100    1.1890 C.3   188  VAL188      0.0022
    138  N        -34.9860   12.6860   -0.6970 N.3   194  PRO194     -0.2102
    139  CA       -34.9300   12.6150   -2.1610 C.3   194  PRO194      0.1504
    140  C        -35.5890   11.3470   -2.6800 C.2   194  PRO194      0.2576
    141  O        -35.4230   10.2600   -2.1210 O.2   194  PRO194     -0.2718
    142  CB       -33.4240   12.6210   -2.4530 C.3   194  PRO194      0.0282
    143  CG       -32.8190   11.9880   -1.2460 C.3   194  PRO194      0.0208
    144  CD       -33.6810   12.3960   -0.0760 C.3   194  PRO194      0.0893
    145  N        -36.3450   11.4970   -3.7590 N.am  195  GLY195     -0.1943
    146  CA       -37.0420   10.3640   -4.3380 C.3   195  GLY195      0.2014
    147  C        -37.7490   10.7690   -5.6120 C.2   195  GLY195      0.2640
    148  O        -38.0500   11.9460   -5.8380 O.2   195  GLY195     -0.2714
    149  N        -38.0110    9.7620   -6.4490 N.am  196  THR196     -0.1936
    150  CA       -38.6890    9.9820   -7.7190 C.3   196  THR196      0.2028
    151  C        -39.9440    9.1420   -7.9130 C.2   196  THR196      0.2642
    152  O        -40.7280    9.4490   -8.8170 O.2   196  THR196     -0.2714
    153  CB       -37.7380    9.7180   -8.8970 C.3   196  THR196      0.1808
    154  OG1      -37.1880    8.3990   -8.7920 O.3   196  THR196     -0.2208
    155  CG2      -36.6080   10.7370   -8.9100 C.3   196  THR196      0.0379
    156  N        -40.1640    8.1060   -7.1080 N.am  197  GLY197     -0.1954
    157  CA       -41.3490    7.2840   -7.2360 C.3   197  GLY197      0.1869
    158  C        -41.2460    6.1400   -8.2190 C.2   197  GLY197      0.2309
    159  O        -42.2570    5.4750   -8.4740 O.2   197  GLY197     -0.2863
    160  N        -38.8230    3.5860   -7.9260 N.3   199  GLY199     -0.1210
    161  CA       -38.1500    2.4240   -7.3640 C.3   199  GLY199      0.1956
    162  C        -39.0270    1.1880   -7.3470 C.2   199  GLY199      0.2611
    163  O        -38.6420    0.1280   -7.8480 O.2   199  GLY199     -0.2717
    164  N        -40.2250    1.3060   -6.7710 N.am  200  LEU200     -0.1979
    165  CA       -41.1350    0.1690   -6.7210 C.3   200  LEU200      0.1596
    166  C        -41.7900   -0.1080   -8.0670 C.2   200  LEU200      0.2287
    167  O        -42.2070   -1.2440   -8.3140 O.2   200  LEU200     -0.2864
    168  CB       -42.2070    0.3970   -5.6540 C.3   200  LEU200      0.0297
    169  CG       -41.6980    0.5510   -4.2200 C.3   200  LEU200      0.0022
    170  CD1      -42.8580    0.4970   -3.2400 C.3   200  LEU200      0.0001
    171  CD2      -40.6650   -0.5180   -3.8940 C.3   200  LEU200      0.0001
    172  N        -42.4770   -2.6080    8.1260 N.3   224  SER224     -0.1217
    173  CA       -42.8930   -2.8630    6.7560 C.3   224  SER224      0.1889
    174  C        -42.3690   -4.2170    6.2990 C.2   224  SER224      0.2288
    175  O        -41.2760   -4.6420    6.6860 O.2   224  SER224     -0.2866
    176  CB       -42.3960   -1.7670    5.8020 C.3   224  SER224      0.2089
    177  OG       -42.8620   -0.4910    6.2040 O.3   224  SER224     -0.2183
    178  N        -42.2590   -6.5180    2.5490 N.3   226  PHE226     -0.1241
    179  CA       -42.5290   -6.7000    1.1310 C.3   226  PHE226      0.1605
    180  C        -42.4160   -8.1760    0.7770 C.2   226  PHE226      0.2264
    181  O        -41.5340   -8.8790    1.2810 O.2   226  PHE226     -0.2867
    182  CB       -41.5620   -5.8800    0.2720 C.3   226  PHE226      0.0534
    183  CG       -41.7330   -4.3950    0.4160 C.ar  226  PHE226     -0.0203
    184  CD1      -42.7780   -3.7410   -0.2160 C.ar  226  PHE226     -0.0042
    185  CD2      -40.8490   -3.6520    1.1800 C.ar  226  PHE226     -0.0042
    186  CE1      -42.9390   -2.3750   -0.0890 C.ar  226  PHE226     -0.0003
    187  CE2      -41.0050   -2.2840    1.3120 C.ar  226  PHE226     -0.0003
    188  CZ       -42.0510   -1.6450    0.6770 C.ar  226  PHE226     -0.0000
@<TRIPOS>BOND
     1    13    12    2
     2    12    11    1
     3    10    11    1
     4    11    14    1
     5    14    15    1
     6    15    16    1
     7    17    16   ar
     8    16    18   ar
     9   155   153    1
    10   153   154    1
    11   153   150    1
    12   152   151    2
    13   159   158    2
    14   167   166    2
    15   158   157    1
    16   166   165    1
    17   160   161    1
    18   151   150    1
    19   151   156   am
    20   163   162    2
    21   150   149    1
    22     8     7   ar
    23   108   109    1
    24   161   162    1
    25   162   164   am
    26   157   156    1
    27     5     2    1
    28     5     6    1
    29     3     4    2
    30     3     2    1
    31     7     6    1
    32     7     9   ar
    33   164   165    1
    34   165   168    1
    35     1     2    1
    36   149   147   am
    37   109   112    1
    38   109   110    1
    39   112   113    1
    40   148   147    2
    41   168   169    1
    42    26    24   am
    43   147   146    1
    44    23    24    1
    45    23    20    1
    46   115   113   ar
    47   115   117   ar
    48    24    25    2
    49   110   111    2
    50   110   120   am
    51   103   102    2
    52   113   114   ar
    53   102   101    1
    54   117   118   ar
    55   146   145    1
    56    19    20    1
    57   169   171    1
    58   169   170    1
    59    20    21    1
    60   120   121    1
    61   114   116   ar
    62   100   101    1
    63   145   140   am
    64   101   104    1
    65   118   116   ar
    66   118   119    1
    67   124   121    1
    68   124   125    1
    69   129   128    1
    70   121   122    1
    71    21    22    2
    72   140   139    1
    73   140   141    2
    74   126   125    1
    75   126   127    1
    76   142   139    1
    77   142   143    1
    78   104   105    1
    79   104   106    1
    80   105   107    1
    81    34    32   am
    82    42    40   am
    83   139   138    1
    84   128   127    2
    85   128   130    1
    86   123   122    2
    87   122   131   am
    88    41    40    2
    89    32    31    1
    90    32    33    2
    91    31    28    1
    92    40    39    1
    93   143   144    1
    94    55    54    1
    95   138   144    1
    96   131   132    1
    97    67    66    1
    98   184   186   ar
    99   184   183   ar
   100   186   188   ar
   101    27    28    1
   102    28    29    1
   103    39    36    1
   104    54    53    1
   105   182   183    1
   106   182   179    1
   107    35    29   am
   108    35    36    1
   109   183   185   ar
   110   132   133    1
   111   132   135    1
   112   188   187   ar
   113    29    30    2
   114    66    65   ar
   115    66    64   ar
   116   180   179    1
   117   180   181    2
   118    65    63   ar
   119    36    37    1
   120    53    52    1
   121   133   134    2
   122   179   178    1
   123   185   187   ar
   124   137   135    1
   125   135   136    1
   126    64    62   ar
   127    63    61   ar
   128    99    97    1
   129    37    43   am
   130    37    38    2
   131    52    51    1
   132    98    96    1
   133    51    48    1
   134    43    44    1
   135    62    61   ar
   136    61    60    1
   137    97    96    1
   138    96    93    1
   139    44    45    1
   140    48    47    1
   141    48    49    1
   142    60    57    1
   143    56    49   am
   144    56    57    1
   145    49    50    2
   146    45    46    2
   147    93    94    1
   148    93    92    1
   149    57    58    1
   150    75    73   ar
   151    94    95    2
   152   176   177    1
   153   176   173    1
   154    92    90   am
   155   174   175    2
   156   174   173    1
   157   173   172    1
   158    73    74   ar
   159    73    72    1
   160    58    59    2
   161    87    85    1
   162    90    91    2
   163    90    89    1
   164    72    69    1
   165    85    84    1
   166    68    69    1
   167    89    88    1
   168    88    82   am
   169    69    70    1
   170    84    86    1
   171    84    81    1
   172    80    81    1
   173    80    78   am
   174    77    76    1
   175    77    78    1
   176    82    81    1
   177    82    83    2
   178    70    71    2
   179    78    79    2
