@<TRIPOS>MOLECULE
tmp/6azsB01.pdb
 85 80 0 0 0
SMALL
GASTEIGER

@<TRIPOS>ATOM
      1  N        -32.0210   12.8720   52.0510 N.3    34  PHE34      -0.1241
      2  CA       -31.5530   11.8120   52.9390 C.3    34  PHE34       0.1605
      3  C        -30.4560   12.2530   53.9230 C.2    34  PHE34       0.2264
      4  O        -30.3600   11.6350   55.0340 O.2    34  PHE34      -0.2867
      5  CB       -30.9760   10.6800   52.1210 C.3    34  PHE34       0.0534
      6  CG       -31.9560    9.9580   51.1990 C.ar   34  PHE34      -0.0203
      7  CD1      -33.3080    9.9320   51.4710 C.ar   34  PHE34      -0.0042
      8  CD2      -31.4940    9.2810   50.0700 C.ar   34  PHE34      -0.0042
      9  CE1      -34.1960    9.2160   50.6700 C.ar   34  PHE34      -0.0003
     10  CE2      -32.3480    8.6150   49.2440 C.ar   34  PHE34      -0.0003
     11  CZ       -33.7210    8.5900   49.5340 C.ar   34  PHE34      -0.0000
     12  N        -35.9980   16.1660   54.0370 N.3    40  TYR40      -0.1227
     13  CA       -37.1020   15.4880   54.7300 C.3    40  TYR40       0.1736
     14  C        -36.6400   14.6230   55.9010 C.2    40  TYR40       0.2595
     15  O        -37.3220   14.6290   56.9340 O.2    40  TYR40      -0.2718
     16  CB       -38.1200   14.8250   53.7510 C.3    40  TYR40       0.0548
     17  CG       -37.8580   13.3450   53.4610 C.ar   40  TYR40      -0.0200
     18  CD1      -38.0710   12.4000   54.4310 C.ar   40  TYR40      -0.0009
     19  CD2      -37.4150   12.9090   52.1880 C.ar   40  TYR40      -0.0009
     20  CE1      -37.8190   11.0650   54.2090 C.ar   40  TYR40       0.0417
     21  CE2      -37.1760   11.5600   51.9440 C.ar   40  TYR40       0.0417
     22  CZ       -37.4080   10.6440   52.9410 C.ar   40  TYR40       0.1957
     23  OH       -37.1370    9.2800   52.7440 O.3    40  TYR40      -0.2866
     24  N        -35.4840   13.9870   55.8100 N.am   41  VAL41      -0.1980
     25  CA       -34.9980   13.1440   56.9090 C.3    41  VAL41       0.1595
     26  C        -34.6430   14.0320   58.0930 C.2    41  VAL41       0.2287
     27  O        -34.9690   13.6810   59.2420 O.2    41  VAL41      -0.2864
     28  CB       -33.7600   12.2880   56.4510 C.3    41  VAL41       0.0276
     29  CG1      -33.0550   11.6540   57.6290 C.3    41  VAL41       0.0022
     30  CG2      -34.2870   11.1840   55.5270 C.3    41  VAL41       0.0022
     31  N        -34.5930   12.5080   62.5110 N.3    46  TYR46      -0.1241
     32  CA       -33.5340   11.5110   62.5440 C.3    46  TYR46       0.1605
     33  C        -32.1660   12.1230   62.8480 C.2    46  TYR46       0.2264
     34  O        -31.9560   13.3450   62.7090 O.2    46  TYR46      -0.2867
     35  CB       -33.4830   10.7750   61.2120 C.3    46  TYR46       0.0534
     36  CG       -34.6390    9.8960   60.8930 C.ar   46  TYR46      -0.0201
     37  CD1      -34.5970    8.5650   61.2900 C.ar   46  TYR46      -0.0009
     38  CD2      -35.7110   10.3210   60.0860 C.ar   46  TYR46      -0.0009
     39  CE1      -35.6400    7.6860   60.9630 C.ar   46  TYR46       0.0417
     40  CE2      -36.7540    9.4720   59.7880 C.ar   46  TYR46       0.0417
     41  CZ       -36.7080    8.1560   60.1980 C.ar   46  TYR46       0.1957
     42  OH       -37.7480    7.3140   59.8630 O.3    46  TYR46      -0.2866
     43  N        -25.6220   10.0410   59.0130 N.3    51  VAL51      -0.1245
     44  CA       -25.5490    9.9770   57.5110 C.3    51  VAL51       0.1561
     45  C        -24.7130   11.0780   56.9220 C.2    51  VAL51       0.2260
     46  O        -24.3680   11.0240   55.7450 O.2    51  VAL51      -0.2867
     47  CB       -26.9360    9.8890   56.8330 C.3    51  VAL51       0.0252
     48  CG1      -27.5430    8.5420   57.1170 C.3    51  VAL51       0.0019
     49  CG2      -27.8920   10.9990   57.2940 C.3    51  VAL51       0.0019
     50  N        -34.4380    0.0680   46.1800 N.3   138  LYS138     -0.1245
     51  CA       -33.3210    0.1230   47.1130 C.3   138  LYS138      0.1561
     52  C        -32.0640   -0.4650   46.5440 C.2   138  LYS138      0.2260
     53  O        -30.9490    0.0230   46.8380 O.2   138  LYS138     -0.2867
     54  CB       -33.7110   -0.5730   48.4070 C.3   138  LYS138      0.0271
     55  CG       -35.0440   -0.1410   49.0210 C.3   138  LYS138      0.0035
     56  CD       -35.2020    1.3690   49.2110 C.3   138  LYS138      0.0206
     57  CE       -36.5990    1.7040   49.7090 C.3   138  LYS138      0.1093
     58  NZ       -36.7850    3.1530   49.9270 N.3   138  LYS138     -0.1314
     59  N        -28.3280    4.3160   52.7340 N.3   164  THR164     -0.1218
     60  CA       -27.9560    3.8750   54.0670 C.3   164  THR164      0.1862
     61  C        -27.3410    2.4860   54.0320 C.2   164  THR164      0.2287
     62  O        -27.5930    1.6460   53.1240 O.2   164  THR164     -0.2866
     63  CB       -29.1510    3.8800   55.0280 C.3   164  THR164      0.1770
     64  OG1      -30.1630    2.9720   54.5300 O.3   164  THR164     -0.2211
     65  CG2      -29.6800    5.3090   55.1640 C.3   164  THR164      0.0375
     66  N        -29.8760   -0.4810   54.0050 N.3   167  VAL167     -0.1231
     67  CA       -30.9700   -0.4830   53.0020 C.3   167  VAL167      0.1692
     68  C        -30.3250   -0.4510   51.6220 C.2   167  VAL167      0.2592
     69  O        -30.0280   -1.5340   51.0700 O.2   167  VAL167     -0.2718
     70  CB       -31.9860    0.6090   53.2540 C.3   167  VAL167      0.0266
     71  CG1      -33.0930    0.6080   52.2020 C.3   167  VAL167      0.0020
     72  CG2      -32.5920    0.4590   54.6290 C.3   167  VAL167      0.0020
     73  N        -30.0010    0.7010   51.0740 N.am  168  CYS168     -0.1970
     74  CA       -29.5770    0.7690   49.6900 C.3   168  CYS168      0.1712
     75  C        -28.1660    0.2110   49.4830 C.2   168  CYS168      0.2296
     76  O        -27.9240   -0.4470   48.4580 O.2   168  CYS168     -0.2864
     77  CB       -29.6400    2.1790   49.1200 C.3   168  CYS168      0.0983
     78  SG       -31.4080    2.7450   49.1930 S.3   168  CYS168     -0.0798
     79  N        -29.1570    5.9870   59.8640 N.3   193  THR193     -0.1218
     80  CA       -29.7000    6.7160   60.9870 C.3   193  THR193      0.1862
     81  C        -29.9300    5.8140   62.2100 C.2   193  THR193      0.2287
     82  O        -30.2290    6.3940   63.3000 O.2   193  THR193     -0.2866
     83  CB       -31.0140    7.4710   60.6540 C.3   193  THR193      0.1770
     84  OG1      -32.0130    6.5460   60.2160 O.3   193  THR193     -0.2211
     85  CG2      -30.7020    8.5820   59.6040 C.3   193  THR193      0.0375
@<TRIPOS>BOND
     1    50    51    1
     2    52    53    2
     3    52    51    1
     4    51    54    1
     5    54    55    1
     6    76    75    2
     7    55    56    1
     8    77    78    1
     9    77    74    1
    10    56    57    1
    11    10    11   ar
    12    10     8   ar
    13    75    74    1
    14    11     9   ar
    15    74    73    1
    16    57    58    1
    17     8     6   ar
    18     9     7   ar
    19    69    68    2
    20    73    68   am
    21     6     7   ar
    22     6     5    1
    23    68    67    1
    24    21    19   ar
    25    21    22   ar
    26     1     2    1
    27     5     2    1
    28    19    17   ar
    29    71    70    1
    30    59    60    1
    31    23    22    1
    32     2     3    1
    33    22    20   ar
    34    67    70    1
    35    67    66    1
    36    62    61    2
    37    70    72    1
    38    17    16    1
    39    17    18   ar
    40    16    13    1
    41     3     4    2
    42    61    60    1
    43    12    13    1
    44    60    63    1
    45    20    18   ar
    46    64    63    1
    47    13    14    1
    48    63    65    1
    49    30    28    1
    50    46    45    2
    51    24    14   am
    52    24    25    1
    53    14    15    2
    54    28    25    1
    55    28    29    1
    56    47    48    1
    57    47    49    1
    58    47    44    1
    59    25    26    1
    60    45    44    1
    61    44    43    1
    62    26    27    2
    63    85    83    1
    64    40    38   ar
    65    40    41   ar
    66    42    41    1
    67    79    80    1
    68    38    36   ar
    69    41    39   ar
    70    84    83    1
    71    83    80    1
    72    36    35    1
    73    36    37   ar
    74    39    37   ar
    75    80    81    1
    76    35    32    1
    77    81    82    2
    78    31    32    1
    79    32    33    1
    80    34    33    2
