@<TRIPOS>MOLECULE
tmp/6azyA00.pdb
 152 146 0 0 0
SMALL
GASTEIGER

@<TRIPOS>ATOM
      1  N         19.8510   35.0290   54.0640 N.3   161  ASP161     -0.1225
      2  CA        20.7860   35.6110   53.1050 C.3   161  ASP161      0.1790
      3  C         20.0590   36.4850   52.0900 C.2   161  ASP161      0.2440
      4  O         18.8570   36.3410   51.8730 O.2   161  ASP161     -0.2733
      5  CB        21.5620   34.5280   52.3310 C.3   161  ASP161      0.1423
      6  CG        22.6440   33.8400   53.1500 C.2   161  ASP161      0.3668
      7  OD1       23.1790   34.4410   54.1050 O.co2 161  ASP161     -0.2456
      8  OD2       23.0000   32.7000   52.7810 O.co2 161  ASP161     -0.2456
      9  N         20.7880   37.3690   51.4220 N.am  162  PRO162     -0.2718
     10  CA        20.1710   38.1800   50.3730 C.3   162  PRO162      0.1535
     11  C         19.7430   37.3260   49.1920 C.2   162  PRO162      0.2598
     12  O         20.3770   36.3260   48.8730 O.2   162  PRO162     -0.2715
     13  CB        21.2960   39.1470   49.9690 C.3   162  PRO162      0.0310
     14  CG        22.2130   39.1750   51.1540 C.3   162  PRO162      0.0237
     15  CD        22.1660   37.8060   51.7300 C.3   162  PRO162      0.0939
     16  N         18.7000   37.7730   48.4920 N.am  163  VAL163     -0.1964
     17  CA        18.2630   37.1540   47.2440 C.3   163  VAL163      0.1727
     18  C         18.5700   38.1320   46.1070 C.2   163  VAL163      0.2616
     19  O         18.0450   39.2500   46.0810 O.2   163  VAL163     -0.2715
     20  CB        16.7710   36.7910   47.2840 C.3   163  VAL163      0.0290
     21  CG1       16.3730   36.1400   45.9900 C.3   163  VAL163      0.0023
     22  CG2       16.4400   35.9020   48.4960 C.3   163  VAL163      0.0023
     23  N         19.4120   37.7140   45.1630 N.am  164  ILE164     -0.1977
     24  CA        19.9820   38.5880   44.1430 C.3   164  ILE164      0.1596
     25  C         19.4180   38.1940   42.7810 C.2   164  ILE164      0.2287
     26  O         19.2950   37.0070   42.4610 O.2   164  ILE164     -0.2864
     27  CB        21.5360   38.5360   44.1560 C.3   164  ILE164      0.0276
     28  CG1       22.1140   39.2360   45.3830 C.3   164  ILE164      0.0022
     29  CG2       22.1780   39.1190   42.9230 C.3   164  ILE164      0.0022
     30  CD1       22.2740   38.3250   46.5550 C.3   164  ILE164      0.0001
     31  N         16.4550   38.2490   41.1930 N.3   166  ARG166     -0.1245
     32  CA        15.1330   37.6670   40.9560 C.3   166  ARG166      0.1563
     33  C         14.0000   38.6860   41.1170 C.2   166  ARG166      0.2260
     34  O         12.8780   38.3100   41.4520 O.2   166  ARG166     -0.2867
     35  CB        14.8410   36.4760   41.8870 C.3   166  ARG166      0.0307
     36  CG        15.6490   35.2360   41.7570 C.3   166  ARG166      0.0489
     37  CD        15.4620   34.6100   40.3820 C.3   166  ARG166      0.2205
     38  NE        15.9620   33.2390   40.2940 N.pl3 166  ARG166     -0.0865
     39  CZ        16.0290   32.5250   39.1660 C.cat 166  ARG166      0.5346
     40  NH1       15.7000   33.0660   37.9950 N.pl3 166  ARG166      0.1354
     41  NH2       16.4570   31.2660   39.2070 N.pl3 166  ARG166      0.1354
     42  N         15.6790   21.2500   40.9880 N.3   191  PRO191     -0.2102
     43  CA        16.2300   21.3990   42.3460 C.3   191  PRO191      0.1504
     44  C         17.4540   22.3000   42.3630 C.2   191  PRO191      0.2576
     45  O         18.4230   22.0780   41.6290 O.2   191  PRO191     -0.2718
     46  CB        16.6130   19.9660   42.7360 C.3   191  PRO191      0.0282
     47  CG        15.8040   19.1010   41.8680 C.3   191  PRO191      0.0208
     48  CD        15.6770   19.8370   40.5660 C.3   191  PRO191      0.0893
     49  N         17.4110   23.3140   43.2290 N.am  192  GLY192     -0.1943
     50  CA        18.5360   24.2010   43.4320 C.3   192  GLY192      0.2014
     51  C         18.5050   25.4950   42.6490 C.2   192  GLY192      0.2639
     52  O         19.4050   26.3210   42.8460 O.2   192  GLY192     -0.2714
     53  N         17.5100   25.7030   41.7730 N.am  193  VAL193     -0.1963
     54  CA        17.4390   26.9320   40.9820 C.3   193  VAL193      0.1727
     55  C         17.0210   28.1550   41.7880 C.2   193  VAL193      0.2617
     56  O         17.1160   29.2780   41.2730 O.2   193  VAL193     -0.2715
     57  CB        16.4450   26.7840   39.8130 C.3   193  VAL193      0.0290
     58  CG1       16.8120   25.5890   38.9130 C.3   193  VAL193      0.0023
     59  CG2       15.0490   26.6630   40.3410 C.3   193  VAL193      0.0023
     60  N         16.5450   27.9660   43.0170 N.am  194  GLY194     -0.1940
     61  CA        16.1050   29.0410   43.8780 C.3   194  GLY194      0.2014
     62  C         14.6000   29.2300   43.9990 C.2   194  GLY194      0.2639
     63  O         14.1410   30.3760   44.1000 O.2   194  GLY194     -0.2714
     64  N         13.8090   28.1690   43.9760 N.am  195  LYS195     -0.1963
     65  CA        12.3740   28.3830   44.1630 C.3   195  LYS195      0.1728
     66  C         12.0850   28.8450   45.5760 C.2   195  LYS195      0.2617
     67  O         11.3250   29.7930   45.7770 O.2   195  LYS195     -0.2715
     68  CB        11.6090   27.1240   43.8380 C.3   195  LYS195      0.0311
     69  CG        11.7260   26.7340   42.3990 C.3   195  LYS195      0.0038
     70  CD        10.9300   25.4960   42.2020 C.3   195  LYS195      0.0206
     71  CE        11.5530   24.2790   42.8720 C.3   195  LYS195      0.1093
     72  NZ        12.7780   23.8380   42.1920 N.3   195  LYS195     -0.1314
     73  N         12.7130   28.2110   46.5700 N.am  196  THR196     -0.1937
     74  CA        12.5360   28.6550   47.9460 C.3   196  THR196      0.2028
     75  C         13.0710   30.0680   48.1600 C.2   196  THR196      0.2642
     76  O         12.5240   30.8200   48.9710 O.2   196  THR196     -0.2714
     77  CB        13.1950   27.6680   48.9010 C.3   196  THR196      0.1808
     78  OG1       12.5870   26.3940   48.7120 O.3   196  THR196     -0.2208
     79  CG2       12.9970   28.0800   50.3430 C.3   196  THR196      0.0379
     80  N         14.1480   30.4480   47.4620 N.am  197  ALA197     -0.1977
     81  CA        14.7000   31.7850   47.6640 C.3   197  ALA197      0.1597
     82  C         13.7330   32.8650   47.1820 C.2   197  ALA197      0.2287
     83  O         13.6820   33.9630   47.7500 O.2   197  ALA197     -0.2864
     84  CB        16.0510   31.9130   46.9540 C.3   197  ALA197      0.0319
     85  N         11.4700   33.3030   49.9670 N.3   200  GLU200     -0.1196
     86  CA        12.2240   34.0510   50.9840 C.3   200  GLU200      0.1783
     87  C         12.3800   35.5170   50.5910 C.2   200  GLU200      0.2306
     88  O         12.2710   36.4020   51.4420 O.2   200  GLU200     -0.2863
     89  CB        13.6060   33.4150   51.2240 C.2   200  GLU200      0.0071
     90  CG        13.5870   32.0140   51.9160 C.2   200  GLU200      0.0834
     91  CD        14.9860   31.3620   52.1230 C.2   200  GLU200      0.3877
     92  OE1       16.0140   31.8910   51.6210 O.co2 200  GLU200     -0.2406
     93  OE2       15.0530   30.3120   52.8080 O.co2 200  GLU200     -0.2406
     94  N          6.6320   23.8850   49.6670 N.3   255  ASP255     -0.1239
     95  CA         7.6080   23.1810   48.8590 C.3   255  ASP255      0.1674
     96  C          7.1540   21.7410   48.6460 C.2   255  ASP255      0.2266
     97  O          6.5380   21.1230   49.5240 O.2   255  ASP255     -0.2867
     98  CB         8.9630   23.2000   49.5570 C.3   255  ASP255      0.1410
     99  CG        10.1120   22.8450   48.6430 C.2   255  ASP255      0.3668
    100  OD1        9.9170   22.7140   47.4140 O.co2 255  ASP255     -0.2456
    101  OD2       11.2180   22.6450   49.1780 O.co2 255  ASP255     -0.2456
    102  N         24.9550   36.2700   41.7940 N.3   321  ILE321     -0.1245
    103  CA        24.4340   35.7160   43.0330 C.3   321  ILE321      0.1561
    104  C         25.5570   35.4960   44.0260 C.2   321  ILE321      0.2260
    105  O         25.4220   35.8210   45.2120 O.2   321  ILE321     -0.2867
    106  CB        23.6330   34.4350   42.7490 C.3   321  ILE321      0.0252
    107  CG1       22.3870   34.8190   41.9350 C.3   321  ILE321      0.0019
    108  CG2       23.2820   33.7470   44.0560 C.3   321  ILE321      0.0019
    109  CD1       21.6430   33.6570   41.3630 C.3   321  ILE321      0.0001
    110  N         26.1220   37.0060   47.9100 N.3   325  LEU325     -0.1245
    111  CA        26.2580   36.1570   49.0940 C.3   325  LEU325      0.1561
    112  C         27.6510   36.2210   49.7310 C.2   325  LEU325      0.2260
    113  O         27.8140   35.7970   50.8780 O.2   325  LEU325     -0.2867
    114  CB        25.9440   34.7210   48.6990 C.3   325  LEU325      0.0270
    115  CG        24.5430   34.4470   48.1410 C.3   325  LEU325      0.0019
    116  CD1       24.4820   33.0110   47.6340 C.3   325  LEU325      0.0001
    117  CD2       23.5190   34.6590   49.1870 C.3   325  LEU325      0.0001
    118  N         29.2770   34.5380   53.5960 N.3   329  TYR329     -0.1241
    119  CA        30.1670   33.4270   53.8970 C.3   329  TYR329      0.1605
    120  C         31.5030   33.9010   54.4700 C.2   329  TYR329      0.2264
    121  O         32.0390   33.2500   55.3740 O.2   329  TYR329     -0.2867
    122  CB        30.4190   32.5020   52.6990 C.3   329  TYR329      0.0534
    123  CG        29.1850   31.7790   52.1970 C.ar  329  TYR329     -0.0201
    124  CD1       27.9200   32.2520   52.4410 C.ar  329  TYR329     -0.0009
    125  CD2       29.2810   30.4470   51.8460 C.ar  329  TYR329     -0.0009
    126  CE1       26.8040   31.5570   52.0760 C.ar  329  TYR329      0.0417
    127  CE2       28.1560   29.7110   51.5300 C.ar  329  TYR329      0.0417
    128  CZ        26.9130   30.2860   51.6550 C.ar  329  TYR329      0.1957
    129  OH        25.7640   29.6030   51.3530 O.3   329  TYR329     -0.2866
    130  N         21.9220   28.0350   41.3840 N.3   359  PRO359     -0.2102
    131  CA        23.2290   28.3690   41.9640 C.3   359  PRO359      0.1504
    132  C         23.6660   27.4480   43.1070 C.2   359  PRO359      0.2575
    133  O         24.7620   27.6370   43.6160 O.2   359  PRO359     -0.2718
    134  CB        23.0060   29.7960   42.5010 C.3   359  PRO359      0.0282
    135  CG        21.5570   29.8360   42.8390 C.3   359  PRO359      0.0208
    136  CD        20.8590   28.9560   41.8190 C.3   359  PRO359      0.0893
    137  N         22.8170   26.4880   43.4950 N.am  360  ASP360     -0.1974
    138  CA        23.0810   25.6400   44.6610 C.3   360  ASP360      0.1708
    139  C         24.4730   25.0170   44.5780 C.2   360  ASP360      0.2293
    140  O         25.2640   25.1080   45.5220 O.2   360  ASP360     -0.2864
    141  CB        21.9740   24.5680   44.7670 C.3   360  ASP360      0.1436
    142  CG        22.0600   23.7190   46.0280 C.2   360  ASP360      0.3671
    143  OD1       21.8170   24.2280   47.1470 O.co2 360  ASP360     -0.2456
    144  OD2       22.2910   22.5010   45.8940 O.co2 360  ASP360     -0.2456
    145  N         27.4730   27.8490   45.1670 N.3   363  ILE363     -0.1245
    146  CA        27.3910   28.1550   46.5840 C.3   363  ILE363      0.1561
    147  C         28.0170   27.0110   47.3530 C.2   363  ILE363      0.2260
    148  O         28.8050   27.2140   48.2750 O.2   363  ILE363     -0.2867
    149  CB        25.9190   28.3380   46.9920 C.3   363  ILE363      0.0252
    150  CG1       25.3290   29.5240   46.2330 C.3   363  ILE363      0.0019
    151  CG2       25.7720   28.4830   48.4950 C.3   363  ILE363      0.0019
    152  CD1       23.8320   29.6500   46.3280 C.3   363  ILE363      0.0001
@<TRIPOS>BOND
     1    40    39    1
     2    58    57    1
     3    39    41    1
     4    39    38    2
     5    57    59    1
     6    57    54    1
     7    38    37    1
     8    37    36    1
     9    48    42    1
    10    48    47    1
    11    32    33    1
    12    32    31    1
    13    32    35    1
    14    54    53    1
    15    54    55    1
    16    42    43    1
    17    33    34    2
    18    56    55    2
    19   109   107    1
    20   130   136    1
    21   130   131    1
    22    45    44    2
    23    36    35    1
    24    53    51   am
    25    55    60   am
    26   102   103    1
    27   136   135    1
    28    47    46    1
    29   107   106    1
    30   131   134    1
    31   131   132    1
    32    72    71    1
    33    70    69    1
    34    70    71    1
    35    43    44    1
    36    43    46    1
    37    44    49   am
    38    69    68    1
    39    26    25    2
    40   134   135    1
    41    51    52    2
    42    51    50    1
    43   106   103    1
    44   106   108    1
    45    25    24    1
    46    29    27    1
    47    60    61    1
    48   103   104    1
    49   132   137   am
    50   132   133    2
    51    49    50    1
    52   137   138    1
    53    68    65    1
    54    61    62    1
    55    64    62   am
    56    64    65    1
    57    62    63    2
    58   104   105    2
    59    24    27    1
    60    24    23    1
    61    27    28    1
    62    65    66    1
    63   139   138    1
    64   139   140    2
    65   138   141    1
    66   141   142    1
    67    23    18   am
    68   145   146    1
    69    28    30    1
    70    66    67    2
    71    66    73   am
    72   144   142   ar
    73    21    20    1
    74   142   143   ar
    75    19    18    2
    76    18    17    1
    77   150   152    1
    78   150   149    1
    79    73    74    1
    80   146   149    1
    81   146   147    1
    82    84    81    1
    83   149   151    1
    84    82    81    1
    85    82    83    2
    86    17    20    1
    87    17    16    1
    88    20    22    1
    89   147   148    2
    90   100    99   ar
    91    80    81    1
    92    80    75   am
    93   116   115    1
    94   110   111    1
    95    74    75    1
    96    74    77    1
    97   115   114    1
    98   115   117    1
    99    75    76    2
   100    16    11   am
   101    99   101   ar
   102    99    98    1
   103    96    95    1
   104    96    97    2
   105   114   111    1
   106    78    77    1
   107    95    98    1
   108    95    94    1
   109    12    11    2
   110    77    79    1
   111   111   112    1
   112    11    10    1
   113   112   113    2
   114    85    86    1
   115    13    10    1
   116    13    14    1
   117    10     9    1
   118    87    86    1
   119    87    88    2
   120    86    89    1
   121    14    15    1
   122    89    90    2
   123   129   128    1
   124     9    15    1
   125     9     3   am
   126   127   128   ar
   127   127   125   ar
   128    92    91   ar
   129   128   126   ar
   130   125   123   ar
   131     4     3    2
   132    90    91    1
   133   126   124   ar
   134     3     2    1
   135    91    93   ar
   136   123   124   ar
   137   123   122    1
   138     5     2    1
   139     5     6    1
   140   122   119    1
   141     8     6   ar
   142     2     1    1
   143     6     7   ar
   144   118   119    1
   145   119   120    1
   146   120   121    2
