@<TRIPOS>MOLECULE
tmp/6azyA01.pdb
 136 129 0 0 0
SMALL
GASTEIGER

@<TRIPOS>ATOM
      1  N         42.5280    8.6670   20.5480 N.3   546  HIS546     -0.1226
      2  CA        41.9280    7.3610   20.3050 C.3   546  HIS546      0.1752
      3  C         41.6110    7.1240   18.8340 C.2   546  HIS546      0.2596
      4  O         41.6670    5.9810   18.3720 O.2   546  HIS546     -0.2718
      5  CB        40.6740    7.1820   21.1660 C.3   546  HIS546      0.0759
      6  CG        40.9670    7.0780   22.6330 C.ar  546  HIS546      0.0818
      7  ND1       41.0470    8.1790   23.4610 N.ar  546  HIS546     -0.2268
      8  CD2       41.2220    6.0000   23.4150 C.ar  546  HIS546      0.1154
      9  CE1       41.3270    7.7820   24.6900 C.ar  546  HIS546      0.1986
     10  NE2       41.4410    6.4650   24.6880 N.ar  546  HIS546     -0.2212
     11  N         41.3060    8.1810   18.0840 N.am  547  VAL547     -0.1966
     12  CA        40.9190    8.0540   16.6820 C.3   547  VAL547      0.1727
     13  C         42.1730    8.2100   15.8220 C.2   547  VAL547      0.2616
     14  O         42.7400    9.3030   15.7160 O.2   547  VAL547     -0.2715
     15  CB        39.8440    9.0810   16.3080 C.3   547  VAL547      0.0290
     16  CG1       39.4790    8.9830   14.8380 C.3   547  VAL547      0.0023
     17  CG2       38.6240    8.8900   17.1650 C.3   547  VAL547      0.0023
     18  N         42.5980    7.1120   15.1940 N.am  548  VAL548     -0.1977
     19  CA        43.8110    7.0580   14.3820 C.3   548  VAL548      0.1596
     20  C         43.4420    7.2210   12.9120 C.2   548  VAL548      0.2287
     21  O         42.4030    6.7250   12.4600 O.2   548  VAL548     -0.2864
     22  CB        44.5680    5.7390   14.6440 C.3   548  VAL548      0.0276
     23  CG1       45.7280    5.5350   13.6840 C.3   548  VAL548      0.0022
     24  CG2       45.0880    5.7200   16.0700 C.3   548  VAL548      0.0022
     25  N         32.4310    1.8200    6.8950 N.3   584  THR584     -0.1203
     26  CA        32.2660    1.3500    8.2600 C.3   584  THR584      0.1994
     27  C         33.5490    0.6700    8.7410 C.2   584  THR584      0.2618
     28  O         34.3570    0.1790    7.9450 O.2   584  THR584     -0.2717
     29  CB        31.0570    0.4050    8.3350 C.3   584  THR584      0.1784
     30  OG1       30.8320   -0.0070    9.6880 O.3   584  THR584     -0.2211
     31  CG2       31.2380   -0.8070    7.4340 C.3   584  THR584      0.0376
     32  N         33.7480    0.6720   10.0570 N.am  585  GLY585     -0.1942
     33  CA        34.9450    0.1070   10.6460 C.3   585  GLY585      0.2014
     34  C         36.1430    1.0290   10.6830 C.2   585  GLY585      0.2639
     35  O         37.2530    0.5680   10.9760 O.2   585  GLY585     -0.2714
     36  N         35.9530    2.3220   10.4080 N.am  586  CYS586     -0.1953
     37  CA        37.0430    3.2840   10.3750 C.3   586  CYS586      0.1843
     38  C         37.0140    4.2930   11.5160 C.2   586  CYS586      0.2626
     39  O         38.0180    4.9770   11.7370 O.2   586  CYS586     -0.2714
     40  CB        37.0350    4.0340    9.0340 C.3   586  CYS586      0.0997
     41  SG        37.3570    2.9490    7.6200 S.3   586  CYS586     -0.0797
     42  N         35.9020    4.4010   12.2420 N.am  587  GLY587     -0.1940
     43  CA        35.8570    5.2440   13.4200 C.3   587  GLY587      0.2014
     44  C         34.7640    6.2960   13.4500 C.2   587  GLY587      0.2639
     45  O         34.9910    7.4000   13.9560 O.2   587  GLY587     -0.2714
     46  N         33.5770    5.9640   12.9220 N.am  588  LYS588     -0.1963
     47  CA        32.4200    6.8550   13.0210 C.3   588  LYS588      0.1728
     48  C         31.8570    6.8820   14.4420 C.2   588  LYS588      0.2617
     49  O         31.6310    7.9590   15.0150 O.2   588  LYS588     -0.2715
     50  CB        31.3290    6.4150   12.0440 C.3   588  LYS588      0.0311
     51  CG        31.6430    6.5500   10.5670 C.3   588  LYS588      0.0038
     52  CD        30.4700    6.0520    9.7330 C.3   588  LYS588      0.0206
     53  CE        30.7660    6.1250    8.2540 C.3   588  LYS588      0.1093
     54  NZ        29.6400    5.5700    7.4480 N.3   588  LYS588     -0.1314
     55  N         31.5900    5.6970   15.0140 N.am  589  THR589     -0.1937
     56  CA        31.0470    5.6140   16.3680 C.3   589  THR589      0.2028
     57  C         32.0700    6.0840   17.3960 C.2   589  THR589      0.2642
     58  O         31.7120    6.7330   18.3890 O.2   589  THR589     -0.2714
     59  CB        30.5840    4.1790   16.6690 C.3   589  THR589      0.1808
     60  OG1       29.5560    3.7890   15.7480 O.3   589  THR589     -0.2208
     61  CG2       30.0480    4.0550   18.0960 C.3   589  THR589      0.0379
     62  N         33.3510    5.7820   17.1620 N.am  590  LEU590     -0.1977
     63  CA        34.3910    6.2370   18.0740 C.3   590  LEU590      0.1596
     64  C         34.4130    7.7640   18.1710 C.2   590  LEU590      0.2287
     65  O         34.5680    8.3160   19.2650 O.2   590  LEU590     -0.2864
     66  CB        35.7430    5.6770   17.6280 C.3   590  LEU590      0.0297
     67  CG        36.9940    5.9320   18.4800 C.3   590  LEU590      0.0022
     68  CD1       36.8600    5.3330   19.8700 C.3   590  LEU590      0.0001
     69  CD2       38.2330    5.3810   17.7880 C.3   590  LEU590      0.0001
     70  N         31.4420    8.7710   20.4220 N.3   593  LYS593     -0.1245
     71  CA        31.8770    8.5310   21.7920 C.3   593  LYS593      0.1561
     72  C         32.7930    9.6520   22.2740 C.2   593  LYS593      0.2260
     73  O         32.6270   10.1840   23.3790 O.2   593  LYS593     -0.2867
     74  CB        32.5950    7.1790   21.8610 C.3   593  LYS593      0.0271
     75  CG        31.7190    5.9540   21.5650 C.3   593  LYS593      0.0035
     76  CD        32.5550    4.6760   21.6160 C.3   593  LYS593      0.0206
     77  CE        31.7440    3.4340   21.2780 C.3   593  LYS593      0.1093
     78  NZ        32.6020    2.2070   21.2890 N.3   593  LYS593     -0.1314
     79  N         41.7140    2.8450    6.6300 N.3   714  LEU714     -0.1245
     80  CA        42.8900    2.5980    7.4470 C.3   714  LEU714      0.1561
     81  C         44.0210    2.0780    6.5710 C.2   714  LEU714      0.2260
     82  O         43.9040    1.0130    5.9540 O.2   714  LEU714     -0.2867
     83  CB        42.5370    1.6000    8.5430 C.3   714  LEU714      0.0270
     84  CG        41.4920    2.1650    9.5000 C.3   714  LEU714      0.0019
     85  CD1       40.9900    1.1160   10.4650 C.3   714  LEU714      0.0001
     86  CD2       42.0940    3.3210   10.2540 C.3   714  LEU714      0.0001
     87  N         46.9000    1.1460   15.1830 N.3   722  ILE722     -0.1245
     88  CA        45.7220    0.7050   15.9230 C.3   722  ILE722      0.1561
     89  C         46.0240   -0.5410   16.7390 C.2   722  ILE722      0.2260
     90  O         45.5560   -0.6730   17.8750 O.2   722  ILE722     -0.2867
     91  CB        44.5350    0.4840   14.9740 C.3   722  ILE722      0.0252
     92  CG1       44.0530    1.8380   14.4500 C.3   722  ILE722      0.0019
     93  CG2       43.4470   -0.3300   15.6630 C.3   722  ILE722      0.0019
     94  CD1       43.0500    1.7310   13.3480 C.3   722  ILE722      0.0001
     95  N         48.1280    0.4100   19.8920 N.3   725  VAL725     -0.1231
     96  CA        47.4270    1.0080   21.0260 C.3   725  VAL725      0.1692
     97  C         46.5630   -0.0390   21.7550 C.2   725  VAL725      0.2591
     98  O         46.4170    0.0320   22.9790 O.2   725  VAL725     -0.2718
     99  CB        46.6000    2.2540   20.6110 C.3   725  VAL725      0.0266
    100  CG1       47.4860    3.3080   19.9470 C.3   725  VAL725      0.0020
    101  CG2       45.3760    1.9300   19.7500 C.3   725  VAL725      0.0020
    102  N         45.9980   -1.0340   21.0560 N.am  726  ARG726     -0.1980
    103  CA        45.2990   -2.1120   21.7640 C.3   726  ARG726      0.1597
    104  C         46.2420   -2.8690   22.6970 C.2   726  ARG726      0.2287
    105  O         45.9090   -3.1220   23.8610 O.2   726  ARG726     -0.2864
    106  CB        44.6490   -3.0920   20.7890 C.3   726  ARG726      0.0334
    107  CG        43.4790   -2.5820   20.0140 C.3   726  ARG726      0.0492
    108  CD        42.3170   -2.3490   20.9450 C.3   726  ARG726      0.2205
    109  NE        41.0640   -2.1380   20.2230 N.pl3 726  ARG726     -0.0865
    110  CZ        40.6050   -0.9610   19.8170 C.cat 726  ARG726      0.5346
    111  NH1       39.4560   -0.9050   19.1730 N.pl3 726  ARG726      0.1354
    112  NH2       41.2870    0.1550   20.0450 N.pl3 726  ARG726      0.1354
    113  N         38.1410   -2.4500   11.9950 N.3   762  ALA762     -0.1231
    114  CA        38.8170   -2.8910   13.2110 C.3   762  ALA762      0.1694
    115  C         37.8900   -3.5750   14.2150 C.2   762  ALA762      0.2591
    116  O         38.3130   -3.8230   15.3530 O.2   762  ALA762     -0.2718
    117  CB        39.5090   -1.7010   13.8870 C.3   762  ALA762      0.0304
    118  N         36.6410   -3.8680   13.8330 N.am  763  ARG763     -0.1980
    119  CA        35.7780   -4.6740   14.6970 C.3   763  ARG763      0.1597
    120  C         36.3620   -6.0410   15.0380 C.2   763  ARG763      0.2287
    121  O         36.2310   -6.4610   16.2020 O.2   763  ARG763     -0.2864
    122  CB        34.3860   -4.8590   14.0730 C.3   763  ARG763      0.0334
    123  CG        33.5080   -3.6240   14.0250 C.3   763  ARG763      0.0492
    124  CD        32.1130   -3.9720   13.4960 C.3   763  ARG763      0.2205
    125  NE        31.2250   -2.8100   13.4330 N.pl3 763  ARG763     -0.0865
    126  CZ        29.9700   -2.8500   12.9940 C.cat 763  ARG763      0.5346
    127  NH1       29.4450   -3.9990   12.5900 N.pl3 763  ARG763      0.1354
    128  NH2       29.2360   -1.7450   12.9690 N.pl3 763  ARG763      0.1354
    129  N         39.3140   -7.0310   18.3740 N.3   766  ASN766     -0.1240
    130  CA        39.3020   -7.2060   19.8200 C.3   766  ASN766      0.1653
    131  C         39.0210   -8.6450   20.2310 C.2   766  ASN766      0.2266
    132  O         39.6190   -9.1260   21.1980 O.2   766  ASN766     -0.2867
    133  CB        38.2950   -6.2360   20.4410 C.3   766  ASN766      0.1155
    134  CG        38.7600   -4.7900   20.3560 C.2   766  ASN766      0.2627
    135  OD1       39.9120   -4.4690   20.6610 O.2   766  ASN766     -0.2716
    136  ND2       37.8830   -3.9240   19.8760 N.am  766  ASN766     -0.0877
@<TRIPOS>BOND
     1    82    81    2
     2    81    80    1
     3    79    80    1
     4    25    26    1
     5    31    29    1
     6    80    83    1
     7    54    53    1
     8    41    40    1
     9    28    27    2
    10    53    52    1
    11    26    29    1
    12    26    27    1
    13    29    30    1
    14    83    84    1
    15    27    32   am
    16    40    37    1
    17    84    86    1
    18    84    85    1
    19    52    51    1
    20    32    33    1
    21    37    36    1
    22    37    38    1
    23    36    34   am
    24    51    50    1
    25    33    34    1
    26    34    35    2
    27    38    39    2
    28    38    42   am
    29   113   114    1
    30    50    47    1
    31    42    43    1
    32    21    20    2
    33   127   126    1
    34    20    19    1
    35    46    47    1
    36    46    44   am
    37   128   126    1
    38   126   125    2
    39    47    48    1
    40   114   117    1
    41   114   115    1
    42    94    92    1
    43    43    44    1
    44   125   124    1
    45    44    45    2
    46   124   123    1
    47    23    22    1
    48   118   115   am
    49   118   119    1
    50   123   122    1
    51   122   119    1
    52   115   116    2
    53    19    22    1
    54    19    18    1
    55    48    55   am
    56    48    49    2
    57    92    91    1
    58    22    24    1
    59   119   120    1
    60    16    15    1
    61    91    93    1
    62    91    88    1
    63    55    56    1
    64   120   121    2
    65    87    88    1
    66    18    13   am
    67    14    13    2
    68    60    59    1
    69    13    12    1
    70    88    89    1
    71    15    12    1
    72    15    17    1
    73    56    59    1
    74    56    57    1
    75    59    61    1
    76    12    11    1
    77    89    90    2
    78    62    57   am
    79    62    63    1
    80    57    58    2
    81    66    63    1
    82    66    67    1
    83    69    67    1
    84    63    64    1
    85    11     3   am
    86    64    65    2
    87     4     3    2
    88   129   130    1
    89    67    68    1
    90     3     2    1
    91   111   110    1
    92   101    99    1
    93   110   112    1
    94   110   109    2
    95   130   131    1
    96   130   133    1
    97   136   134   am
    98    95    96    1
    99   100    99    1
   100   107   106    1
   101   107   108    1
   102   109   108    1
   103   131   132    2
   104     2     1    1
   105     2     5    1
   106   134   133    1
   107   134   135    2
   108    70    71    1
   109    99    96    1
   110   106   103    1
   111    96    97    1
   112   102    97   am
   113   102   103    1
   114     5     6    1
   115    77    78    1
   116    77    76    1
   117    75    76    1
   118    75    74    1
   119    97    98    2
   120   103   104    1
   121    71    74    1
   122    71    72    1
   123    72    73    2
   124     6     8   ar
   125     6     7   ar
   126   104   105    2
   127     8    10   ar
   128     7     9   ar
   129    10     9   ar
