@<TRIPOS>MOLECULE
tmp/6b04A00.pdb
 178 164 0 0 0
SMALL
GASTEIGER

@<TRIPOS>ATOM
      1  N         48.6720   25.0160   10.6040 N.3    87  LEU87      -0.1231
      2  CA        48.1940   23.6750   10.1540 C.3    87  LEU87       0.1693
      3  C         46.7320   23.6490    9.9250 C.2    87  LEU87       0.2591
      4  O         46.2620   23.1610    8.8920 O.2    87  LEU87      -0.2718
      5  CB        48.5560   22.5830   11.1260 C.3    87  LEU87       0.0284
      6  CG        50.0420   22.2860   11.2800 C.3    87  LEU87       0.0019
      7  CD1       50.1910   21.3660   12.4980 C.3    87  LEU87       0.0001
      8  CD2       50.6630   21.6670   10.0570 C.3    87  LEU87       0.0001
      9  N         45.9580   24.1700   10.8570 N.am   88  VAL88      -0.1980
     10  CA        44.4990   24.1680   10.6910 C.3    88  VAL88       0.1595
     11  C         43.9200   25.1570    9.6790 C.2    88  VAL88       0.2287
     12  O         42.8590   24.9280    9.0730 O.2    88  VAL88      -0.2864
     13  CB        43.6450   24.1330   11.9970 C.3    88  VAL88       0.0276
     14  CG1       44.0230   22.9520   12.8690 C.3    88  VAL88       0.0022
     15  CG2       43.6560   25.4260   12.7860 C.3    88  VAL88       0.0022
     16  N         44.3610   22.9780    6.6950 N.3    91  ASP91      -0.1225
     17  CA        43.4590   21.7900    6.8730 C.3    91  ASP91       0.1805
     18  C         42.0400   22.1300    6.5480 C.2    91  ASP91       0.2597
     19  O         41.3740   21.3490    5.8750 O.2    91  ASP91      -0.2718
     20  CB        43.5610   21.3100    8.2830 C.3    91  ASP91       0.1424
     21  CG        42.6770   20.0450    8.5090 C.2    91  ASP91       0.3668
     22  OD1       43.1510   18.9680    8.0870 O.co2  91  ASP91      -0.2456
     23  OD2       41.6750   20.2480    9.1330 O.co2  91  ASP91      -0.2456
     24  N         41.5490   23.2910    7.0210 N.am   92  ASP92      -0.1974
     25  CA        40.2340   23.7090    6.7450 C.3    92  ASP92       0.1709
     26  C         39.9300   23.8680    5.2460 C.2    92  ASP92       0.2293
     27  O         38.8280   23.5230    4.7560 O.2    92  ASP92      -0.2864
     28  CB        39.8410   24.9700    7.5240 C.3    92  ASP92       0.1436
     29  CG        39.5680   24.6960    9.0060 C.2    92  ASP92       0.3671
     30  OD1       39.2770   23.5350    9.3790 O.co2  92  ASP92      -0.2456
     31  OD2       39.7030   25.6020    9.8750 O.co2  92  ASP92      -0.2456
     32  N         39.8320   20.2390    3.8240 N.3    95  ASP95      -0.1239
     33  CA        38.7080   19.4370    4.4290 C.3    95  ASP95       0.1674
     34  C         37.3580   19.9710    4.0790 C.2    95  ASP95       0.2266
     35  O         36.3440   19.3800    4.4690 O.2    95  ASP95      -0.2867
     36  CB        38.9090   19.2640    5.9480 C.3    95  ASP95       0.1410
     37  CG        40.1030   18.4030    6.2730 C.2    95  ASP95       0.3668
     38  OD1       40.7190   17.7930    5.2870 O.co2  95  ASP95      -0.2456
     39  OD2       40.5460   18.2080    7.4620 O.co2  95  ASP95      -0.2456
     40  N         35.9900   22.6220    5.2740 N.3    97  SER97      -0.1217
     41  CA        35.3500   23.0440    6.4760 C.3    97  SER97       0.1889
     42  C         34.7590   24.4520    6.3320 C.2    97  SER97       0.2288
     43  O         35.1100   25.1530    5.4440 O.2    97  SER97      -0.2866
     44  CB        36.2840   22.8170    7.6770 C.3    97  SER97       0.2089
     45  OG        36.6350   21.4020    7.7730 O.3    97  SER97      -0.2183
     46  N         35.1910   27.0570   12.4890 N.3   100  ARG100     -0.1245
     47  CA        36.1240   26.6300   13.4870 C.3   100  ARG100      0.1563
     48  C         36.1000   27.6860   14.6400 C.2   100  ARG100      0.2260
     49  O         35.8920   28.8880   14.3660 O.2   100  ARG100     -0.2867
     50  CB        37.5640   26.5300   12.9460 C.3   100  ARG100      0.0307
     51  CG        38.4290   25.9140   14.0170 C.3   100  ARG100      0.0489
     52  CD        39.8230   25.6260   13.6480 C.3   100  ARG100      0.2205
     53  NE        39.8930   24.6200   12.6100 N.pl3 100  ARG100     -0.0865
     54  CZ        40.0860   23.3210   12.8460 C.cat 100  ARG100      0.5346
     55  NH1       40.1550   22.8630   14.0560 N.pl3 100  ARG100      0.1354
     56  NH2       40.1940   22.4710   11.8410 N.pl3 100  ARG100      0.1354
     57  N         53.9380   16.2910   10.1400 N.3   155  THR155     -0.1218
     58  CA        52.5890   16.5940    9.9130 C.3   155  THR155      0.1862
     59  C         52.1350   16.5330    8.4570 C.2   155  THR155      0.2287
     60  O         51.0550   16.0490    8.1530 O.2   155  THR155     -0.2866
     61  CB        52.1610   17.9520   10.5780 C.3   155  THR155      0.1770
     62  OG1       52.6190   18.0110   11.9490 O.3   155  THR155     -0.2211
     63  CG2       50.7740   18.0930   10.6040 C.3   155  THR155      0.0375
     64  N         49.2860   14.4130    6.6850 N.3   159  GLN159     -0.1245
     65  CA        48.2730   15.0640    5.8870 C.3   159  GLN159      0.1566
     66  C         48.2070   14.4710    4.4840 C.2   159  GLN159      0.2260
     67  O         47.1230   14.3650    3.9210 O.2   159  GLN159     -0.2867
     68  CB        48.4750   16.5590    5.7440 C.3   159  GLN159      0.0367
     69  CG        48.1910   17.2730    7.0530 C.3   159  GLN159      0.0905
     70  CD        46.7460   17.2620    7.4900 C.2   159  GLN159      0.2608
     71  OE1       46.2560   16.2320    7.9900 O.2   159  GLN159     -0.2717
     72  NE2       46.0510   18.3920    7.3340 N.am  159  GLN159     -0.0878
     73  N         46.2360   11.3540    4.7520 N.3   162  ASP162     -0.1239
     74  CA        44.8590   11.7150    5.0510 C.3   162  ASP162      0.1674
     75  C         44.0500   12.1740    3.8720 C.2   162  ASP162      0.2266
     76  O         42.8950   11.7920    3.7430 O.2   162  ASP162     -0.2867
     77  CB        44.8880   12.8070    6.1660 C.3   162  ASP162      0.1410
     78  CG        43.5010   13.3500    6.5320 C.2   162  ASP162      0.3668
     79  OD1       42.9440   14.1450    5.7080 O.co2 162  ASP162     -0.2456
     80  OD2       43.0520   13.0010    7.6730 O.co2 162  ASP162     -0.2456
     81  N         50.0700   12.7710   11.3390 N.3   188  LYS188     -0.1231
     82  CA        49.3590   14.0450   11.1830 C.3   188  LYS188      0.1693
     83  C         49.1020   14.6950   12.5480 C.2   188  LYS188      0.2592
     84  O         48.9150   15.9070   12.5980 O.2   188  LYS188     -0.2718
     85  CB        48.0370   13.9540   10.4430 C.3   188  LYS188      0.0285
     86  CG        46.8540   13.4290   11.1990 C.3   188  LYS188      0.0035
     87  CD        45.5900   13.6290   10.4160 C.3   188  LYS188      0.0206
     88  CE        44.3940   12.9600   11.0850 C.3   188  LYS188      0.1093
     89  NZ        43.0840   13.3320   10.5600 N.3   188  LYS188     -0.1314
     90  N         49.0140   13.8610   13.5930 N.am  189  THR189     -0.1953
     91  CA        48.5460   14.3990   14.9250 C.3   189  THR189      0.1897
     92  C         49.5130   14.1900   16.0270 C.2   189  THR189      0.2313
     93  O         49.7840   15.1640   16.7560 O.2   189  THR189     -0.2863
     94  CB        47.2070   13.8230   15.3310 C.3   189  THR189      0.1794
     95  OG1       46.2350   14.3050   14.4360 O.3   189  THR189     -0.2208
     96  CG2       46.7740   14.2040   16.7150 C.3   189  THR189      0.0378
     97  N         52.9320   16.6510   16.4300 N.3   192  TYR192     -0.1241
     98  CA        52.8180   18.0300   16.8160 C.3   192  TYR192      0.1605
     99  C         51.9810   18.2690   18.0540 C.2   192  TYR192      0.2264
    100  O         52.1940   19.2580   18.7290 O.2   192  TYR192     -0.2867
    101  CB        52.3510   18.9540   15.6810 C.3   192  TYR192      0.0534
    102  CG        50.8930   19.1560   15.5570 C.ar  192  TYR192     -0.0201
    103  CD1       50.1270   18.2600   14.8480 C.ar  192  TYR192     -0.0009
    104  CD2       50.2630   20.1730   16.1960 C.ar  192  TYR192     -0.0009
    105  CE1       48.7890   18.4110   14.7160 C.ar  192  TYR192      0.0417
    106  CE2       48.9140   20.3600   16.0800 C.ar  192  TYR192      0.0417
    107  CZ        48.1920   19.4820   15.3280 C.ar  192  TYR192      0.1957
    108  OH        46.8540   19.6370   15.1620 O.3   192  TYR192     -0.2866
    109  N         44.1880   10.5400   21.2360 N.3   227  PHE227     -0.1227
    110  CA        43.6080   11.8850   21.0440 C.3   227  PHE227      0.1736
    111  C         42.8910   12.0190   19.6830 C.2   227  PHE227      0.2595
    112  O         41.7780   12.5610   19.5580 O.2   227  PHE227     -0.2718
    113  CB        44.7290   12.9160   21.1730 C.3   227  PHE227      0.0547
    114  CG        44.2480   14.3210   21.0970 C.ar  227  PHE227     -0.0202
    115  CD1       43.7250   14.9230   22.2170 C.ar  227  PHE227     -0.0042
    116  CD2       44.3340   15.0820   19.9290 C.ar  227  PHE227     -0.0042
    117  CE1       43.2500   16.2300   22.1850 C.ar  227  PHE227     -0.0003
    118  CE2       43.8420   16.3780   19.9000 C.ar  227  PHE227     -0.0003
    119  CZ        43.3270   16.9660   21.0530 C.ar  227  PHE227     -0.0000
    120  N         43.5170   11.4500   18.6330 N.am  228  GLN228     -0.1979
    121  CA        42.8990   11.5740   17.3160 C.3   228  GLN228      0.1601
    122  C         41.6800   10.6650   17.1610 C.2   228  GLN228      0.2287
    123  O         40.7510   10.9680   16.4360 O.2   228  GLN228     -0.2864
    124  CB        43.9070   11.2570   16.1850 C.3   228  GLN228      0.0394
    125  CG        43.3530   11.5570   14.8140 C.3   228  GLN228      0.0908
    126  CD        42.9210   12.9540   14.6470 C.2   228  GLN228      0.2608
    127  OE1       43.6670   13.8780   15.0820 O.2   228  GLN228     -0.2717
    128  NE2       41.7780   13.1830   14.0350 N.am  228  GLN228     -0.0878
    129  N         39.1340   12.8640   18.5190 N.3   231  ASP231     -0.1225
    130  CA        38.7860   13.8550   17.5040 C.3   231  ASP231      0.1805
    131  C         37.8210   13.2760   16.4580 C.2   231  ASP231      0.2597
    132  O         36.8510   13.8910   16.0200 O.2   231  ASP231     -0.2718
    133  CB        40.0700   14.3970   16.8450 C.3   231  ASP231      0.1424
    134  CG        39.7790   15.5280   15.9170 C.2   231  ASP231      0.3668
    135  OD1       39.3120   16.5920   16.4500 O.co2 231  ASP231     -0.2456
    136  OD2       39.8730   15.3580   14.6490 O.co2 231  ASP231     -0.2456
    137  N         38.1320   12.0610   16.0190 N.am  232  ASP232     -0.1974
    138  CA        37.2900   11.4580   14.9470 C.3   232  ASP232      0.1709
    139  C         35.8510   11.1400   15.4690 C.2   232  ASP232      0.2293
    140  O         34.8500   11.4150   14.8290 O.2   232  ASP232     -0.2864
    141  CB        37.9190   10.1310   14.4960 C.3   232  ASP232      0.1436
    142  CG        39.1750   10.3010   13.6260 C.2   232  ASP232      0.3671
    143  OD1       39.4820   11.4450   13.2720 O.co2 232  ASP232     -0.2456
    144  OD2       39.7790    9.2500   13.3040 O.co2 232  ASP232     -0.2456
    145  N         33.9060   14.3030   15.6210 N.3   235  ASP235     -0.1239
    146  CA        33.4880   14.8360   14.3450 C.3   235  ASP235      0.1674
    147  C         32.0690   14.4420   14.0480 C.2   235  ASP235      0.2266
    148  O         31.2590   15.1880   13.4660 O.2   235  ASP235     -0.2867
    149  CB        34.4100   14.3390   13.2120 C.3   235  ASP235      0.1410
    150  CG        34.2180   15.1370   11.9210 C.2   235  ASP235      0.3668
    151  OD1       34.7290   16.2450   11.9160 O.co2 235  ASP235     -0.2456
    152  OD2       33.4770   14.7390   11.0030 O.co2 235  ASP235     -0.2456
    153  N         32.8260   23.6140   15.5030 N.3   245  LYS245     -0.1245
    154  CA        33.1200   23.2580   14.0970 C.3   245  LYS245      0.1561
    155  C         32.1230   22.2120   13.6370 C.2   245  LYS245      0.2260
    156  O         31.7390   21.3210   14.3870 O.2   245  LYS245     -0.2867
    157  CB        34.5650   22.7770   13.8890 C.3   245  LYS245      0.0271
    158  CG        35.0500   21.7430   14.8420 C.3   245  LYS245      0.0035
    159  CD        36.5340   21.3490   14.6380 C.3   245  LYS245      0.0206
    160  CE        36.7990   19.8600   14.8950 C.3   245  LYS245      0.1093
    161  NZ        38.0570   19.4980   15.6290 N.3   245  LYS245     -0.1314
    162  N         33.9920   14.7000    8.1950 N.3   249  ASP249     -0.1239
    163  CA        34.6890   13.4750    7.8990 C.3   249  ASP249      0.1674
    164  C         33.8690   12.5410    6.9560 C.2   249  ASP249      0.2266
    165  O         34.4430   11.9080    6.0490 O.2   249  ASP249     -0.2867
    166  CB        35.0940   12.6850    9.1120 C.3   249  ASP249      0.1410
    167  CG        36.2300   13.3170    9.9350 C.2   249  ASP249      0.3668
    168  OD1       36.8380   14.2910    9.4050 O.co2 249  ASP249     -0.2456
    169  OD2       36.5220   12.8320   11.0570 O.co2 249  ASP249     -0.2456
    170  N         36.6840   10.4270    4.7590 N.3   254  LYS254     -0.1245
    171  CA        37.9160   10.2600    5.5080 C.3   254  LYS254      0.1561
    172  C         38.0570    8.8390    6.0750 C.2   254  LYS254      0.2260
    173  O         37.0430    8.1940    6.4490 O.2   254  LYS254     -0.2867
    174  CB        37.9860   11.2130    6.7280 C.3   254  LYS254      0.0271
    175  CG        38.1290   12.7010    6.3890 C.3   254  LYS254      0.0035
    176  CD        39.4050   13.0700    5.5930 C.3   254  LYS254      0.0206
    177  CE        39.3860   14.6140    5.3030 C.3   254  LYS254      0.1093
    178  NZ        40.5820   15.1000    4.6320 N.3   254  LYS254     -0.1314
@<TRIPOS>BOND
     1    76    75    2
     2    32    33    1
     3    75    74    1
     4    67    66    2
     5    34    33    1
     6    34    35    2
     7    33    36    1
     8    66    65    1
     9   178   177    1
    10    73    74    1
    11    27    26    2
    12   170   171    1
    13    74    77    1
    14    26    25    1
    15    40    41    1
    16    38    37   ar
    17   177   176    1
    18    43    42    2
    19   171   172    1
    20   171   174    1
    21   176   175    1
    22    79    78   ar
    23    68    65    1
    24    68    69    1
    25    19    18    2
    26    65    64    1
    27    36    37    1
    28   165   164    2
    29   172   173    2
    30    77    78    1
    31    37    39   ar
    32    42    41    1
    33   175   174    1
    34    41    44    1
    35    78    80   ar
    36    18    17    1
    37    18    24   am
    38    16    17    1
    39    25    24    1
    40    25    28    1
    41    17    20    1
    42   164   163    1
    43    69    70    1
    44    72    70   am
    45    70    71    2
    46    28    29    1
    47    44    45    1
    48   163   162    1
    49   163   166    1
    50    22    21   ar
    51    60    59    2
    52    20    21    1
    53    59    58    1
    54    21    23   ar
    55     4     3    2
    56    29    30   ar
    57    29    31   ar
    58    12    11    2
    59   166   167    1
    60   168   167   ar
    61    11    10    1
    62    58    57    1
    63    58    61    1
    64     3     2    1
    65     3     9   am
    66   167   169   ar
    67     8     6    1
    68     2     1    1
    69     2     5    1
    70    87    88    1
    71    87    86    1
    72    85    82    1
    73    85    86    1
    74    89    88    1
    75    61    63    1
    76    61    62    1
    77    10     9    1
    78    10    13    1
    79   152   150   ar
    80     5     6    1
    81    82    81    1
    82    82    83    1
    83     6     7    1
    84    56    54    1
    85   151   150   ar
    86   150   149    1
    87    13    15    1
    88    13    14    1
    89    46    47    1
    90    83    84    2
    91    83    90   am
    92    53    54    2
    93    53    52    1
    94    54    55    1
    95    50    47    1
    96    50    51    1
    97   149   146    1
    98   143   142   ar
    99   144   142   ar
   100   148   147    2
   101    47    48    1
   102    90    91    1
   103   142   141    1
   104   155   154    1
   105   155   156    2
   106    52    51    1
   107   157   154    1
   108   157   158    1
   109   128   126   am
   110   147   146    1
   111   154   153    1
   112   146   145    1
   113    49    48    2
   114    95    94    1
   115   141   138    1
   116   159   158    1
   117   159   160    1
   118   126   125    1
   119   126   127    2
   120   136   134   ar
   121   105   103   ar
   122   105   107   ar
   123   125   124    1
   124   140   139    2
   125   103   102   ar
   126   160   161    1
   127    91    94    1
   128    91    92    1
   129   138   139    1
   130   138   137    1
   131   108   107    1
   132   107   106   ar
   133    94    96    1
   134   102   101    1
   135   102   104   ar
   136   101    98    1
   137   134   135   ar
   138   134   133    1
   139   137   131   am
   140   132   131    2
   141    92    93    2
   142   106   104   ar
   143   124   121    1
   144    97    98    1
   145   123   122    2
   146   131   130    1
   147    98    99    1
   148   133   130    1
   149   122   121    1
   150   121   120    1
   151   130   129    1
   152    99   100    2
   153   120   111   am
   154   112   111    2
   155   111   110    1
   156   118   116   ar
   157   118   119   ar
   158   116   114   ar
   159   110   113    1
   160   110   109    1
   161   119   117   ar
   162   114   113    1
   163   114   115   ar
   164   117   115   ar
