@<TRIPOS>MOLECULE
tmp/6b06A01.pdb
 171 162 0 0 0
SMALL
GASTEIGER

@<TRIPOS>ATOM
      1  N         38.7820   28.0700   21.2590 N.3    44  GLY44      -0.1210
      2  CA        39.8530   27.0540   21.4480 C.3    44  GLY44       0.1956
      3  C         40.2770   26.7460   22.8780 C.2    44  GLY44       0.2612
      4  O         40.2350   27.5940   23.7670 O.2    44  GLY44      -0.2717
      5  N         40.6970   25.5180   23.1210 N.am   45  LYS45      -0.1965
      6  CA        40.9490   25.0870   24.4990 C.3    45  LYS45       0.1728
      7  C         42.3510   25.4040   24.9170 C.2    45  LYS45       0.2616
      8  O         42.6840   25.2390   26.0840 O.2    45  LYS45      -0.2715
      9  CB        40.6740   23.5810   24.6640 C.3    45  LYS45       0.0311
     10  CG        39.2590   23.1520   24.2490 C.3    45  LYS45       0.0038
     11  CD        39.0710   21.6410   24.2860 C.3    45  LYS45       0.0206
     12  CE        39.7360   20.9320   23.1070 C.3    45  LYS45       0.1093
     13  NZ        38.8850   20.9650   21.8880 N.3    45  LYS45      -0.1314
     14  N         43.1860   25.8310   23.9670 N.am   46  LYS46      -0.1963
     15  CA        44.5890   26.1150   24.2290 C.3    46  LYS46       0.1728
     16  C         45.3670   24.9380   24.8530 C.2    46  LYS46       0.2616
     17  O         46.3940   25.1250   25.5090 O.2    46  LYS46      -0.2715
     18  CB        44.7470   27.4300   25.0440 C.3    46  LYS46       0.0311
     19  CG        44.8190   28.7200   24.2020 C.3    46  LYS46       0.0038
     20  CD        43.5330   29.5300   24.1570 C.3    46  LYS46       0.0206
     21  CE        43.6070   30.6700   23.1370 C.3    46  LYS46       0.1093
     22  NZ        42.2520   31.2410   22.8670 N.3    46  LYS46      -0.1314
     23  N         44.9150   23.7310   24.5690 N.am   47  ALA47      -0.1963
     24  CA        45.4770   22.5150   25.1250 C.3    47  ALA47       0.1728
     25  C         46.9460   22.3050   24.8320 C.2    47  ALA47       0.2616
     26  O         47.6880   21.9860   25.7430 O.2    47  ALA47      -0.2715
     27  CB        44.6750   21.3160   24.6280 C.3    47  ALA47       0.0334
     28  N         47.3820   22.4820   23.5790 N.am   48  ARG48      -0.1977
     29  CA        48.8030   22.2550   23.2400 C.3    48  ARG48       0.1597
     30  C         49.7190   23.2380   23.9480 C.2    48  ARG48       0.2287
     31  O         50.8380   22.8960   24.3340 O.2    48  ARG48      -0.2864
     32  CB        49.1310   22.4250   21.7500 C.3    48  ARG48       0.0334
     33  CG        48.2040   21.8780   20.7140 C.3    48  ARG48       0.0492
     34  CD        47.8140   20.4560   20.9730 C.3    48  ARG48       0.2205
     35  NE        46.3960   20.2520   20.6790 N.pl3  48  ARG48      -0.0865
     36  CZ        45.8580   20.2180   19.4580 C.cat  48  ARG48       0.5346
     37  NH1       46.5920   20.3960   18.3780 N.pl3  48  ARG48       0.1354
     38  NH2       44.5620   19.9960   19.3220 N.pl3  48  ARG48       0.1354
     39  N         50.7160   26.9480   19.4840 N.3    81  GLU81      -0.1245
     40  CA        49.3430   27.2770   19.1690 C.3    81  GLU81       0.1567
     41  C         49.2340   27.9920   17.8270 C.2    81  GLU81       0.2260
     42  O         48.1890   27.9200   17.1900 O.2    81  GLU81      -0.2867
     43  CB        48.6820   28.0880   20.2850 C.3    81  GLU81       0.0388
     44  CG        48.1210   27.2370   21.4420 C.3    81  GLU81       0.1160
     45  CD        46.8120   26.5080   21.1520 C.2    81  GLU81       0.3649
     46  OE1       45.8720   27.1330   20.5800 O.co2  81  GLU81      -0.2457
     47  OE2       46.7270   25.2990   21.4990 O.co2  81  GLU81      -0.2457
     48  N         49.2900   25.4280   15.2460 N.3    84  GLN84      -0.1245
     49  CA        47.9680   24.8770   15.2100 C.3    84  GLN84       0.1566
     50  C         47.0620   25.7370   14.3920 C.2    84  GLN84       0.2260
     51  O         46.2500   25.2050   13.6350 O.2    84  GLN84      -0.2867
     52  CB        47.4430   24.7170   16.6500 C.3    84  GLN84       0.0367
     53  CG        45.9390   24.7400   16.8780 C.3    84  GLN84       0.0905
     54  CD        45.3430   23.3530   16.9080 C.2    84  GLN84       0.2608
     55  OE1       45.6350   22.5160   16.0540 O.2    84  GLN84      -0.2717
     56  NE2       44.4950   23.1010   17.8920 N.am   84  GLN84      -0.0878
     57  N         45.2890   24.2650   10.9370 N.3    88  VAL88      -0.1245
     58  CA        43.8090   24.2140   10.7310 C.3    88  VAL88       0.1561
     59  C         43.3180   25.2470    9.7530 C.2    88  VAL88       0.2260
     60  O         42.2860   25.0650    9.1790 O.2    88  VAL88      -0.2867
     61  CB        42.8990   24.2950   11.9910 C.3    88  VAL88       0.0252
     62  CG1       43.4090   23.3990   13.1070 C.3    88  VAL88       0.0019
     63  CG2       42.6820   25.7130   12.4540 C.3    88  VAL88       0.0019
     64  N         34.8470   27.2670   12.3380 N.3   100  ARG100     -0.1231
     65  CA        35.7620   26.7070   13.3100 C.3   100  ARG100      0.1694
     66  C         35.8300   27.5700   14.5710 C.2   100  ARG100      0.2591
     67  O         35.9660   28.7920   14.4790 O.2   100  ARG100     -0.2718
     68  CB        37.1730   26.5810   12.7220 C.3   100  ARG100      0.0321
     69  CG        38.1930   26.2560   13.8230 C.3   100  ARG100      0.0489
     70  CD        39.4740   25.6700   13.3270 C.3   100  ARG100      0.2205
     71  NE        39.2390   24.6260   12.3430 N.pl3 100  ARG100     -0.0865
     72  CZ        39.3740   23.3140   12.5270 C.cat 100  ARG100      0.5346
     73  NH1       39.7680   22.7980   13.6910 N.pl3 100  ARG100      0.1354
     74  NH2       39.1250   22.4970   11.4950 N.pl3 100  ARG100      0.1354
     75  N         35.7950   26.9230   15.7410 N.am  101  ARG101     -0.1980
     76  CA        35.8220   27.6300   17.0370 C.3   101  ARG101      0.1597
     77  C         34.6950   28.6970   17.1630 C.2   101  ARG101      0.2287
     78  O         34.8870   29.7770   17.7550 O.2   101  ARG101     -0.2864
     79  CB        37.2030   28.2740   17.2970 C.3   101  ARG101      0.0334
     80  CG        38.3870   27.3210   17.4470 C.3   101  ARG101      0.0492
     81  CD        39.6970   28.0260   17.1000 C.3   101  ARG101      0.2205
     82  NE        40.9080   27.2590   17.4450 N.pl3 101  ARG101     -0.0865
     83  CZ        42.1590   27.5510   17.0510 C.cat 101  ARG101      0.5346
     84  NH1       42.4240   28.6060   16.2810 N.pl3 101  ARG101      0.1354
     85  NH2       43.1700   26.7780   17.4270 N.pl3 101  ARG101      0.1354
     86  N         49.6350   12.9050   11.5070 N.3   185  LYS185     -0.1231
     87  CA        48.9010   14.1840   11.4200 C.3   185  LYS185      0.1693
     88  C         48.4600   14.8260   12.7280 C.2   185  LYS185      0.2592
     89  O         48.1240   15.9960   12.7480 O.2   185  LYS185     -0.2718
     90  CB        47.6880   14.1010   10.4880 C.3   185  LYS185      0.0285
     91  CG        46.4310   13.5420   11.0720 C.3   185  LYS185      0.0035
     92  CD        45.2070   13.9220   10.2840 C.3   185  LYS185      0.0206
     93  CE        44.0830   13.0230   10.7760 C.3   185  LYS185      0.1093
     94  NZ        42.7470   13.6550   10.6940 N.3   185  LYS185     -0.1314
     95  N         48.4190   14.0650   13.7990 N.am  186  THR186     -0.1953
     96  CA        47.8660   14.5390   15.0800 C.3   186  THR186      0.1897
     97  C         48.8080   14.2520   16.2230 C.2   186  THR186      0.2313
     98  O         49.2210   15.1760   16.8880 O.2   186  THR186     -0.2863
     99  CB        46.5380   13.8580   15.3580 C.3   186  THR186      0.1794
    100  OG1       45.6960   14.0940   14.2280 O.3   186  THR186     -0.2208
    101  CG2       45.8870   14.4010   16.6270 C.3   186  THR186      0.0378
    102  N         52.4940   16.4480   16.7000 N.3   189  TYR189     -0.1241
    103  CA        52.5030   17.8680   17.0120 C.3   189  TYR189      0.1605
    104  C         51.6380   18.2080   18.1990 C.2   189  TYR189      0.2264
    105  O         51.8260   19.2690   18.7810 O.2   189  TYR189     -0.2867
    106  CB        52.1080   18.7480   15.8180 C.3   189  TYR189      0.0534
    107  CG        50.6480   19.0890   15.7160 C.ar  189  TYR189     -0.0201
    108  CD1       49.7730   18.2450   15.0420 C.ar  189  TYR189     -0.0009
    109  CD2       50.1450   20.2640   16.2440 C.ar  189  TYR189     -0.0009
    110  CE1       48.4230   18.5410   14.9380 C.ar  189  TYR189      0.0417
    111  CE2       48.8030   20.5820   16.1260 C.ar  189  TYR189      0.0417
    112  CZ        47.9430   19.7140   15.4740 C.ar  189  TYR189      0.1957
    113  OH        46.6100   19.9920   15.3400 O.3   189  TYR189     -0.2866
    114  N         43.3440   10.6830   21.4250 N.3   224  PHE224     -0.1227
    115  CA        42.8090   12.0240   21.2150 C.3   224  PHE224      0.1736
    116  C         42.0590   12.1570   19.9110 C.2   224  PHE224      0.2595
    117  O         40.9820   12.7400   19.8800 O.2   224  PHE224     -0.2718
    118  CB        43.9390   13.0750   21.2730 C.3   224  PHE224      0.0547
    119  CG        43.4600   14.4760   21.0460 C.ar  224  PHE224     -0.0202
    120  CD1       42.8830   15.1880   22.0600 C.ar  224  PHE224     -0.0042
    121  CD2       43.5510   15.0640   19.8030 C.ar  224  PHE224     -0.0042
    122  CE1       42.4090   16.4690   21.8610 C.ar  224  PHE224     -0.0003
    123  CE2       43.0660   16.3560   19.5910 C.ar  224  PHE224     -0.0003
    124  CZ        42.5090   17.0670   20.6370 C.ar  224  PHE224     -0.0000
    125  N         42.6540   11.6230   18.8500 N.am  225  GLN225     -0.1979
    126  CA        42.1160   11.7140   17.5040 C.3   225  GLN225      0.1601
    127  C         40.9040   10.7850   17.2630 C.2   225  GLN225      0.2287
    128  O         40.0400   11.0970   16.4500 O.2   225  GLN225     -0.2864
    129  CB        43.2470   11.4460   16.4850 C.3   225  GLN225      0.0394
    130  CG        42.8730   11.5590   15.0060 C.3   225  GLN225      0.0908
    131  CD        42.3660   12.9300   14.6030 C.2   225  GLN225      0.2608
    132  OE1       41.2810   13.0840   14.0640 O.2   225  GLN225     -0.2717
    133  NE2       43.1560   13.9320   14.8750 N.am  225  GLN225     -0.0878
    134  N         38.2490   13.0140   18.5210 N.3   228  ASP228     -0.1239
    135  CA        37.9490   13.9980   17.4910 C.3   228  ASP228      0.1674
    136  C         37.0470   13.4000   16.4370 C.2   228  ASP228      0.2266
    137  O         36.1110   14.0500   16.0030 O.2   228  ASP228     -0.2867
    138  CB        39.1930   14.5430   16.8010 C.3   228  ASP228      0.1410
    139  CG        38.8550   15.7040   15.8100 C.2   228  ASP228      0.3668
    140  OD1       38.3240   16.7120   16.3540 O.co2 228  ASP228     -0.2456
    141  OD2       39.0870   15.6140   14.5250 O.co2 228  ASP228     -0.2456
    142  N         32.4060   23.7650   15.3330 N.3   242  LYS242     -0.1245
    143  CA        32.6480   23.3530   13.9390 C.3   242  LYS242      0.1561
    144  C         31.5580   22.3910   13.4430 C.2   242  LYS242      0.2260
    145  O         30.9400   21.6720   14.2210 O.2   242  LYS242     -0.2867
    146  CB        34.0530   22.7240   13.7840 C.3   242  LYS242      0.0271
    147  CG        34.4540   21.7050   14.8610 C.3   242  LYS242      0.0035
    148  CD        35.7300   20.9050   14.5240 C.3   242  LYS242      0.0206
    149  CE        35.8390   19.6050   15.3520 C.3   242  LYS242      0.1093
    150  NZ        37.2350   19.1070   15.6110 N.3   242  LYS242     -0.1314
    151  N         35.9090   13.7780   27.2340 N.3   336  ARG336     -0.1245
    152  CA        35.6440   15.0930   26.6520 C.3   336  ARG336      0.1563
    153  C         34.5670   15.0380   25.5760 C.2   336  ARG336      0.2260
    154  O         34.2950   13.9820   25.0160 O.2   336  ARG336     -0.2867
    155  CB        36.9230   15.7280   26.1220 C.3   336  ARG336      0.0307
    156  CG        37.3480   15.3730   24.7020 C.3   336  ARG336      0.0489
    157  CD        38.8110   15.7930   24.4750 C.3   336  ARG336      0.2205
    158  NE        39.3780   15.3500   23.1990 N.pl3 336  ARG336     -0.0865
    159  CZ        39.1370   15.8940   22.0040 C.cat 336  ARG336      0.5346
    160  NH1       38.3220   16.9160   21.8680 N.pl3 336  ARG336      0.1354
    161  NH2       39.7210   15.3960   20.9200 N.pl3 336  ARG336      0.1354
    162  N         34.0580   18.0980   23.3090 N.3   338  HIS338     -0.1241
    163  CA        34.2550   19.1620   22.3230 C.3   338  HIS338      0.1621
    164  C         35.7350   19.3520   21.9880 C.2   338  HIS338      0.2264
    165  O         36.0810   19.7800   20.8990 O.2   338  HIS338     -0.2867
    166  CB        33.6080   20.4880   22.7860 C.3   338  HIS338      0.0745
    167  CG        34.3410   21.1730   23.8970 C.ar  338  HIS338      0.0817
    168  ND1       34.1400   20.8600   25.2290 N.ar  338  HIS338     -0.2268
    169  CD2       35.2770   22.1530   23.8720 C.ar  338  HIS338      0.1154
    170  CE1       34.9280   21.6140   25.9750 C.ar  338  HIS338      0.1986
    171  NE2       35.6300   22.4030   25.1760 N.ar  338  HIS338     -0.2212
@<TRIPOS>BOND
     1    60    59    2
     2    59    58    1
     3    92    93    1
     4    92    91    1
     5    90    91    1
     6    90    87    1
     7    94    93    1
     8    58    57    1
     9    58    61    1
    10    87    86    1
    11    87    88    1
    12    74    72    1
    13    61    63    1
    14    61    62    1
    15    64    65    1
    16    71    72    2
    17    71    70    1
    18    72    73    1
    19    68    65    1
    20    68    69    1
    21    88    89    2
    22    88    95   am
    23    65    66    1
    24    70    69    1
    25   144   143    1
    26   144   145    2
    27    51    50    2
    28   146   143    1
    29   146   147    1
    30    95    96    1
    31   143   142    1
    32   132   131    2
    33   100    99    1
    34    50    49    1
    35    67    66    2
    36   148   147    1
    37   148   149    1
    38   141   139   ar
    39    66    75   am
    40   131   133   am
    41   131   130    1
    42   110   108   ar
    43   110   112   ar
    44   130   129    1
    45   108   107   ar
    46    96    99    1
    47    96    97    1
    48    49    48    1
    49    49    52    1
    50   113   112    1
    51   149   150    1
    52    99   101    1
    53   112   111   ar
    54   107   106    1
    55   107   109   ar
    56    75    76    1
    57   139   140   ar
    58   139   138    1
    59   106   103    1
    60   137   136    2
    61    55    54    2
    62   111   109   ar
    63    97    98    2
    64    84    83    1
    65   136   135    1
    66   128   127    2
    67   129   126    1
    68    52    53    1
    69   102   103    1
    70   138   135    1
    71    53    54    1
    72    54    56   am
    73   103   104    1
    74    76    77    1
    75    76    79    1
    76    83    85    1
    77    83    82    2
    78    81    82    1
    79    81    80    1
    80    77    78    2
    81    42    41    2
    82   127   126    1
    83    79    80    1
    84   135   134    1
    85   126   125    1
    86    41    40    1
    87   104   105    2
    88    37    36    1
    89   125   116   am
    90    40    39    1
    91    40    43    1
    92    38    36    1
    93    36    35    2
    94   123   121   ar
    95   123   124   ar
    96   121   119   ar
    97   117   116    2
    98   116   115    1
    99    43    44    1
   100    46    45   ar
   101   124   122   ar
   102    35    34    1
   103    33    34    1
   104    33    32    1
   105   165   164    2
   106   161   159    1
   107   119   118    1
   108   119   120   ar
   109    45    44    1
   110    45    47   ar
   111   115   118    1
   112   115   114    1
   113     1     2    1
   114     2     3    1
   115    32    29    1
   116   122   120   ar
   117   160   159    1
   118    13    12    1
   119   164   163    1
   120   159   158    2
   121   163   166    1
   122   163   162    1
   123   166   167    1
   124    22    21    1
   125     3     5   am
   126     3     4    2
   127    12    11    1
   128     5     6    1
   129    21    20    1
   130   158   157    1
   131    29    28    1
   132    29    30    1
   133    28    25   am
   134   169   167   ar
   135   169   171   ar
   136   167   168   ar
   137    30    31    2
   138    14    15    1
   139    14     7   am
   140    20    19    1
   141    19    18    1
   142    15    16    1
   143    15    18    1
   144    10    11    1
   145    10     9    1
   146   157   156    1
   147     6     9    1
   148     6     7    1
   149    23    16   am
   150    23    24    1
   151    27    24    1
   152   156   155    1
   153    25    24    1
   154    25    26    2
   155    16    17    2
   156     7     8    2
   157   154   153    2
   158   171   170   ar
   159   168   170   ar
   160   153   152    1
   161   155   152    1
   162   152   151    1
