@<TRIPOS>MOLECULE
tmp/6b07B00.pdb
 198 182 0 0 0
SMALL
GASTEIGER

@<TRIPOS>ATOM
      1  N         68.0470   31.0190  -10.2050 N.3    47  ARG47      -0.1245
      2  CA        68.3770   31.3140   -8.7980 C.3    47  ARG47       0.1563
      3  C         69.4260   30.3520   -8.2280 C.2    47  ARG47       0.2260
      4  O         70.3610   30.7980   -7.4910 O.2    47  ARG47      -0.2867
      5  CB        67.1220   31.3750   -7.9030 C.3    47  ARG47       0.0307
      6  CG        66.1890   32.5610   -8.2430 C.3    47  ARG47       0.0489
      7  CD        64.8500   32.3770   -7.5410 C.3    47  ARG47       0.2205
      8  NE        63.7930   33.2960   -7.9830 N.pl3  47  ARG47      -0.0865
      9  CZ        63.1810   33.2500   -9.1750 C.cat  47  ARG47       0.5346
     10  NH1       63.5000   32.3410  -10.0950 N.pl3  47  ARG47       0.1354
     11  NH2       62.2670   34.1830   -9.4840 N.pl3  47  ARG47       0.1354
     12  N         61.8980   28.3750   -4.5720 N.3    83  GLN83      -0.1245
     13  CA        61.2070   28.9560   -5.7480 C.3    83  GLN83       0.1566
     14  C         59.9720   28.0960   -6.0760 C.2    83  GLN83       0.2260
     15  O         58.9210   28.6040   -6.3930 O.2    83  GLN83      -0.2867
     16  CB        62.1490   29.0010   -6.9330 C.3    83  GLN83       0.0367
     17  CG        61.5960   29.1440   -8.3450 C.3    83  GLN83       0.0905
     18  CD        60.9280   30.4430   -8.5850 C.2    83  GLN83       0.2608
     19  OE1       60.9600   31.3330   -7.7620 O.2    83  GLN83      -0.2717
     20  NE2       60.3070   30.5740   -9.7580 N.am   83  GLN83      -0.0878
     21  N         57.2210   28.6010   -3.6040 N.3    86  LEU86      -0.1231
     22  CA        56.6130   29.9110   -3.5970 C.3    86  LEU86       0.1693
     23  C         55.6790   30.0130   -4.7590 C.2    86  LEU86       0.2591
     24  O         54.6110   30.5710   -4.6090 O.2    86  LEU86      -0.2718
     25  CB        57.6730   31.0580   -3.6750 C.3    86  LEU86       0.0284
     26  CG        58.5170   31.3080   -2.4540 C.3    86  LEU86       0.0019
     27  CD1       59.7100   32.2940   -2.6980 C.3    86  LEU86       0.0001
     28  CD2       57.5900   31.8570   -1.4200 C.3    86  LEU86       0.0001
     29  N         56.1020   29.5260   -5.9140 N.am   87  VAL87      -0.1980
     30  CA        55.2500   29.6540   -7.1140 C.3    87  VAL87       0.1595
     31  C         54.0520   28.6510   -7.0970 C.2    87  VAL87       0.2287
     32  O         53.0620   28.8850   -7.7060 O.2    87  VAL87      -0.2864
     33  CB        55.9920   29.5630   -8.4580 C.3    87  VAL87       0.0276
     34  CG1       56.9700   30.7050   -8.5710 C.3    87  VAL87       0.0022
     35  CG2       56.6740   28.2350   -8.7200 C.3    87  VAL87       0.0022
     36  N         51.7070   30.7080   -5.2630 N.3    90  ASP90      -0.1225
     37  CA        51.3800   31.8840   -6.0360 C.3    90  ASP90       0.1805
     38  C         50.3890   31.5510   -7.1610 C.2    90  ASP90       0.2597
     39  O         49.4940   32.3450   -7.4310 O.2    90  ASP90      -0.2718
     40  CB        52.6970   32.4500   -6.6410 C.3    90  ASP90       0.1424
     41  CG        52.4600   33.5970   -7.6090 C.2    90  ASP90       0.3668
     42  OD1       52.2420   34.7370   -7.1760 O.co2  90  ASP90      -0.2456
     43  OD2       52.5480   33.3930   -8.8460 O.co2  90  ASP90      -0.2456
     44  N         50.6240   30.4400   -7.8470 N.am   91  ASP91      -0.1974
     45  CA        49.7530   29.9980   -8.9270 C.3    91  ASP91       0.1709
     46  C         48.2640   29.7950   -8.4310 C.2    91  ASP91       0.2293
     47  O         47.2980   30.1290   -9.1280 O.2    91  ASP91      -0.2864
     48  CB        50.3390   28.7240   -9.5920 C.3    91  ASP91       0.1436
     49  CG        51.5010   29.0160  -10.5160 C.2    91  ASP91       0.3671
     50  OD1       51.6430   30.1860  -10.9650 O.co2  91  ASP91      -0.2456
     51  OD2       52.2720   28.0680  -10.8230 O.co2  91  ASP91      -0.2456
     52  N         46.9370   33.4270   -7.8790 N.3    94  ASP94      -0.1239
     53  CA        46.8550   34.2120   -9.0990 C.3    94  ASP94       0.1674
     54  C         45.9060   33.6070  -10.1830 C.2    94  ASP94       0.2266
     55  O         45.7460   34.1960  -11.2790 O.2    94  ASP94      -0.2867
     56  CB        48.2720   34.4360   -9.6960 C.3    94  ASP94       0.1410
     57  CG        49.1440   35.3310   -8.8220 C.2    94  ASP94       0.3668
     58  OD1       48.5710   35.9300   -7.8820 O.co2  94  ASP94      -0.2456
     59  OD2       50.3520   35.4730   -9.1010 O.co2  94  ASP94      -0.2456
     60  N         46.3800   31.0270  -12.0210 N.3    96  SER96      -0.1273
     61  CA        47.1760   30.6430  -13.1840 C.3    96  SER96       0.1575
     62  C         46.8070   29.2390  -13.6460 C.3    96  SER96       0.2036
     63  O         46.2640   28.3810  -12.8400 O.3    96  SER96      -0.2187
     64  CB        48.6710   30.8140  -12.8540 C.3    96  SER96       0.2036
     65  OG        48.8910   32.2200  -12.5330 O.3    96  SER96      -0.2187
     66  N         52.4390   26.6390  -16.0150 N.3    99  ARG99      -0.1245
     67  CA        53.7710   27.1000  -15.7150 C.3    99  ARG99       0.1563
     68  C         54.7450   26.0850  -16.2340 C.2    99  ARG99       0.2260
     69  O         54.5130   24.8430  -16.1460 O.2    99  ARG99      -0.2867
     70  CB        53.9640   27.2750  -14.2160 C.3    99  ARG99       0.0307
     71  CG        55.3290   27.9390  -13.9650 C.3    99  ARG99       0.0489
     72  CD        55.5710   28.1320  -12.4880 C.3    99  ARG99       0.2205
     73  NE        54.7030   29.1360  -11.8970 N.pl3  99  ARG99      -0.0865
     74  CZ        54.9820   30.4490  -11.8340 C.cat  99  ARG99       0.5346
     75  NH1       56.0260   30.9410  -12.4380 N.pl3  99  ARG99       0.1354
     76  NH2       54.1380   31.2880  -11.2480 N.pl3  99  ARG99       0.1354
     77  N         59.0770   37.2050    1.4400 N.3   154  THR154     -0.1218
     78  CA        58.2550   36.9200    0.3020 C.3   154  THR154      0.1862
     79  C         56.7820   37.0210    0.6370 C.2   154  THR154      0.2287
     80  O         55.9900   37.6270   -0.0900 O.2   154  THR154     -0.2866
     81  CB        58.6520   35.5930   -0.3240 C.3   154  THR154      0.1770
     82  OG1       60.0450   35.6260   -0.6090 O.3   154  THR154     -0.2211
     83  CG2       57.9390   35.4080   -1.6290 C.3   154  THR154      0.0375
     84  N         53.9460   39.2230   -0.9860 N.3   158  GLN158     -0.1245
     85  CA        52.7630   38.6090   -1.5440 C.3   158  GLN158      0.1566
     86  C         51.5060   39.2280   -0.9460 C.2   158  GLN158      0.2260
     87  O         50.5010   39.4120   -1.6420 O.2   158  GLN158     -0.2867
     88  CB        52.7450   37.1070   -1.3280 C.3   158  GLN158      0.0367
     89  CG        53.8490   36.3950   -2.1740 C.3   158  GLN158      0.0905
     90  CD        53.5240   36.3790   -3.6550 C.2   158  GLN158      0.2608
     91  OE1       53.6250   37.4160   -4.3470 O.2   158  GLN158     -0.2717
     92  NE2       53.0210   35.2190   -4.1310 N.am  158  GLN158     -0.0878
     93  N         50.7680   42.3160   -2.7070 N.3   161  ASP161     -0.1239
     94  CA        50.4190   41.9880   -4.0840 C.3   161  ASP161      0.1674
     95  C         48.9590   41.5400   -4.2040 C.2   161  ASP161      0.2266
     96  O         48.3200   41.8980   -5.1660 O.2   161  ASP161     -0.2867
     97  CB        51.3340   40.8460   -4.5670 C.3   161  ASP161      0.1410
     98  CG        50.9800   40.3190   -5.9500 C.2   161  ASP161      0.3668
     99  OD1       50.0090   39.4990   -6.1000 O.co2 161  ASP161     -0.2456
    100  OD2       51.7180   40.6750   -6.8900 O.co2 161  ASP161     -0.2456
    101  N         58.3410   40.7990   -2.4160 N.3   185  LYS185     -0.1231
    102  CA        57.9440   39.5470   -3.0690 C.3   185  LYS185      0.1693
    103  C         59.0190   38.9320   -3.9750 C.2   185  LYS185      0.2592
    104  O         59.0270   37.7520   -4.1590 O.2   185  LYS185     -0.2718
    105  CB        56.6320   39.6490   -3.8490 C.3   185  LYS185      0.0285
    106  CG        56.6920   40.2560   -5.2550 C.3   185  LYS185      0.0035
    107  CD        55.4160   39.9950   -6.0860 C.3   185  LYS185      0.0206
    108  CE        55.4310   40.6840   -7.4730 C.3   185  LYS185      0.1093
    109  NZ        54.3160   40.2750   -8.3310 N.3   185  LYS185     -0.1314
    110  N         59.8890   39.7240   -4.5660 N.am  186  THR186     -0.1953
    111  CA        60.8780   39.2150   -5.5320 C.3   186  THR186      0.1897
    112  C         62.3280   39.4040   -5.2090 C.2   186  THR186      0.2313
    113  O         63.1220   38.4600   -5.2840 O.2   186  THR186     -0.2863
    114  CB        60.5770   39.8980   -6.8890 C.3   186  THR186      0.1794
    115  OG1       59.3100   39.4380   -7.3120 O.3   186  THR186     -0.2208
    116  CG2       61.5880   39.5390   -7.9820 C.3   186  THR186      0.0378
    117  N         64.2970   36.9950   -2.3230 N.3   189  TYR189     -0.1241
    118  CA        64.5650   35.5800   -2.5820 C.3   189  TYR189      0.1605
    119  C         65.2160   35.3530   -3.9270 C.2   189  TYR189      0.2264
    120  O         65.9310   34.3870   -4.0740 O.2   189  TYR189     -0.2867
    121  CB        63.3030   34.6570   -2.4370 C.3   189  TYR189      0.0534
    122  CG        62.4850   34.3900   -3.6780 C.ar  189  TYR189     -0.0201
    123  CD1       61.5310   35.2910   -4.1000 C.ar  189  TYR189     -0.0009
    124  CD2       62.6820   33.2620   -4.4170 C.ar  189  TYR189     -0.0009
    125  CE1       60.7330   35.0320   -5.1930 C.ar  189  TYR189      0.0417
    126  CE2       61.9260   32.9830   -5.5460 C.ar  189  TYR189      0.0417
    127  CZ        60.9670   33.8890   -5.9490 C.ar  189  TYR189      0.1957
    128  OH        60.2050   33.6590   -7.0620 O.3   189  TYR189     -0.2866
    129  N         64.1470   43.0240  -12.3490 N.3   224  PHE224     -0.1227
    130  CA        63.7670   41.7340  -12.7780 C.3   224  PHE224      0.1736
    131  C         62.2590   41.6340  -12.7330 C.2   224  PHE224      0.2595
    132  O         61.6810   41.0550  -13.6300 O.2   224  PHE224     -0.2718
    133  CB        64.3850   40.6420  -11.8600 C.3   224  PHE224      0.0547
    134  CG        64.1570   39.2470  -12.3320 C.ar  224  PHE224     -0.0202
    135  CD1       64.9920   38.6510  -13.2940 C.ar  224  PHE224     -0.0042
    136  CD2       63.1230   38.4800  -11.8070 C.ar  224  PHE224     -0.0042
    137  CE1       64.7910   37.3200  -13.7300 C.ar  224  PHE224     -0.0003
    138  CE2       62.9560   37.1690  -12.2080 C.ar  224  PHE224     -0.0003
    139  CZ        63.7680   36.5880  -13.1990 C.ar  224  PHE224     -0.0000
    140  N         61.6240   42.2040  -11.7060 N.am  225  GLN225     -0.1979
    141  CA        60.1800   42.0830  -11.5950 C.3   225  GLN225      0.1601
    142  C         59.4700   43.0100  -12.6130 C.2   225  GLN225      0.2287
    143  O         58.4260   42.6700  -13.1310 O.2   225  GLN225     -0.2864
    144  CB        59.6900   42.3560  -10.1980 C.3   225  GLN225      0.0394
    145  CG        58.1830   42.1540  -10.0270 C.3   225  GLN225      0.0908
    146  CD        57.8180   40.7280  -10.3040 C.2   225  GLN225      0.2608
    147  OE1       58.5100   39.8090   -9.8560 O.2   225  GLN225     -0.2717
    148  NE2       56.7400   40.5240  -11.0240 N.am  225  GLN225     -0.0878
    149  N         59.4060   40.7820  -15.6100 N.3   228  ASP228     -0.1225
    150  CA        58.3770   39.7830  -15.3730 C.3   228  ASP228      0.1805
    151  C         56.9870   40.3540  -15.7240 C.2   228  ASP228      0.2597
    152  O         56.2160   39.6920  -16.4020 O.2   228  ASP228     -0.2718
    153  CB        58.3910   39.2620  -13.9380 C.3   228  ASP228      0.1424
    154  CG        57.4320   38.1020  -13.7330 C.2   228  ASP228      0.3668
    155  OD1       57.8170   36.9940  -14.1340 O.co2 228  ASP228     -0.2456
    156  OD2       56.3590   38.3110  -13.1240 O.co2 228  ASP228     -0.2456
    157  N         56.6650   41.5330  -15.1920 N.am  229  ASP229     -0.1974
    158  CA        55.3960   42.1970  -15.4860 C.3   229  ASP229      0.1709
    159  C         55.1920   42.4030  -16.9760 C.2   229  ASP229      0.2293
    160  O         54.0900   42.1260  -17.5180 O.2   229  ASP229     -0.2864
    161  CB        55.3210   43.4950  -14.7710 C.3   229  ASP229      0.1436
    162  CG        55.2050   43.3500  -13.2070 C.2   229  ASP229      0.3671
    163  OD1       55.0850   42.1920  -12.7100 O.co2 229  ASP229     -0.2456
    164  OD2       55.2340   44.4380  -12.5150 O.co2 229  ASP229     -0.2456
    165  N         54.3480   39.1780  -18.6940 N.3   232  ASP232     -0.1239
    166  CA        53.0210   38.6690  -18.4400 C.3   232  ASP232      0.1674
    167  C         52.1200   39.1180  -19.6060 C.2   232  ASP232      0.2266
    168  O         51.3030   38.3350  -20.0920 O.2   232  ASP232     -0.2867
    169  CB        52.4380   39.1960  -17.1430 C.3   232  ASP232      0.1410
    170  CG        51.1570   38.4660  -16.7210 C.2   232  ASP232      0.3668
    171  OD1       51.2590   37.3520  -16.1690 O.co2 232  ASP232     -0.2456
    172  OD2       50.0590   39.0330  -16.8830 O.co2 232  ASP232     -0.2456
    173  N         53.9940   30.0220  -19.6840 N.3   242  LYS242     -0.1197
    174  CA        52.9270   30.3870  -18.7970 C.3   242  LYS242      0.1778
    175  C         51.9520   31.3700  -19.4100 C.2   242  LYS242      0.2305
    176  O         52.3360   32.2870  -20.1040 O.2   242  LYS242     -0.2863
    177  CB        53.4770   30.8430  -17.4040 C.2   242  LYS242     -0.0042
    178  CG        54.1540   32.1960  -17.3200 C.2   242  LYS242     -0.0273
    179  CD        54.9680   32.4710  -15.9830 C.3   242  LYS242      0.0462
    180  CE        55.5470   33.8880  -15.9400 C.3   242  LYS242      0.1140
    181  NZ        56.6850   34.2810  -15.0300 N.3   242  LYS242     -0.1310
    182  N         47.9500   38.9850  -15.1700 N.3   246  ASP246     -0.1239
    183  CA        47.9630   40.2170  -14.3700 C.3   246  ASP246      0.1674
    184  C         46.7210   41.1100  -14.6320 C.2   246  ASP246      0.2266
    185  O         46.1550   41.7170  -13.6940 O.2   246  ASP246     -0.2867
    186  CB        49.2510   41.0310  -14.6070 C.3   246  ASP246      0.1410
    187  CG        50.4880   40.3800  -14.0150 C.2   246  ASP246      0.3668
    188  OD1       50.3540   39.4780  -13.1610 O.co2 246  ASP246     -0.2456
    189  OD2       51.5860   40.7730  -14.4070 O.co2 246  ASP246     -0.2456
    190  N         46.2130   43.2080  -11.2010 N.3   251  LYS251     -0.1245
    191  CA        47.4550   43.3480  -10.4530 C.3   251  LYS251      0.1561
    192  C         48.0030   44.7600  -10.5560 C.2   251  LYS251      0.2260
    193  O         47.8450   45.4370  -11.6150 O.2   251  LYS251     -0.2867
    194  CB        48.4910   42.3870  -10.9800 C.3   251  LYS251      0.0271
    195  CG        48.2380   40.9120  -10.7020 C.3   251  LYS251      0.0035
    196  CD        48.2150   40.5830   -9.2510 C.3   251  LYS251      0.0206
    197  CE        47.9270   39.0880   -9.1050 C.3   251  LYS251      0.1093
    198  NZ        48.0190   38.7200   -7.7070 N.3   251  LYS251     -0.1314
@<TRIPOS>BOND
     1   176   175    2
     2   168   167    2
     3   173   174    1
     4   167   166    1
     5   175   174    1
     6   174   177    1
     7   165   166    1
     8   166   169    1
     9   160   159    2
    10   177   178    2
    11   178   179    1
    12   169   170    1
    13   159   158    1
    14   172   170   ar
    15   170   171   ar
    16   152   151    2
    17    68    69    2
    18    68    67    1
    19    66    67    1
    20   179   180    1
    21   180   181    1
    22   151   150    1
    23   151   157   am
    24    67    70    1
    25   149   150    1
    26   158   157    1
    27   158   161    1
    28   150   153    1
    29   182   183    1
    30   161   162    1
    31   184   183    1
    32   184   185    2
    33   186   183    1
    34   186   187    1
    35   189   187   ar
    36    70    71    1
    37   155   154   ar
    38   187   188   ar
    39    71    72    1
    40   153   154    1
    41   154   156   ar
    42   137   135   ar
    43   137   139   ar
    44    62    61    1
    45    62    63    1
    46   132   131    2
    47   135   134   ar
    48   162   163   ar
    49   162   164   ar
    50   139   138   ar
    51    61    64    1
    52    61    60    1
    53   143   142    2
    54    64    65    1
    55   130   131    1
    56   130   129    1
    57   130   133    1
    58   131   140   am
    59   142   141    1
    60    72    73    1
    61    75    74    1
    62   134   133    1
    63   134   136   ar
    64   138   136   ar
    65    73    74    2
    66    74    76    1
    67   140   141    1
    68   193   192    2
    69   141   144    1
    70    55    54    2
    71   190   191    1
    72   148   146   am
    73   194   195    1
    74   194   191    1
    75    50    49   ar
    76    51    49   ar
    77   195   196    1
    78   192   191    1
    79    49    48    1
    80   146   145    1
    81   146   147    2
    82     1     2    1
    83   144   145    1
    84    54    53    1
    85    10     9    1
    86    20    18   am
    87    56    53    1
    88    56    57    1
    89    48    45    1
    90    11     9    1
    91   196   197    1
    92     9     8    2
    93    47    46    2
    94   197   198    1
    95    59    57   ar
    96    53    52    1
    97    45    46    1
    98    45    44    1
    99    43    41   ar
   100    57    58   ar
   101     2     3    1
   102     2     5    1
   103    35    33    1
   104    18    17    1
   105    18    19    2
   106    34    33    1
   107    33    30    1
   108    17    16    1
   109   109   108    1
   110     6     5    1
   111     6     7    1
   112     3     4    2
   113     8     7    1
   114   116   114    1
   115    44    38   am
   116    32    31    2
   117    41    42   ar
   118    41    40    1
   119   108   107    1
   120    39    38    2
   121   115   114    1
   122    38    37    1
   123    30    31    1
   124    30    29    1
   125   128   127    1
   126    16    13    1
   127   100    98   ar
   128   114   111    1
   129    40    37    1
   130    15    14    2
   131    99    98   ar
   132   107   106    1
   133    14    13    1
   134    37    36    1
   135    98    97    1
   136   127   126   ar
   137   127   125   ar
   138    29    23   am
   139    13    12    1
   140   126   124   ar
   141   111   112    1
   142   111   110    1
   143   113   112    2
   144   106   105    1
   145   125   123   ar
   146    96    95    2
   147    23    24    2
   148    23    22    1
   149    97    94    1
   150   110   103   am
   151   124   122   ar
   152    91    90    2
   153    95    94    1
   154   104   103    2
   155    92    90   am
   156   123   122   ar
   157    94    93    1
   158   120   119    2
   159   103   102    1
   160   119   118    1
   161   105   102    1
   162   122   121    1
   163    25    22    1
   164    25    26    1
   165    90    89    1
   166    21    22    1
   167   102   101    1
   168    27    26    1
   169   118   121    1
   170   118   117    1
   171    26    28    1
   172    89    88    1
   173    87    86    2
   174    83    81    1
   175    85    88    1
   176    85    84    1
   177    85    86    1
   178    82    81    1
   179    81    78    1
   180    80    79    2
   181    78    79    1
   182    78    77    1
