@<TRIPOS>MOLECULE
tmp/6b09B01.pdb
 183 173 0 0 0
SMALL
GASTEIGER

@<TRIPOS>ATOM
      1  N          8.4740    5.3880    3.6560 N.3    17  ARG17      -0.1245
      2  CA         9.1560    5.2930    4.9600 C.3    17  ARG17       0.1563
      3  C          8.6990    6.4640    5.8250 C.2    17  ARG17       0.2260
      4  O          8.3600    7.5360    5.3040 O.2    17  ARG17      -0.2867
      5  CB        10.6720    5.3150    4.7740 C.3    17  ARG17       0.0307
      6  CG        11.2830    4.0040    4.3040 C.3    17  ARG17       0.0489
      7  CD        12.7810    4.1050    4.0420 C.3    17  ARG17       0.2205
      8  NE        13.1310    5.1570    3.0760 N.pl3  17  ARG17      -0.0865
      9  CZ        14.3600    5.4550    2.6290 C.cat  17  ARG17       0.5346
     10  NH1       14.5220    6.4530    1.7680 N.pl3  17  ARG17       0.1354
     11  NH2       15.4210    4.7840    3.0530 N.pl3  17  ARG17       0.1354
     12  N          9.4930    8.8590    9.4420 N.3    19  VAL19      -0.1245
     13  CA        10.5920    9.3960   10.2700 C.3    19  VAL19       0.1561
     14  C          9.9800   10.2980   11.3360 C.2    19  VAL19       0.2260
     15  O          8.9840   10.9940   11.0610 O.2    19  VAL19      -0.2867
     16  CB        11.6320   10.0850    9.3800 C.3    19  VAL19       0.0252
     17  CG1       11.0850   11.3430    8.7450 C.3    19  VAL19       0.0019
     18  CG2       12.9000   10.3680   10.1520 C.3    19  VAL19       0.0019
     19  N         10.7370   13.0230   14.7230 N.3    21  HIS21      -0.1241
     20  CA        11.6230   13.9380   15.4970 C.3    21  HIS21       0.1621
     21  C         10.8350   14.7210   16.5470 C.2    21  HIS21       0.2264
     22  O          9.6700   15.0720   16.2910 O.2    21  HIS21      -0.2867
     23  CB        12.3520   14.9310   14.5770 C.3    21  HIS21       0.0745
     24  CG        13.0450   14.3040   13.4160 C.ar   21  HIS21       0.0817
     25  ND1       12.4120   14.1300   12.1870 N.ar   21  HIS21      -0.2268
     26  CD2       14.2880   13.7920   13.3000 C.ar   21  HIS21       0.1154
     27  CE1       13.2490   13.5450   11.3630 C.ar   21  HIS21       0.1986
     28  NE2       14.4170   13.3320   12.0240 N.ar   21  HIS21      -0.2212
     29  N         23.8550   18.3060   12.6890 N.3    47  ARG47      -0.1231
     30  CA        23.8380   16.9780   12.0230 C.3    47  ARG47       0.1694
     31  C         25.1800   16.7190   11.3420 C.2    47  ARG47       0.2592
     32  O         26.0410   17.6100   11.3380 O.2    47  ARG47      -0.2718
     33  CB        22.6890   16.8940   11.0160 C.3    47  ARG47       0.0321
     34  CG        21.3060   16.9740   11.6490 C.3    47  ARG47       0.0489
     35  CD        20.1960   17.0230   10.6240 C.3    47  ARG47       0.2205
     36  NE        19.7490   15.6960   10.2220 N.pl3  47  ARG47      -0.0865
     37  CZ        19.7620   15.2320    8.9840 C.cat  47  ARG47       0.5346
     38  NH1       19.3750   13.9930    8.7470 N.pl3  47  ARG47       0.1354
     39  NH2       20.1610   15.9930    7.9800 N.pl3  47  ARG47       0.1354
     40  N         25.3430   15.5260   10.7850 N.am   48  PHE48      -0.1976
     41  CA        26.5850   15.1410   10.0770 C.3    48  PHE48       0.1639
     42  C         26.7830   16.0340    8.8460 C.2    48  PHE48       0.2290
     43  O         27.9430   16.3660    8.5630 O.2    48  PHE48      -0.2864
     44  CB        26.5550   13.6590    9.7120 C.3    48  PHE48       0.0560
     45  CG        25.4450   13.2660    8.7740 C.ar   48  PHE48      -0.0200
     46  CD1       24.1650   13.0210    9.2480 C.ar   48  PHE48      -0.0042
     47  CD2       25.6790   13.1350    7.4180 C.ar   48  PHE48      -0.0042
     48  CE1       23.1420   12.6560    8.3830 C.ar   48  PHE48      -0.0003
     49  CE2       24.6550   12.7820    6.5520 C.ar   48  PHE48      -0.0003
     50  CZ        23.3900   12.5390    7.0350 C.ar   48  PHE48      -0.0000
     51  N         16.3870   18.3650   14.5670 N.3    54  PHE54      -0.1241
     52  CA        15.8520   17.8950   15.8690 C.3    54  PHE54       0.1605
     53  C         16.1690   16.4240   16.0780 C.2    54  PHE54       0.2264
     54  O         16.2070   15.6840   15.1170 O.2    54  PHE54      -0.2867
     55  CB        14.3400   18.0620   15.9250 C.3    54  PHE54       0.0534
     56  CG        13.8530   19.4790   16.0040 C.ar   54  PHE54      -0.0203
     57  CD1       13.7780   20.1350   17.2200 C.ar   54  PHE54      -0.0042
     58  CD2       13.4400   20.1420   14.8670 C.ar   54  PHE54      -0.0042
     59  CE1       13.3300   21.4440   17.2880 C.ar   54  PHE54      -0.0003
     60  CE2       12.9930   21.4500   14.9350 C.ar   54  PHE54      -0.0003
     61  CZ        12.9410   22.1010   16.1430 C.ar   54  PHE54      -0.0000
     62  N         15.9660   12.5730   16.3510 N.3    56  GLY56      -0.1210
     63  CA        15.0170   11.5960   15.7950 C.3    56  GLY56       0.1956
     64  C         15.4640   10.9650   14.4950 C.2    56  GLY56       0.2612
     65  O         16.4210   11.4520   13.8330 O.2    56  GLY56      -0.2717
     66  N         14.7630    9.8970   14.1320 N.am   57  GLY57      -0.1942
     67  CA        15.1110    9.1430   12.9370 C.3    57  GLY57       0.2014
     68  C         14.0460    8.1950   12.4670 C.2    57  GLY57       0.2638
     69  O         12.9240    8.1990   12.9830 O.2    57  GLY57      -0.2714
     70  N         14.4230    7.4120   11.4630 N.am   58  PHE58      -0.1973
     71  CA        13.5240    6.4950   10.7430 C.3    58  PHE58       0.1639
     72  C         12.9090    5.5230   11.7210 C.2    58  PHE58       0.2290
     73  O         13.5510    5.1240   12.7120 O.2    58  PHE58      -0.2864
     74  CB        14.2760    5.7070    9.6880 C.3    58  PHE58       0.0560
     75  CG        14.4390    6.4340    8.3810 C.ar   58  PHE58      -0.0200
     76  CD1       15.5350    7.2430    8.1350 C.ar   58  PHE58      -0.0042
     77  CD2       13.5070    6.2760    7.3720 C.ar   58  PHE58      -0.0042
     78  CE1       15.6930    7.8760    6.9110 C.ar   58  PHE58      -0.0003
     79  CE2       13.6490    6.9320    6.1590 C.ar   58  PHE58      -0.0003
     80  CZ        14.7470    7.7280    5.9300 C.ar   58  PHE58      -0.0000
     81  N         15.4510    5.9520   18.6200 N.3    73  GLU73      -0.1245
     82  CA        16.3260    6.9210   17.9250 C.3    73  GLU73       0.1567
     83  C         16.7590    8.0070   18.9030 C.2    73  GLU73       0.2260
     84  O         17.9400    8.2930   18.9770 O.2    73  GLU73      -0.2867
     85  CB        15.6370    7.5210   16.6960 C.3    73  GLU73       0.0388
     86  CG        15.5900    6.5760   15.5030 C.3    73  GLU73       0.1160
     87  CD        16.9300    6.3590   14.8160 C.2    73  GLU73       0.3649
     88  OE1       17.8340    7.2180   14.9330 O.co2  73  GLU73      -0.2457
     89  OE2       17.0810    5.3280   14.1460 O.co2  73  GLU73      -0.2457
     90  N         20.5040    8.8050   19.6190 N.3    77  GLU77      -0.1245
     91  CA        21.0240   10.1510   19.2590 C.3    77  GLU77       0.1567
     92  C         21.2980   11.0120   20.4900 C.2    77  GLU77       0.2260
     93  O         22.1960   11.8400   20.3870 O.2    77  GLU77      -0.2867
     94  CB        20.1040   10.8310   18.2440 C.3    77  GLU77       0.0388
     95  CG        19.5620    9.8520   17.2120 C.3    77  GLU77       0.1160
     96  CD        19.5890   10.3050   15.7640 C.2    77  GLU77       0.3649
     97  OE1       19.4220   11.5170   15.5160 O.co2  77  GLU77      -0.2457
     98  OE2       19.7740    9.4260   14.8760 O.co2  77  GLU77      -0.2457
     99  N          4.5990   16.0970    7.7560 N.3    96  HIS96      -0.1226
    100  CA         4.9950   16.6900    6.4440 C.3    96  HIS96       0.1752
    101  C          5.6060   15.6420    5.5170 C.2    96  HIS96       0.2595
    102  O          6.1880   14.6410    5.9830 O.2    96  HIS96      -0.2718
    103  CB         6.0460   17.7890    6.6080 C.3    96  HIS96       0.0759
    104  CG         5.5560   19.0600    7.2110 C.ar   96  HIS96       0.0818
    105  ND1        5.0210   19.1290    8.4910 N.ar   96  HIS96      -0.2268
    106  CD2        5.5860   20.3280    6.7470 C.ar   96  HIS96       0.1154
    107  CE1        4.6980   20.3730    8.7620 C.ar   96  HIS96       0.1986
    108  NE2        5.0370   21.1320    7.7130 N.ar   96  HIS96      -0.2212
    109  N          5.5160   15.9110    4.2180 N.am   97  VAL97      -0.1980
    110  CA         6.2300   15.1370    3.1680 C.3    97  VAL97       0.1595
    111  C          7.3990   15.9860    2.6540 C.2    97  VAL97       0.2287
    112  O          8.2420   15.4830    1.8600 O.2    97  VAL97      -0.2864
    113  CB         5.2840   14.7100    2.0340 C.3    97  VAL97       0.0276
    114  CG1        3.9990   14.1080    2.5770 C.3    97  VAL97       0.0022
    115  CG2        4.9830   15.8630    1.0810 C.3    97  VAL97       0.0022
    116  N         12.5240   12.3630   -1.6950 N.3    98  PRO98      -0.2116
    117  CA        12.3660   10.9130   -1.6720 C.3    98  PRO98       0.1372
    118  C         11.1260   10.4880   -0.8750 C.2    98  PRO98       0.2244
    119  O         10.5770   11.3230   -0.1620 O.2    98  PRO98      -0.2868
    120  CB        13.6670   10.4600   -1.0010 C.3    98  PRO98       0.0268
    121  CG        14.2180   11.7070   -0.3090 C.3    98  PRO98       0.0207
    122  CD        13.3270   12.8950   -0.6190 C.3    98  PRO98       0.0892
    123  N          9.2550    9.7160    1.6710 N.3   100  VAL100     -0.1245
    124  CA         9.2520    9.7710    3.1530 C.3   100  VAL100      0.1561
    125  C          8.1870   10.7700    3.6050 C.2   100  VAL100      0.2260
    126  O          7.9250   11.7640    2.9300 O.2   100  VAL100     -0.2867
    127  CB        10.6390   10.1250    3.7290 C.3   100  VAL100      0.0252
    128  CG1       10.6690   10.0000    5.2430 C.3   100  VAL100      0.0019
    129  CG2       11.7480    9.2550    3.1550 C.3   100  VAL100      0.0019
    130  N          7.4040   12.8620    7.2140 N.3   102  ALA102     -0.1245
    131  CA         8.1090   13.1780    8.4730 C.3   102  ALA102      0.1562
    132  C          7.1350   13.6740    9.5370 C.2   102  ALA102      0.2260
    133  O          6.3900   14.6380    9.2910 O.2   102  ALA102     -0.2867
    134  CB         9.2190   14.1600    8.2250 C.3   102  ALA102      0.0290
    135  N         25.3410    7.9740   18.9320 N.3   126  ASP126     -0.1239
    136  CA        25.5150    8.7230   17.6590 C.3   126  ASP126      0.1674
    137  C         26.3510   10.0020   17.8200 C.2   126  ASP126      0.2266
    138  O         26.5560   10.7150   16.8210 O.2   126  ASP126     -0.2867
    139  CB        24.1480    9.0260   17.0410 C.3   126  ASP126      0.1410
    140  CG        23.5380    7.8310   16.3290 C.2   126  ASP126      0.3668
    141  OD1       24.3120    7.0610   15.7640 O.co2 126  ASP126     -0.2456
    142  OD2       22.2870    7.6890   16.3340 O.co2 126  ASP126     -0.2456
    143  N         26.5890   10.3360   13.8400 N.3   130  GLU130     -0.1245
    144  CA        25.3310   10.9050   13.2900 C.3   130  GLU130      0.1567
    145  C         25.2230   12.3540   13.7540 C.2   130  GLU130      0.2260
    146  O         25.2490   13.2470   12.9050 O.2   130  GLU130     -0.2867
    147  CB        24.1090   10.1200   13.7540 C.3   130  GLU130      0.0388
    148  CG        23.3200    9.4890   12.6250 C.3   130  GLU130      0.1160
    149  CD        23.5450    7.9970   12.4270 C.2   130  GLU130      0.3649
    150  OE1       24.4730    7.4500   13.0600 O.co2 130  GLU130     -0.2457
    151  OE2       22.7800    7.3810   11.6570 O.co2 130  GLU130     -0.2457
    152  N         17.3520   21.2490    8.0200 N.3   158  ILE158     -0.1231
    153  CA        17.0040   19.9790    7.3350 C.3   158  ILE158      0.1692
    154  C         15.4930   19.9020    7.1910 C.2   158  ILE158      0.2593
    155  O         14.7810   20.2080    8.1550 O.2   158  ILE158     -0.2718
    156  CB        17.5820   18.7610    8.0630 C.3   158  ILE158      0.0266
    157  CG1       17.1130   17.4540    7.4190 C.3   158  ILE158      0.0019
    158  CG2       17.2440   18.8090    9.5300 C.3   158  ILE158      0.0020
    159  CD1       17.6530   17.2070    6.0280 C.3   158  ILE158      0.0001
    160  N         15.0520   19.5280    5.9910 N.am  159  GLY159     -0.1942
    161  CA        13.6340   19.3460    5.6110 C.3   159  GLY159      0.2014
    162  C         12.7260   20.5240    5.9420 C.2   159  GLY159      0.2640
    163  O         12.5910   21.4550    5.1380 O.2   159  GLY159     -0.2714
    164  N         12.0780   20.4500    7.0980 N.am  160  SER160     -0.1935
    165  CA        11.0640   21.4220    7.5560 C.3   160  SER160      0.2055
    166  C         11.2230   21.7560    9.0510 C.2   160  SER160      0.2642
    167  O         10.2320   22.1950    9.6730 O.2   160  SER160     -0.2714
    168  CB         9.6610   20.9010    7.2510 C.3   160  SER160      0.2130
    169  OG         9.5870   20.2970    5.9680 O.3   160  SER160     -0.2179
    170  N         12.4100   21.5630    9.6320 N.am  161  ALA161     -0.1977
    171  CA        12.6140   21.8050   11.0810 C.3   161  ALA161      0.1597
    172  C         12.3180   23.2740   11.3860 C.2   161  ALA161      0.2287
    173  O         11.7150   23.5810   12.4090 O.2   161  ALA161     -0.2864
    174  CB        14.0110   21.4370   11.5060 C.3   161  ALA161      0.0319
    175  N          8.7400   23.7860   11.5270 N.3   164  GLN164     -0.1245
    176  CA         8.3090   23.0560   12.7440 C.3   164  GLN164      0.1566
    177  C          8.6910   23.7880   14.0350 C.2   164  GLN164      0.2260
    178  O          7.9520   23.7100   15.0390 O.2   164  GLN164     -0.2867
    179  CB         8.9170   21.6590   12.7440 C.3   164  GLN164      0.0367
    180  CG         8.2480   20.6890   11.7890 C.3   164  GLN164      0.0905
    181  CD         9.0530   19.4310   11.5650 C.2   164  GLN164      0.2608
    182  OE1       10.1810   19.3030   12.0280 O.2   164  GLN164     -0.2717
    183  NE2        8.4820   18.4850   10.8410 N.am  164  GLN164     -0.0878
@<TRIPOS>BOND
     1   116   117    1
     2   116   122    1
     3   117   120    1
     4   117   118    1
     5   120   121    1
     6   118   119    2
     7   122   121    1
     8   115   113    1
     9   123   124    1
    10    10     9    1
    11   112   111    2
    12   113   114    1
    13   113   110    1
    14     9    11    1
    15     9     8    2
    16   111   110    1
    17   126   125    2
    18     8     7    1
    19   124   125    1
    20   124   127    1
    21   129   127    1
    22   110   109    1
    23     1     2    1
    24   127   128    1
    25     7     6    1
    26   109   101   am
    27     6     5    1
    28     5     2    1
    29     2     3    1
    30   163   162    2
    31     4     3    2
    32   101   102    2
    33   101   100    1
    34   161   162    1
    35   161   160    1
    36    80    79   ar
    37    80    78   ar
    38   162   164   am
    39   169   168    1
    40   160   154   am
    41   159   157    1
    42    79    77   ar
    43   100   103    1
    44   100    99    1
    45    49    50   ar
    46    49    47   ar
    47   103   104    1
    48   106   104   ar
    49   106   108   ar
    50    78    76   ar
    51    50    48   ar
    52   164   165    1
    53   154   153    1
    54   154   155    2
    55   104   105   ar
    56   130   131    1
    57   168   165    1
    58   153   152    1
    59   153   156    1
    60    77    75   ar
    61    47    45   ar
    62   157   156    1
    63   165   166    1
    64   108   107   ar
    65    39    37    1
    66   156   158    1
    67    76    75   ar
    68   134   131    1
    69    75    74    1
    70    48    46   ar
    71   131   132    1
    72   105   107   ar
    73    43    42    2
    74    17    16    1
    75    38    37    1
    76    45    46   ar
    77    45    44    1
    78    42    41    1
    79    37    36    2
    80   166   170   am
    81   166   167    2
    82   133   132    2
    83    16    18    1
    84    16    13    1
    85    12    13    1
    86   170   171    1
    87    74    71    1
    88    44    41    1
    89    41    40    1
    90    36    35    1
    91    13    14    1
    92    35    34    1
    93    71    70    1
    94    71    72    1
    95    40    31   am
    96   183   181   am
    97    33    34    1
    98    33    30    1
    99    15    14    2
   100   171   172    1
   101   171   174    1
   102    32    31    2
   103    31    30    1
   104    27    28   ar
   105    27    25   ar
   106   172   173    2
   107    70    68   am
   108   175   176    1
   109   181   180    1
   110   181   182    2
   111   151   149   ar
   112    72    73    2
   113   180   179    1
   114    30    29    1
   115    28    26   ar
   116    25    24   ar
   117   149   148    1
   118   149   150   ar
   119    68    67    1
   120    68    69    2
   121   148   147    1
   122   179   176    1
   123   176   177    1
   124   146   145    2
   125    67    66    1
   126   144   145    1
   127   144   147    1
   128   144   143    1
   129    26    24   ar
   130    24    23    1
   131    65    64    2
   132   177   178    2
   133    66    64   am
   134    89    87   ar
   135    64    63    1
   136    51    52    1
   137    23    20    1
   138    19    20    1
   139    87    88   ar
   140    87    86    1
   141    58    60   ar
   142    58    56   ar
   143    98    96   ar
   144    60    61   ar
   145    54    53    2
   146    20    21    1
   147    86    85    1
   148    97    96   ar
   149    96    95    1
   150   141   140   ar
   151    63    62    1
   152    52    55    1
   153    52    53    1
   154    55    56    1
   155    56    57   ar
   156    61    59   ar
   157    22    21    2
   158   140   142   ar
   159   140   139    1
   160    85    82    1
   161   138   137    2
   162   139   136    1
   163    95    94    1
   164    57    59   ar
   165   136   137    1
   166   136   135    1
   167    82    81    1
   168    82    83    1
   169    94    91    1
   170    83    84    2
   171    91    90    1
   172    91    92    1
   173    93    92    2
