@<TRIPOS>MOLECULE
tmp/6b0fA00.pdb
 212 203 0 0 0
SMALL
GASTEIGER

@<TRIPOS>ATOM
      1  N        -46.4440    2.0760  -28.1240 N.3    27  MET27      -0.1245
      2  CA       -45.4960    2.6160  -29.1090 C.3    27  MET27       0.1570
      3  C        -46.0960    3.7560  -29.9390 C.2    27  MET27       0.2261
      4  O        -45.4350    4.7870  -30.0970 O.2    27  MET27      -0.2867
      5  CB       -44.8860    1.5270  -29.9930 C.3    27  MET27       0.0387
      6  CG       -43.8030    0.7000  -29.2960 C.3    27  MET27       0.0595
      7  SD       -42.4100    1.5930  -28.5160 S.3    27  MET27      -0.1393
      8  CE       -41.6340    2.3960  -29.9700 C.3    27  MET27       0.0692
      9  N        -45.9600    6.6590  -27.5710 N.3    30  LEU30      -0.1231
     10  CA       -44.5980    7.1820  -27.4030 C.3    30  LEU30       0.1693
     11  C        -44.0940    7.9250  -28.6810 C.2    30  LEU30       0.2592
     12  O        -43.5400    9.0310  -28.5780 O.2    30  LEU30      -0.2718
     13  CB       -43.6270    6.0670  -26.9580 C.3    30  LEU30       0.0284
     14  CG       -43.9880    5.2760  -25.6780 C.3    30  LEU30       0.0019
     15  CD1      -43.2630    3.9490  -25.6360 C.3    30  LEU30       0.0001
     16  CD2      -43.7390    6.0720  -24.4140 C.3    30  LEU30       0.0001
     17  N        -44.3540    7.3350  -29.8780 N.am   31  THR31      -0.1953
     18  CA       -44.0440    7.9030  -31.1980 C.3    31  THR31       0.1897
     19  C        -44.7630    9.2590  -31.3650 C.2    31  THR31       0.2313
     20  O        -44.1180   10.2520  -31.6600 O.2    31  THR31      -0.2863
     21  CB       -44.4040    6.8790  -32.2930 C.3    31  THR31       0.1794
     22  OG1      -43.7170    5.6650  -32.0070 O.3    31  THR31      -0.2208
     23  CG2      -44.0140    7.3300  -33.6870 C.3    31  THR31       0.0378
     24  N        -46.2180   11.2070  -28.9040 N.3    33  LEU33      -0.1231
     25  CA       -45.8020   12.1080  -27.8240 C.3    33  LEU33       0.1693
     26  C        -44.4870   12.7850  -28.1520 C.2    33  LEU33       0.2591
     27  O        -44.3880   14.0060  -28.0070 O.2    33  LEU33      -0.2718
     28  CB       -45.7110   11.3650  -26.4810 C.3    33  LEU33       0.0284
     29  CG       -45.1090   12.1290  -25.2810 C.3    33  LEU33       0.0019
     30  CD1      -46.1250   13.0650  -24.6340 C.3    33  LEU33       0.0001
     31  CD2      -44.5790   11.1690  -24.2530 C.3    33  LEU33       0.0001
     32  N        -43.4870   12.0010  -28.6120 N.am   34  ALA34      -0.1980
     33  CA       -42.1800   12.5380  -28.9870 C.3    34  ALA34       0.1597
     34  C        -42.2980   13.4750  -30.1890 C.2    34  ALA34       0.2287
     35  O        -41.6830   14.5370  -30.1580 O.2    34  ALA34      -0.2864
     36  CB       -41.1890   11.4200  -29.2560 C.3    34  ALA34       0.0319
     37  N        -43.5470   16.6410  -29.1080 N.3    37  GLU37      -0.1245
     38  CA       -42.4890   17.1610  -28.2310 C.3    37  GLU37       0.1567
     39  C        -41.3290   17.7430  -29.0320 C.2    37  GLU37       0.2260
     40  O        -40.6780   18.6740  -28.5510 O.2    37  GLU37      -0.2867
     41  CB       -41.9770   16.0930  -27.2580 C.3    37  GLU37       0.0388
     42  CG       -42.7400   16.0310  -25.9480 C.3    37  GLU37       0.1160
     43  CD       -42.3030   14.9420  -24.9810 C.2    37  GLU37       0.3649
     44  OE1      -41.9960   13.8190  -25.4420 O.co2  37  GLU37      -0.2457
     45  OE2      -42.3240   15.1960  -23.7530 O.co2  37  GLU37      -0.2457
     46  N        -31.8240   15.1880  -30.5350 N.3    67  TRP67      -0.1227
     47  CA       -33.2510   15.0970  -30.2370 C.3    67  TRP67       0.1737
     48  C        -33.6220   13.9410  -29.2990 C.2    67  TRP67       0.2595
     49  O        -34.5960   14.1100  -28.5640 O.2    67  TRP67      -0.2718
     50  CB       -34.1210   15.0750  -31.5040 C.3    67  TRP67       0.0564
     51  CG       -34.0650   13.7910  -32.2570 C.ar   67  TRP67       0.0003
     52  CD1      -33.1690   13.4530  -33.2210 C.ar   67  TRP67       0.0946
     53  CD2      -34.8960   12.6440  -32.0610 C.ar   67  TRP67       0.0152
     54  NE1      -33.4070   12.1760  -33.6620 N.ar   67  TRP67      -0.2442
     55  CE2      -34.4500   11.6460  -32.9520 C.ar   67  TRP67       0.0810
     56  CE3      -35.9520   12.3410  -31.1840 C.ar   67  TRP67       0.0012
     57  CZ2      -35.0190   10.3660  -32.9950 C.ar   67  TRP67       0.0191
     58  CZ3      -36.5140   11.0740  -31.2260 C.ar   67  TRP67       0.0001
     59  CH2      -36.0550   10.1060  -32.1330 C.ar   67  TRP67       0.0015
     60  N        -32.8910   12.7790  -29.3000 N.am   68  LEU68      -0.1980
     61  CA       -33.2920   11.7190  -28.3530 C.3    68  LEU68       0.1596
     62  C        -32.7170   11.9490  -26.9390 C.2    68  LEU68       0.2287
     63  O        -33.4640   11.8090  -25.9790 O.2    68  LEU68      -0.2864
     64  CB       -33.0530   10.2860  -28.8460 C.3    68  LEU68       0.0297
     65  CG       -33.8090    9.1430  -28.1120 C.3    68  LEU68       0.0022
     66  CD1      -35.3190    9.3280  -28.1460 C.3    68  LEU68       0.0001
     67  CD2      -33.4980    7.8090  -28.7430 C.3    68  LEU68       0.0001
     68  N        -34.8350   14.4820  -25.2680 N.3    71  LEU71      -0.1231
     69  CA       -36.0940   13.8740  -24.8550 C.3    71  LEU71       0.1693
     70  C        -35.9080   13.0610  -23.5590 C.2    71  LEU71       0.2591
     71  O        -36.7090   13.1880  -22.6260 O.2    71  LEU71      -0.2718
     72  CB       -36.6770   12.9910  -25.9730 C.3    71  LEU71       0.0284
     73  CG       -37.5690   13.6870  -26.9970 C.3    71  LEU71       0.0019
     74  CD1      -37.8760   12.7750  -28.1600 C.3    71  LEU71       0.0001
     75  CD2      -38.8630   14.1490  -26.3870 C.3    71  LEU71       0.0001
     76  N        -34.8350   12.2540  -23.5090 N.am   72  MET72      -0.1979
     77  CA       -34.4820   11.3930  -22.4060 C.3    72  MET72       0.1605
     78  C        -34.1030   12.1900  -21.1480 C.2    72  MET72       0.2287
     79  O        -34.6280   11.8570  -20.0920 O.2    72  MET72      -0.2864
     80  CB       -33.4020   10.3890  -22.8330 C.3    72  MET72       0.0413
     81  CG       -33.9290    9.2530  -23.7220 C.3    72  MET72       0.0598
     82  SD       -32.6300    8.1770  -24.4370 S.3    72  MET72      -0.1393
     83  CE       -33.5340    6.7120  -24.6740 C.3    72  MET72       0.0692
     84  N        -37.2070   13.5680  -19.8230 N.3    75  LEU75      -0.1245
     85  CA       -37.9600   12.4510  -19.2440 C.3    75  LEU75       0.1561
     86  C        -37.4560   12.0990  -17.8460 C.2    75  LEU75       0.2260
     87  O        -38.2210   12.1740  -16.8850 O.2    75  LEU75      -0.2867
     88  CB       -37.9940   11.2240  -20.1990 C.3    75  LEU75       0.0270
     89  CG       -38.3620    9.8470  -19.6210 C.3    75  LEU75       0.0019
     90  CD1      -39.8270    9.7520  -19.2990 C.3    75  LEU75       0.0001
     91  CD2      -37.9600    8.7340  -20.5760 C.3    75  LEU75       0.0001
     92  N        -38.4940   14.6230  -15.2140 N.3    78  ARG78      -0.1245
     93  CA       -39.9250   14.5890  -14.8610 C.3    78  ARG78       0.1563
     94  C        -40.2290   13.4140  -13.9280 C.2    78  ARG78       0.2260
     95  O        -40.9600   13.5730  -12.9520 O.2    78  ARG78      -0.2867
     96  CB       -40.7860   14.4170  -16.1260 C.3    78  ARG78       0.0307
     97  CG       -40.8420   15.6250  -17.0250 C.3    78  ARG78       0.0489
     98  CD       -41.9220   15.4500  -18.0680 C.3    78  ARG78       0.2205
     99  NE       -41.3770   15.4710  -19.4270 N.pl3  78  ARG78      -0.0865
    100  CZ       -41.3380   14.4160  -20.2290 C.cat  78  ARG78       0.5346
    101  NH1      -41.8020   13.2480  -19.8180 N.pl3  78  ARG78       0.1354
    102  NH2      -40.8400   14.5230  -21.4520 N.pl3  78  ARG78       0.1354
    103  N        -43.4550    9.6430  -18.8600 N.3    88  PHE88      -0.1241
    104  CA       -43.3380   10.1110  -20.2410 C.3    88  PHE88       0.1605
    105  C        -44.2960   11.2820  -20.4440 C.2    88  PHE88       0.2264
    106  O        -43.9810   12.1910  -21.2140 O.2    88  PHE88      -0.2867
    107  CB       -43.6480    8.9880  -21.2320 C.3    88  PHE88       0.0534
    108  CG       -42.6100    7.8940  -21.2900 C.ar   88  PHE88      -0.0203
    109  CD1      -42.6380    6.8370  -20.3870 C.ar   88  PHE88      -0.0042
    110  CD2      -41.6080    7.9140  -22.2530 C.ar   88  PHE88      -0.0042
    111  CE1      -41.6790    5.8250  -20.4430 C.ar   88  PHE88      -0.0003
    112  CE2      -40.6670    6.8890  -22.3220 C.ar   88  PHE88      -0.0003
    113  CZ       -40.7040    5.8570  -21.4100 C.ar   88  PHE88      -0.0000
    114  N        -36.9120   -3.1870  -25.5810 N.3    99  MET99      -0.1245
    115  CA       -37.0760   -1.8970  -24.9180 C.3    99  MET99       0.1570
    116  C        -36.8070   -1.9320  -23.4000 C.2    99  MET99       0.2261
    117  O        -36.6660   -0.8700  -22.7880 O.2    99  MET99      -0.2867
    118  CB       -38.4960   -1.3810  -25.1910 C.3    99  MET99       0.0387
    119  CG       -38.5440    0.0670  -25.5620 C.3    99  MET99       0.0595
    120  SD       -40.2270    0.7000  -25.7680 S.3    99  MET99      -0.1393
    121  CE       -40.7490    0.9450  -24.0440 C.3    99  MET99       0.0692
    122  N        -33.2600   -0.5040  -22.1160 N.3   102  ILE102     -0.1231
    123  CA       -33.2790    0.9580  -22.2680 C.3   102  ILE102      0.1692
    124  C        -34.1140    1.6200  -21.1530 C.2   102  ILE102      0.2592
    125  O        -33.6280    2.5560  -20.5020 O.2   102  ILE102     -0.2718
    126  CB       -33.6740    1.3860  -23.7140 C.3   102  ILE102      0.0266
    127  CG1      -32.5860    0.8810  -24.7220 C.3   102  ILE102      0.0019
    128  CG2      -33.8040    2.9020  -23.8190 C.3   102  ILE102      0.0020
    129  CD1      -33.0410    0.5080  -26.1300 C.3   102  ILE102      0.0001
    130  N        -35.3280    1.0950  -20.8980 N.am  103  PHE103     -0.1976
    131  CA       -36.2220    1.5580  -19.8390 C.3   103  PHE103      0.1639
    132  C        -35.4850    1.5290  -18.4840 C.2   103  PHE103      0.2290
    133  O        -35.5190    2.5080  -17.7340 O.2   103  PHE103     -0.2864
    134  CB       -37.4580    0.6440  -19.7910 C.3   103  PHE103      0.0560
    135  CG       -38.7130    1.2410  -19.1920 C.ar  103  PHE103     -0.0200
    136  CD1      -38.8240    1.4420  -17.8180 C.ar  103  PHE103     -0.0042
    137  CD2      -39.8150    1.5290  -19.9910 C.ar  103  PHE103     -0.0042
    138  CE1      -39.9910    1.9780  -17.2650 C.ar  103  PHE103     -0.0003
    139  CE2      -40.9800    2.0670  -19.4380 C.ar  103  PHE103     -0.0003
    140  CZ       -41.0590    2.2890  -18.0800 C.ar  103  PHE103     -0.0000
    141  N        -32.9250    4.3420  -18.2060 N.3   106  LEU106     -0.1245
    142  CA       -33.6560    5.5780  -17.9690 C.3   106  LEU106      0.1561
    143  C        -34.1970    5.6670  -16.5350 C.2   106  LEU106      0.2260
    144  O        -34.3160    6.7670  -15.9900 O.2   106  LEU106     -0.2867
    145  CB       -34.7630    5.6990  -18.9930 C.3   106  LEU106      0.0270
    146  CG       -34.2840    6.0600  -20.3660 C.3   106  LEU106      0.0019
    147  CD1      -35.1110    5.3900  -21.3990 C.3   106  LEU106      0.0001
    148  CD2      -34.2860    7.5580  -20.5600 C.3   106  LEU106      0.0001
    149  N        -31.1180    3.3700  -27.9910 N.3   183  GLY183     -0.1225
    150  CA       -32.4780    3.7230  -28.3710 C.3   183  GLY183      0.1811
    151  C        -32.6050    3.8550  -29.8800 C.2   183  GLY183      0.2280
    152  O        -33.5380    3.2980  -30.4640 O.2   183  GLY183     -0.2866
    153  N        -32.4590    0.3580  -31.3900 N.3   186  HIS186     -0.1226
    154  CA       -33.7220   -0.3300  -31.1190 C.3   186  HIS186      0.1752
    155  C        -34.8540    0.0950  -32.0630 C.2   186  HIS186      0.2596
    156  O        -35.3440   -0.7450  -32.8290 O.2   186  HIS186     -0.2718
    157  CB       -34.1470   -0.1770  -29.6430 C.3   186  HIS186      0.0759
    158  CG       -35.5180   -0.7080  -29.3550 C.ar  186  HIS186      0.0818
    159  ND1      -36.6210    0.1310  -29.3020 N.ar  186  HIS186     -0.2268
    160  CD2      -35.9280   -1.9820  -29.1520 C.ar  186  HIS186      0.1154
    161  CE1      -37.6590   -0.6520  -29.0480 C.ar  186  HIS186      0.1986
    162  NE2      -37.2930   -1.9320  -28.9480 N.ar  186  HIS186     -0.2212
    163  N        -35.2620    1.3880  -32.0030 N.am  187  LEU187     -0.1966
    164  CA       -36.3400    1.9620  -32.8180 C.3   187  LEU187      0.1728
    165  C        -36.1510    1.7280  -34.3250 C.2   187  LEU187      0.2616
    166  O        -37.1410    1.5710  -35.0460 O.2   187  LEU187     -0.2715
    167  CB       -36.4930    3.4830  -32.5780 C.3   187  LEU187      0.0311
    168  CG       -36.8220    4.0110  -31.1820 C.3   187  LEU187      0.0022
    169  CD1      -36.7670    5.5300  -31.1670 C.3   187  LEU187      0.0001
    170  CD2      -38.1680    3.5510  -30.7230 C.3   187  LEU187      0.0001
    171  N        -34.8850    1.7640  -34.7960 N.am  188  TYR188     -0.1974
    172  CA       -34.5040    1.6300  -36.2020 C.3   188  TYR188      0.1639
    173  C        -33.3930    0.5900  -36.3710 C.2   188  TYR188      0.2290
    174  O        -33.1230    0.1350  -37.4830 O.2   188  TYR188     -0.2864
    175  CB       -34.0590    2.9980  -36.7750 C.3   188  TYR188      0.0560
    176  CG       -34.7550    4.2140  -36.1850 C.ar  188  TYR188     -0.0198
    177  CD1      -36.1190    4.4270  -36.3830 C.ar  188  TYR188     -0.0009
    178  CD2      -34.0420    5.1800  -35.4830 C.ar  188  TYR188     -0.0009
    179  CE1      -36.7650    5.5350  -35.8340 C.ar  188  TYR188      0.0417
    180  CE2      -34.6730    6.3040  -34.9500 C.ar  188  TYR188      0.0417
    181  CZ       -36.0340    6.4840  -35.1400 C.ar  188  TYR188      0.1957
    182  OH       -36.6620    7.5900  -34.6260 O.3   188  TYR188     -0.2866
    183  N        -38.1260    1.4750  -39.8400 N.3   190  SER190     -0.1202
    184  CA       -38.3750    2.8370  -40.3290 C.3   190  SER190      0.2020
    185  C        -38.7140    3.8540  -39.2240 C.2   190  SER190      0.2619
    186  O        -38.9610    3.4860  -38.0700 O.2   190  SER190     -0.2717
    187  CB       -39.4770    2.8280  -41.3920 C.3   190  SER190      0.2103
    188  OG       -40.7310    2.4240  -40.8630 O.3   190  SER190     -0.2182
    189  N        -38.7370    5.1420  -39.6090 N.am  191  LYS191     -0.1965
    190  CA       -39.0370    6.2850  -38.7480 C.3   191  LYS191      0.1728
    191  C        -40.4500    6.8000  -39.0490 C.2   191  LYS191      0.2616
    192  O        -40.8540    6.8660  -40.2150 O.2   191  LYS191     -0.2715
    193  CB       -37.9950    7.4100  -38.9510 C.3   191  LYS191      0.0311
    194  CG       -36.5510    6.9100  -39.0700 C.3   191  LYS191      0.0038
    195  CD       -35.5140    8.0130  -38.8990 C.3   191  LYS191      0.0206
    196  CE       -34.1820    7.4900  -38.3980 C.3   191  LYS191      0.1093
    197  NZ       -33.5490    6.5200  -39.3360 N.3   191  LYS191     -0.1314
    198  N        -41.1990    7.1410  -37.9910 N.am  192  ASN192     -0.1958
    199  CA       -42.5620    7.6720  -38.0610 C.3   192  ASN192      0.1819
    200  C        -42.5870    9.1120  -37.5390 C.2   192  ASN192      0.2621
    201  O        -43.5180    9.8600  -37.8440 O.2   192  ASN192     -0.2715
    202  CB       -43.5350    6.7810  -37.2740 C.3   192  ASN192      0.1195
    203  CG       -44.6820    6.1970  -38.0690 C.2   192  ASN192      0.2630
    204  OD1      -44.5360    5.7760  -39.2250 O.2   192  ASN192     -0.2716
    205  ND2      -45.8380    6.0930  -37.4300 N.am  192  ASN192     -0.0877
    206  N        -41.5540    9.4940  -36.7600 N.am  193  VAL193     -0.1977
    207  CA       -41.3820   10.8410  -36.2070 C.3   193  VAL193      0.1596
    208  C        -40.5590   11.6350  -37.2190 C.2   193  VAL193      0.2287
    209  O        -39.4030   11.2900  -37.4760 O.2   193  VAL193     -0.2864
    210  CB       -40.7650   10.8340  -34.7790 C.3   193  VAL193      0.0276
    211  CG1      -40.4280   12.2380  -34.3160 C.3   193  VAL193      0.0022
    212  CG2      -41.7110   10.1870  -33.7840 C.3   193  VAL193      0.0022
@<TRIPOS>BOND
     1   187   188    1
     2   187   184    1
     3   184   183    1
     4   184   185    1
     5   192   191    2
     6   189   185   am
     7   189   190    1
     8   197   196    1
     9   204   203    2
    10   185   186    2
    11   194   193    1
    12   194   195    1
    13   191   190    1
    14   191   198   am
    15   193   190    1
    16   195   196    1
    17   203   205   am
    18   203   202    1
    19   199   198    1
    20   199   200    1
    21   199   202    1
    22   201   200    2
    23   200   206   am
    24   174   173    2
    25   209   208    2
    26   208   207    1
    27   175   172    1
    28   175   176    1
    29   206   207    1
    30   177   176   ar
    31   177   179   ar
    32   173   172    1
    33   207   210    1
    34   172   171    1
    35   176   178   ar
    36   179   181   ar
    37   178   180   ar
    38   181   180   ar
    39   181   182    1
    40   166   165    2
    41   171   165   am
    42   210   211    1
    43   210   212    1
    44   165   164    1
    45    23    21    1
    46    54    52   ar
    47    54    55   ar
    48    52    51   ar
    49    57    55   ar
    50    57    59   ar
    51    55    53   ar
    52   156   155    2
    53   164   167    1
    54   164   163    1
    55   167   168    1
    56    21    22    1
    57    21    18    1
    58    51    53   ar
    59    51    50    1
    60    59    58   ar
    61   155   163   am
    62   155   154    1
    63    53    56   ar
    64    20    19    2
    65    50    47    1
    66   153   154    1
    67    19    18    1
    68    58    56   ar
    69    18    17    1
    70   168   169    1
    71   168   170    1
    72   154   157    1
    73    46    47    1
    74   152   151    2
    75    47    48    1
    76    34    35    2
    77    34    33    1
    78     4     3    2
    79     5     6    1
    80     5     2    1
    81     8     7    1
    82     3     2    1
    83   151   150    1
    84    17    11   am
    85   157   158    1
    86   158   159   ar
    87   158   160   ar
    88   159   161   ar
    89    60    48   am
    90    60    61    1
    91    48    49    2
    92     6     7    1
    93    36    33    1
    94   160   162   ar
    95     2     1    1
    96    37    38    1
    97   161   162   ar
    98    39    40    2
    99    39    38    1
   100    33    32    1
   101    24    25    1
   102    64    61    1
   103    64    65    1
   104    67    65    1
   105    11    12    2
   106    11    10    1
   107    32    26   am
   108   150   149    1
   109    61    62    1
   110    38    41    1
   111    74    73    1
   112    26    27    2
   113    26    25    1
   114    66    65    1
   115    25    28    1
   116     9    10    1
   117    10    13    1
   118    41    42    1
   119    73    75    1
   120    73    72    1
   121    13    14    1
   122    62    63    2
   123    28    29    1
   124   129   127    1
   125    72    69    1
   126    42    43    1
   127   120   119    1
   128   120   121    1
   129    14    15    1
   130    14    16    1
   131   114   115    1
   132   119   118    1
   133    44    43   ar
   134    29    30    1
   135    29    31    1
   136    68    69    1
   137   118   115    1
   138    43    45   ar
   139   115   116    1
   140    69    70    1
   141   127   126    1
   142    83    82    1
   143    82    81    1
   144   128   126    1
   145    81    80    1
   146   126   123    1
   147    70    76   am
   148    70    71    2
   149    76    77    1
   150   116   117    2
   151    80    77    1
   152    77    78    1
   153   112   110   ar
   154   112   113   ar
   155   123   122    1
   156   123   124    1
   157   110   108   ar
   158   102   100    1
   159   113   111   ar
   160   147   146    1
   161   108   107    1
   162   108   109   ar
   163   107   104    1
   164   106   105    2
   165   124   130   am
   166   124   125    2
   167    78    79    2
   168   130   131    1
   169    91    89    1
   170   148   146    1
   171   105   104    1
   172   111   109   ar
   173   146   145    1
   174   104   103    1
   175   100   101    1
   176   100    99    2
   177    88    89    1
   178    88    85    1
   179   137   139   ar
   180   137   135   ar
   181   131   134    1
   182   131   132    1
   183    84    85    1
   184   134   135    1
   185    89    90    1
   186   139   140   ar
   187    99    98    1
   188    85    86    1
   189   135   136   ar
   190   145   142    1
   191   132   133    2
   192   141   142    1
   193   140   138   ar
   194    98    97    1
   195   142   143    1
   196    86    87    2
   197   136   138   ar
   198    97    96    1
   199   143   144    2
   200    96    93    1
   201    92    93    1
   202    93    94    1
   203    94    95    2
