@<TRIPOS>MOLECULE
tmp/6b0kA04.pdb
 93 93 0 0 0
SMALL
GASTEIGER

@<TRIPOS>ATOM
      1  N        182.0280  142.4020   37.8230 N.3     1  GLN1       -0.1231
      2  CA       182.1690  142.4400   39.3090 C.3     1  GLN1        0.1698
      3  C        180.8820  142.9290   39.9860 C.2     1  GLN1        0.2592
      4  O        180.2040  142.1380   40.6370 O.2     1  GLN1       -0.2718
      5  CB       183.3620  143.3080   39.7350 C.3     1  GLN1        0.0381
      6  CG       183.4270  143.4410   41.2670 C.3     1  GLN1        0.0905
      7  CD       183.9820  142.1800   41.8430 C.2     1  GLN1        0.2608
      8  OE1      185.0940  141.7790   41.4620 O.2     1  GLN1       -0.2717
      9  NE2      183.1940  141.5370   42.7270 N.am    1  GLN1       -0.0878
     10  N        180.5150  144.2020   39.7930 N.am    2  LYS2       -0.1966
     11  CA       179.4180  144.8120   40.5710 C.3     2  LYS2        0.1713
     12  C        178.0430  144.1920   40.2640 C.2     2  LYS2        0.2458
     13  O        177.6950  144.0240   39.1000 O.2     2  LYS2       -0.2730
     14  CB       179.3570  146.3400   40.3740 C.3     2  LYS2        0.0311
     15  CG       180.6190  147.1060   40.7560 C.3     2  LYS2        0.0038
     16  CD       181.0420  146.8960   42.2100 C.3     2  LYS2        0.0206
     17  CE       182.3890  147.5530   42.5050 C.3     2  LYS2        0.1093
     18  NZ       182.8470  147.2980   43.8960 N.3     2  LYS2       -0.1314
     19  N        177.2700  143.8480   41.3130 N.am    3  PRO3       -0.2727
     20  CA       176.0160  143.1160   41.1120 C.3     3  PRO3        0.1402
     21  C        174.8650  143.9510   40.5980 C.2     3  PRO3        0.2269
     22  O        174.7940  145.1550   40.8620 O.2     3  PRO3       -0.2865
     23  CB       175.6840  142.6070   42.5140 C.3     3  PRO3        0.0296
     24  CG       176.2700  143.6240   43.4150 C.3     3  PRO3        0.0237
     25  CD       177.5470  144.0520   42.7470 C.3     3  PRO3        0.0939
     26  N        171.1050  136.1540   46.5460 N.3   298  TRP298     -0.1241
     27  CA       172.3090  136.4610   45.7750 C.3   298  TRP298      0.1605
     28  C        173.2900  135.2840   45.9760 C.2   298  TRP298      0.2264
     29  O        173.9840  135.2280   46.9990 O.2   298  TRP298     -0.2867
     30  CB       172.9000  137.8020   46.2380 C.3   298  TRP298      0.0550
     31  CG       174.0610  138.3300   45.4370 C.ar  298  TRP298      0.0003
     32  CD1      174.4100  137.9970   44.1580 C.ar  298  TRP298      0.0946
     33  CD2      175.0050  139.3210   45.8600 C.ar  298  TRP298      0.0152
     34  NE1      175.5220  138.6940   43.7720 N.ar  298  TRP298     -0.2442
     35  CE2      175.9150  139.5120   44.7970 C.ar  298  TRP298      0.0810
     36  CE3      175.1850  140.0480   47.0430 C.ar  298  TRP298      0.0012
     37  CZ2      176.9960  140.4020   44.8810 C.ar  298  TRP298      0.0191
     38  CZ3      176.2600  140.9260   47.1310 C.ar  298  TRP298      0.0001
     39  CH2      177.1500  141.1020   46.0480 C.ar  298  TRP298      0.0015
     40  N        176.0790  132.5330   46.4560 N.3   300  LYS300     -0.1231
     41  CA       177.4710  132.6160   46.9190 C.3   300  LYS300      0.1693
     42  C        177.7550  133.8150   47.8440 C.2   300  LYS300      0.2592
     43  O        178.7970  133.8170   48.5090 O.2   300  LYS300     -0.2718
     44  CB       178.4760  132.5670   45.7450 C.3   300  LYS300      0.0285
     45  CG       179.8460  132.0680   46.1870 C.3   300  LYS300      0.0035
     46  CD       180.7740  132.0590   44.9750 C.3   300  LYS300      0.0206
     47  CE       181.5130  133.3590   44.7030 C.3   300  LYS300      0.1093
     48  NZ       180.6260  134.4960   44.3090 N.3   300  LYS300     -0.1314
     49  N        176.8490  134.8040   47.9070 N.am  301  HIS301     -0.1976
     50  CA       177.0340  136.0050   48.7300 C.3   301  HIS301      0.1656
     51  C        176.0800  136.0230   49.9100 C.2   301  HIS301      0.2291
     52  O        176.5130  136.1820   51.0530 O.2   301  HIS301     -0.2864
     53  CB       176.8530  137.2550   47.8770 C.3   301  HIS301      0.0771
     54  CG       177.8580  137.3660   46.7740 C.ar  301  HIS301      0.0820
     55  ND1      179.0960  137.9440   46.9500 N.ar  301  HIS301     -0.2267
     56  CD2      177.8260  136.9270   45.4940 C.ar  301  HIS301      0.1154
     57  CE1      179.7750  137.8750   45.8200 C.ar  301  HIS301      0.1986
     58  NE2      179.0260  137.2640   44.9210 N.ar  301  HIS301     -0.2212
     59  N        177.1410  150.4710   49.0230 N.3   323  ALA323     -0.1231
     60  CA       178.4250  149.8160   49.3030 C.3   323  ALA323      0.1694
     61  C        178.6660  148.6420   48.3560 C.2   323  ALA323      0.2591
     62  O        179.7500  148.5260   47.8060 O.2   323  ALA323     -0.2718
     63  CB       178.5100  149.3570   50.7500 C.3   323  ALA323      0.0304
     64  N        177.6560  147.8050   48.1420 N.am  324  LEU324     -0.1980
     65  CA       177.7690  146.6770   47.2090 C.3   324  LEU324      0.1596
     66  C        178.0240  147.1080   45.7590 C.2   324  LEU324      0.2287
     67  O        178.6930  146.3970   45.0090 O.2   324  LEU324     -0.2864
     68  CB       176.5180  145.7940   47.2650 C.3   324  LEU324      0.0297
     69  CG       176.2810  145.0440   48.5760 C.3   324  LEU324      0.0022
     70  CD1      174.8960  144.4160   48.5520 C.3   324  LEU324      0.0001
     71  CD2      177.3600  144.0030   48.8250 C.3   324  LEU324      0.0001
     72  N        175.6060  144.9720   55.6140 N.3   341  TRP341     -0.1241
     73  CA       176.3210  143.8170   55.0810 C.3   341  TRP341      0.1605
     74  C        177.4100  143.2270   56.0140 C.2   341  TRP341      0.2264
     75  O        177.4070  142.0140   56.2370 O.2   341  TRP341     -0.2867
     76  CB       176.8770  144.1160   53.6800 C.3   341  TRP341      0.0550
     77  CG       177.2520  142.8950   52.9440 C.ar  341  TRP341      0.0003
     78  CD1      178.5110  142.3870   52.7880 C.ar  341  TRP341      0.0946
     79  CD2      176.3670  141.9960   52.2720 C.ar  341  TRP341      0.0152
     80  NE1      178.4640  141.2300   52.0540 N.ar  341  TRP341     -0.2442
     81  CE2      177.1600  140.9680   51.7180 C.ar  341  TRP341      0.0810
     82  CE3      174.9800  141.9640   52.0720 C.ar  341  TRP341      0.0012
     83  CZ2      176.6110  139.9140   50.9750 C.ar  341  TRP341      0.0191
     84  CZ3      174.4320  140.9100   51.3350 C.ar  341  TRP341      0.0001
     85  CH2      175.2450  139.9060   50.7970 C.ar  341  TRP341      0.0015
     86  N        176.9030  139.4300   57.3100 N.3   345  ILE345     -0.1245
     87  CA       177.8580  138.3610   57.0050 C.3   345  ILE345      0.1561
     88  C        178.3940  137.6550   58.2580 C.2   345  ILE345      0.2260
     89  O        178.7130  136.4810   58.1930 O.2   345  ILE345     -0.2867
     90  CB       179.0210  138.8950   56.1100 C.3   345  ILE345      0.0252
     91  CG1      178.4950  139.2560   54.7090 C.3   345  ILE345      0.0019
     92  CG2      180.1680  137.8970   55.9710 C.3   345  ILE345      0.0019
     93  CD1      177.7080  138.1620   54.0040 C.3   345  ILE345      0.0001
@<TRIPOS>BOND
     1     1     2    1
     2    13    12    2
     3     2     5    1
     4     2     3    1
     5     5     6    1
     6    10     3   am
     7    10    11    1
     8     3     4    2
     9    12    11    1
    10    12    19   am
    11    14    11    1
    12    14    15    1
    13    21    22    2
    14    21    20    1
    15    15    16    1
    16    20    19    1
    17    20    23    1
    18     6     7    1
    19    19    25    1
    20     8     7    2
    21     7     9   am
    22    16    17    1
    23    17    18    1
    24    23    24    1
    25    25    24    1
    26    34    32   ar
    27    34    35   ar
    28    32    31   ar
    29    48    47    1
    30    47    46    1
    31    35    37   ar
    32    35    33   ar
    33    37    39   ar
    34    58    56   ar
    35    58    57   ar
    36    46    45    1
    37    67    66    2
    38    31    33   ar
    39    31    30    1
    40    56    54   ar
    41    44    45    1
    42    44    41    1
    43    66    65    1
    44    27    28    1
    45    27    30    1
    46    27    26    1
    47    57    55   ar
    48    33    36   ar
    49    28    29    2
    50    39    38   ar
    51    40    41    1
    52    54    55   ar
    53    54    53    1
    54    41    42    1
    55    36    38   ar
    56    65    68    1
    57    65    64    1
    58    68    69    1
    59    62    61    2
    60    42    49   am
    61    42    43    2
    62    53    50    1
    63    49    50    1
    64    64    61   am
    65    61    60    1
    66    70    69    1
    67    69    71    1
    68    50    51    1
    69    59    60    1
    70    60    63    1
    71    51    52    2
    72    85    83   ar
    73    85    84   ar
    74    83    81   ar
    75    84    82   ar
    76    81    80   ar
    77    81    79   ar
    78    80    78   ar
    79    82    79   ar
    80    79    77   ar
    81    78    77   ar
    82    77    76    1
    83    76    73    1
    84    93    91    1
    85    91    90    1
    86    73    72    1
    87    73    74    1
    88    92    90    1
    89    74    75    2
    90    90    87    1
    91    87    86    1
    92    87    88    1
    93    89    88    2
