@<TRIPOS>MOLECULE
tmp/6b0kB04.pdb
 95 93 0 0 0
SMALL
GASTEIGER

@<TRIPOS>ATOM
      1  N        166.2210  180.0370   71.4480 N.3    71  PHE71      -0.1241
      2  CA       166.0990  179.2090   72.6300 C.3    71  PHE71       0.1605
      3  C        167.3600  178.4040   72.8150 C.2    71  PHE71       0.2264
      4  O        168.1040  178.1800   71.8520 O.2    71  PHE71      -0.2867
      5  CB       164.9040  178.2750   72.4980 C.3    71  PHE71       0.0534
      6  CG       163.5690  178.9720   72.5810 C.ar   71  PHE71      -0.0203
      7  CD1      162.9460  179.1580   73.8040 C.ar   71  PHE71      -0.0042
      8  CD2      162.9320  179.4190   71.4320 C.ar   71  PHE71      -0.0042
      9  CE1      161.7010  179.7740   73.8840 C.ar   71  PHE71      -0.0003
     10  CE2      161.6870  180.0450   71.5060 C.ar   71  PHE71      -0.0003
     11  CZ       161.0790  180.2230   72.7430 C.ar   71  PHE71      -0.0000
     12  N        163.2910  188.1670   74.6870 N.3   360  ARG360     -0.1231
     13  CA       163.3330  186.8710   75.3500 C.3   360  ARG360      0.1694
     14  C        161.9140  186.3480   75.4570 C.2   360  ARG360      0.2592
     15  O        161.0450  187.0210   75.9960 O.2   360  ARG360     -0.2718
     16  CB       163.9510  187.0000   76.7330 C.3   360  ARG360      0.0321
     17  CG       164.0490  185.6820   77.4990 C.3   360  ARG360      0.0489
     18  CD       162.8860  185.4430   78.4430 C.3   360  ARG360      0.2205
     19  NE       162.7910  184.0260   78.7860 N.pl3 360  ARG360     -0.0865
     20  CZ       163.5100  183.3990   79.7260 C.cat 360  ARG360      0.5346
     21  NH1      163.3280  182.0890   79.9350 N.pl3 360  ARG360      0.1354
     22  NH2      164.4110  184.0570   80.4550 N.pl3 360  ARG360      0.1354
     23  N        161.6980  185.1360   74.9570 N.am  361  HIS361     -0.1962
     24  CA       160.3710  184.5780   74.8570 C.3   361  HIS361      0.1787
     25  C        159.9910  183.8990   76.1520 C.2   361  HIS361      0.2620
     26  O        160.8320  183.2730   76.8170 O.2   361  HIS361     -0.2715
     27  CB       160.2750  183.6370   73.6640 C.3   361  HIS361      0.0785
     28  CG       160.4510  184.3320   72.3540 C.ar  361  HIS361      0.0821
     29  ND1      159.6840  185.4130   71.9860 N.ar  361  HIS361     -0.2267
     30  CD2      161.3160  184.1180   71.3360 C.ar  361  HIS361      0.1154
     31  CE1      160.0680  185.8350   70.7940 C.ar  361  HIS361      0.1986
     32  NE2      161.0590  185.0640   70.3760 N.ar  361  HIS361     -0.2212
     33  N        158.7190  184.0670   76.5090 N.am  362  ARG362     -0.1963
     34  CA       158.1270  183.4070   77.6530 C.3   362  ARG362      0.1729
     35  C        156.8590  182.6840   77.2010 C.2   362  ARG362      0.2616
     36  O        156.5950  182.5740   75.9910 O.2   362  ARG362     -0.2715
     37  CB       157.8470  184.4430   78.7490 C.3   362  ARG362      0.0348
     38  CG       159.1020  185.1880   79.1700 C.3   362  ARG362      0.0492
     39  CD       159.1730  185.4130   80.6550 C.3   362  ARG362      0.2205
     40  NE       160.3870  186.1340   81.0440 N.pl3 362  ARG362     -0.0865
     41  CZ       161.4340  185.6380   81.7100 C.cat 362  ARG362      0.5346
     42  NH1      161.4880  184.3630   82.0760 N.pl3 362  ARG362      0.1354
     43  NH2      162.4560  186.4400   82.0170 N.pl3 362  ARG362      0.1354
     44  N        156.1000  182.1680   78.1580 N.am  363  LYS363     -0.1977
     45  CA       154.9090  181.3940   77.8530 C.3   363  LYS363      0.1596
     46  C        153.7820  182.3070   77.4080 C.2   363  LYS363      0.2287
     47  O        153.1400  182.9480   78.2270 O.2   363  LYS363     -0.2864
     48  CB       154.4830  180.5460   79.0510 C.3   363  LYS363      0.0298
     49  CG       153.4730  179.4810   78.6990 C.3   363  LYS363      0.0038
     50  CD       153.2260  178.6040   79.9210 C.3   363  LYS363      0.0206
     51  CE       152.0870  177.6210   79.7150 C.3   363  LYS363      0.1093
     52  NZ       152.4030  176.2810   80.3150 N.3   363  LYS363     -0.1314
     53  N        164.0680  174.5000   74.1770 N.3   429  HIS429     -0.1226
     54  CA       164.8820  173.7720   75.1630 C.3   429  HIS429      0.1752
     55  C        164.1340  172.5960   75.7970 C.2   429  HIS429      0.2595
     56  O        164.7650  171.7270   76.3760 O.2   429  HIS429     -0.2718
     57  CB       165.4740  174.7170   76.2220 C.3   429  HIS429      0.0759
     58  CG       164.6550  174.8500   77.4620 C.ar  429  HIS429      0.0818
     59  ND1      163.4490  175.5180   77.4870 N.ar  429  HIS429     -0.2268
     60  CD2      164.8780  174.4250   78.7310 C.ar  429  HIS429      0.1154
     61  CE1      162.9600  175.4880   78.7160 C.ar  429  HIS429      0.1986
     62  NE2      163.8000  174.8240   79.4860 N.ar  429  HIS429     -0.2212
     63  N        162.8050  172.5970   75.7020 N.am  430  GLU430     -0.1979
     64  CA       161.9710  171.4870   76.1390 C.3   430  GLU430      0.1602
     65  C        160.8680  171.2980   75.1210 C.2   430  GLU430      0.2287
     66  O        160.4380  172.2530   74.4910 O.2   430  GLU430     -0.2864
     67  CB       161.3200  171.7500   77.5200 C.3   430  GLU430      0.0415
     68  CG       162.2840  171.8850   78.6950 C.3   430  GLU430      0.1163
     69  CD       163.0270  170.6020   79.0600 C.2   430  GLU430      0.3649
     70  OE1      162.6990  169.5320   78.5070 O.co2 430  GLU430     -0.2457
     71  OE2      163.9530  170.6710   79.9080 O.co2 430  GLU430     -0.2457
     72  N        157.6940  170.6390   75.6270 N.3   432  THR432     -0.1203
     73  CA       156.4750  171.3530   76.0190 C.3   432  THR432      0.1994
     74  C        156.5210  172.8370   75.6380 C.2   432  THR432      0.2617
     75  O        155.4960  173.4260   75.3100 O.2   432  THR432     -0.2717
     76  CB       156.2200  171.2240   77.5420 C.3   432  THR432      0.1784
     77  OG1      156.1460  169.8350   77.8910 O.3   432  THR432     -0.2211
     78  CG2      154.9160  171.8940   77.9430 C.3   432  THR432      0.0376
     79  N        157.7070  173.4310   75.6880 N.am  433  GLU433     -0.1979
     80  CA       157.9100  174.8240   75.2890 C.3   433  GLU433      0.1602
     81  C        157.5380  175.0200   73.8210 C.2   433  GLU433      0.2287
     82  O        156.8640  175.9830   73.4870 O.2   433  GLU433     -0.2864
     83  CB       159.3690  175.2160   75.5130 C.3   433  GLU433      0.0415
     84  CG       159.7000  176.6770   75.2680 C.3   433  GLU433      0.1163
     85  CD       161.0640  177.0340   75.8230 C.2   433  GLU433      0.3649
     86  OE1      162.0400  176.3640   75.4410 O.co2 433  GLU433     -0.2457
     87  OE2      161.1480  177.9720   76.6630 O.co2 433  GLU433     -0.2457
     88  N        153.7370  174.7340   73.5180 N.3   436  ASN436     -0.1240
     89  CA       153.1100  175.9620   73.9840 C.3   436  ASN436      0.1653
     90  C        153.2810  177.0970   72.9710 C.2   436  ASN436      0.2266
     91  O        152.3590  177.8840   72.7530 O.2   436  ASN436     -0.2867
     92  CB       153.6780  176.3700   75.3500 C.3   436  ASN436      0.1155
     93  CG       153.2290  175.4660   76.4640 C.2   436  ASN436      0.2627
     94  OD1      152.2090  174.7960   76.3560 O.2   436  ASN436     -0.2716
     95  ND2      153.9830  175.4480   77.5430 N.am  436  ASN436     -0.0877
@<TRIPOS>BOND
     1    32    31   ar
     2    32    30   ar
     3    31    29   ar
     4    30    28   ar
     5     8    10   ar
     6     8     6   ar
     7     1     2    1
     8    10    11   ar
     9     4     3    2
    10    29    28   ar
    11    28    27    1
    12     5     6    1
    13     5     2    1
    14     6     7   ar
    15     2     3    1
    16    11     9   ar
    17    91    90    2
    18    90    89    1
    19    82    81    2
    20    88    89    1
    21    27    24    1
    22     7     9   ar
    23    81    80    1
    24    89    92    1
    25    53    54    1
    26    66    65    2
    27    12    13    1
    28    24    23    1
    29    24    25    1
    30    23    14   am
    31    65    64    1
    32    54    55    1
    33    54    57    1
    34    84    83    1
    35    84    85    1
    36    80    83    1
    37    80    79    1
    38    75    74    2
    39    13    14    1
    40    13    16    1
    41    92    93    1
    42    86    85   ar
    43    14    15    2
    44    72    73    1
    45    74    79   am
    46    74    73    1
    47    63    55   am
    48    63    64    1
    49    55    56    2
    50    85    87   ar
    51    36    35    2
    52    73    76    1
    53    64    67    1
    54    25    33   am
    55    25    26    2
    56    57    58    1
    57    94    93    2
    58    93    95   am
    59    33    34    1
    60    16    17    1
    61    35    34    1
    62    35    44   am
    63    46    45    1
    64    46    47    2
    65    58    59   ar
    66    58    60   ar
    67    59    61   ar
    68    17    18    1
    69    67    68    1
    70    76    77    1
    71    76    78    1
    72    34    37    1
    73    45    44    1
    74    45    48    1
    75    18    19    1
    76    70    69   ar
    77    68    69    1
    78    49    48    1
    79    49    50    1
    80    61    62   ar
    81    60    62   ar
    82    37    38    1
    83    19    20    2
    84    69    71   ar
    85    38    39    1
    86    51    50    1
    87    51    52    1
    88    20    21    1
    89    20    22    1
    90    39    40    1
    91    40    41    2
    92    41    43    1
    93    41    42    1
