@<TRIPOS>MOLECULE
tmp/6b0lC00.pdb
 164 161 0 0 0
SMALL
GASTEIGER

@<TRIPOS>ATOM
      1  N        120.2360  205.4840  264.0240 N.3    39  ARG39      -0.1231
      2  CA       119.0320  206.1420  263.5320 C.3    39  ARG39       0.1694
      3  C        119.4070  207.4730  262.8970 C.2    39  ARG39       0.2592
      4  O        119.9590  208.3520  263.5650 O.2    39  ARG39      -0.2718
      5  CB       117.9980  206.3610  264.6430 C.3    39  ARG39       0.0321
      6  CG       116.6330  206.7480  264.0810 C.3    39  ARG39       0.0489
      7  CD       115.5300  206.8990  265.1250 C.3    39  ARG39       0.2205
      8  NE       115.5650  208.1360  265.9050 N.pl3  39  ARG39      -0.0865
      9  CZ       114.7180  208.4330  266.8910 C.cat  39  ARG39       0.5346
     10  NH1      113.7390  207.5900  267.2200 N.pl3  39  ARG39       0.1354
     11  NH2      114.8140  209.5890  267.5350 N.pl3  39  ARG39       0.1354
     12  N        119.0740  207.6220  261.6180 N.am   40  LYS40      -0.1966
     13  CA       119.4350  208.7900  260.8280 C.3    40  LYS40       0.1728
     14  C        118.2700  209.7720  260.7710 C.2    40  LYS40       0.2616
     15  O        117.1220  209.4140  261.0440 O.2    40  LYS40      -0.2715
     16  CB       119.8400  208.3350  259.4240 C.3    40  LYS40       0.0311
     17  CG       120.2370  209.4190  258.4480 C.3    40  LYS40       0.0038
     18  CD       120.7580  208.8090  257.1670 C.3    40  LYS40       0.0206
     19  CE       121.0910  209.8700  256.1500 C.3    40  LYS40       0.1093
     20  NZ       121.5690  209.2580  254.8810 N.3    40  LYS40      -0.1314
     21  N        118.5980  211.1270  260.4020 N.am   41  ARG41      -0.1964
     22  CA       117.5180  212.0960  260.2700 C.3    41  ARG41       0.1714
     23  C        117.0490  212.1710  258.8160 C.2    41  ARG41       0.2458
     24  O        117.8430  211.9470  257.8960 O.2    41  ARG41      -0.2730
     25  CB       117.9630  213.4830  260.7490 C.3    41  ARG41       0.0347
     26  CG       119.1170  214.1490  259.9910 C.3    41  ARG41       0.0492
     27  CD       118.6370  215.0190  258.8360 C.3    41  ARG41       0.2205
     28  NE       119.6690  215.9260  258.3440 N.pl3  41  ARG41      -0.0865
     29  CZ       119.5380  216.7110  257.2730 C.cat  41  ARG41       0.5346
     30  NH1      118.4250  216.6960  256.5450 N.pl3  41  ARG41       0.1354
     31  NH2      120.5390  217.5010  256.9130 N.pl3  41  ARG41       0.1354
     32  N        115.7730  212.4660  258.5490 N.am   42  PRO42      -0.2727
     33  CA       115.3010  212.4670  257.1600 C.3    42  PRO42       0.1402
     34  C        115.9410  213.5640  256.3260 C.2    42  PRO42       0.2269
     35  O        116.3380  214.6190  256.8220 O.2    42  PRO42      -0.2865
     36  CB       113.7930  212.7030  257.2910 C.3    42  PRO42       0.0296
     37  CG       113.4610  212.3080  258.6610 C.3    42  PRO42       0.0237
     38  CD       114.6490  212.6520  259.4840 C.3    42  PRO42       0.0939
     39  N        111.1060  206.8030  261.7700 N.3    95  ASP95      -0.1239
     40  CA       111.1840  207.4130  263.0890 C.3    95  ASP95       0.1674
     41  C        109.7920  207.5460  263.6940 C.2    95  ASP95       0.2266
     42  O        109.1130  208.5550  263.4860 O.2    95  ASP95      -0.2867
     43  CB       111.8700  208.7810  263.0150 C.3    95  ASP95       0.1410
     44  CG       112.2040  209.3450  264.3880 C.2    95  ASP95       0.3668
     45  OD1      111.8930  208.6910  265.4060 O.co2  95  ASP95      -0.2456
     46  OD2      112.7800  210.4510  264.4500 O.co2  95  ASP95      -0.2456
     47  N        126.8840  213.3210  264.6090 N.3   124  GLN124     -0.1231
     48  CA       127.4560  214.5250  264.0270 C.3   124  GLN124      0.1698
     49  C        126.5090  215.7120  264.2010 C.2   124  GLN124      0.2593
     50  O        125.3000  215.5550  264.3930 O.2   124  GLN124     -0.2718
     51  CB       127.7640  214.2980  262.5420 C.3   124  GLN124      0.0381
     52  CG       128.4430  215.4710  261.8400 C.3   124  GLN124      0.0905
     53  CD       128.8640  215.1580  260.4260 C.2   124  GLN124      0.2608
     54  OE1      128.6970  214.0390  259.9450 O.2   124  GLN124     -0.2717
     55  NE2      129.3940  216.1620  259.7380 N.am  124  GLN124     -0.0878
     56  N        127.0890  216.9090  264.1540 N.am  125  THR125     -0.1939
     57  CA       126.3230  218.1480  264.1410 C.3   125  THR125      0.2028
     58  C        125.3070  218.1340  263.0100 C.2   125  THR125      0.2643
     59  O        125.6240  217.7570  261.8780 O.2   125  THR125     -0.2714
     60  CB       127.2730  219.3360  263.9830 C.3   125  THR125      0.1808
     61  OG1      128.2340  219.3320  265.0460 O.3   125  THR125     -0.2208
     62  CG2      126.5080  220.6470  264.0090 C.3   125  THR125      0.0379
     63  N        124.0820  218.5470  263.3200 N.am  126  GLY126     -0.1939
     64  CA       123.0140  218.5500  262.3440 C.3   126  GLY126      0.2014
     65  C        122.5240  217.1820  261.9350 C.2   126  GLY126      0.2640
     66  O        121.7660  217.0800  260.9630 O.2   126  GLY126     -0.2714
     67  N        122.9310  216.1270  262.6380 N.am  127  SER127     -0.1935
     68  CA       122.4910  214.7730  262.3420 C.3   127  SER127      0.2055
     69  C        121.1840  214.4090  263.0380 C.2   127  SER127      0.2644
     70  O        120.7330  213.2650  262.9160 O.2   127  SER127     -0.2714
     71  CB       123.5820  213.7780  262.7370 C.3   127  SER127      0.2130
     72  OG       123.7670  213.7560  264.1400 O.3   127  SER127     -0.2179
     73  N        120.5690  215.3440  263.7620 N.am  128  GLY128     -0.1939
     74  CA       119.2760  215.0920  264.3670 C.3   128  GLY128      0.2014
     75  C        119.3120  214.4470  265.7300 C.2   128  GLY128      0.2639
     76  O        118.3190  213.8370  266.1340 O.2   128  GLY128     -0.2714
     77  N        120.4200  214.5720  266.4640 N.am  129  LYS129     -0.1963
     78  CA       120.5390  213.8730  267.7350 C.3   129  LYS129      0.1728
     79  C        119.9440  214.6550  268.8980 C.2   129  LYS129      0.2617
     80  O        119.5100  214.0390  269.8780 O.2   129  LYS129     -0.2715
     81  CB       122.0020  213.5210  268.0130 C.3   129  LYS129      0.0311
     82  CG       122.9510  214.6680  268.1970 C.3   129  LYS129      0.0038
     83  CD       124.3360  214.0930  268.4250 C.3   129  LYS129      0.0206
     84  CE       125.3880  215.1570  268.6290 C.3   129  LYS129      0.1093
     85  NZ       126.7110  214.5270  268.8620 N.3   129  LYS129     -0.1314
     86  N        119.9000  215.9860  268.8190 N.am  130  THR130     -0.1937
     87  CA       119.0890  216.7330  269.7730 C.3   130  THR130      0.2028
     88  C        117.6110  216.4260  269.5850 C.2   130  THR130      0.2642
     89  O        116.8260  216.5400  270.5340 O.2   130  THR130     -0.2714
     90  CB       119.3330  218.2340  269.6340 C.3   130  THR130      0.1808
     91  OG1      119.0570  218.6470  268.2930 O.3   130  THR130     -0.2208
     92  CG2      120.7620  218.5890  270.0030 C.3   130  THR130      0.0379
     93  N        117.2190  216.0360  268.3720 N.am  131  HIS131     -0.1959
     94  CA       115.8760  215.5660  268.0790 C.3   131  HIS131      0.1787
     95  C        115.6800  214.0970  268.4650 C.2   131  HIS131      0.2620
     96  O        114.5830  213.5550  268.2800 O.2   131  HIS131     -0.2715
     97  CB       115.5820  215.7850  266.5890 C.3   131  HIS131      0.0785
     98  CG       114.1550  215.5520  266.1980 C.ar  131  HIS131      0.0821
     99  ND1      113.6770  214.3150  265.8210 N.ar  131  HIS131     -0.2267
    100  CD2      113.1030  216.4000  266.1210 C.ar  131  HIS131      0.1154
    101  CE1      112.3920  214.4120  265.5290 C.ar  131  HIS131      0.1986
    102  NE2      112.0190  215.6670  265.7030 N.ar  131  HIS131     -0.2212
    103  N        116.7040  213.4570  269.0310 N.am  132  THR132     -0.1951
    104  CA       116.7020  212.0190  269.2580 C.3   132  THR132      0.1897
    105  C        116.6650  211.6290  270.7260 C.2   132  THR132      0.2313
    106  O        116.1490  210.5590  271.0490 O.2   132  THR132     -0.2863
    107  CB       117.9360  211.3940  268.6070 C.3   132  THR132      0.1794
    108  OG1      117.9400  211.6690  267.2020 O.3   132  THR132     -0.2208
    109  CG2      117.9390  209.8990  268.8090 C.3   132  THR132      0.0378
    110  N        109.5060  214.9920  270.1310 N.3   137  PHE137     -0.1227
    111  CA       109.3350  214.4040  268.8030 C.3   137  PHE137      0.1736
    112  C        108.1400  215.0520  268.1090 C.2   137  PHE137      0.2595
    113  O        107.0150  214.5570  268.1750 O.2   137  PHE137     -0.2718
    114  CB       109.1610  212.8920  268.9030 C.3   137  PHE137      0.0547
    115  CG       108.9330  212.2210  267.5760 C.ar  137  PHE137     -0.0202
    116  CD1      109.9810  212.0190  266.6940 C.ar  137  PHE137     -0.0042
    117  CD2      107.6660  211.7980  267.2070 C.ar  137  PHE137     -0.0042
    118  CE1      109.7660  211.4060  265.4740 C.ar  137  PHE137     -0.0003
    119  CE2      107.4490  211.1890  265.9900 C.ar  137  PHE137     -0.0003
    120  CZ       108.4990  210.9940  265.1250 C.ar  137  PHE137     -0.0000
    121  N        108.3840  216.1960  267.4700 N.am  138  ASN138     -0.1960
    122  CA       107.5160  216.6520  266.3890 C.3   138  ASN138      0.1819
    123  C        108.3290  217.1270  265.1880 C.2   138  ASN138      0.2622
    124  O        107.8540  217.0640  264.0490 O.2   138  ASN138     -0.2715
    125  CB       106.5760  217.7650  266.8610 C.3   138  ASN138      0.1195
    126  CG       107.3070  219.0040  267.3320 C.2   138  ASN138      0.2630
    127  OD1      108.5370  219.0620  267.3470 O.2   138  ASN138     -0.2716
    128  ND2      106.5410  220.0270  267.6780 N.am  138  ASN138     -0.0877
    129  N        109.5510  217.6020  265.4270 N.am  139  GLY139     -0.1940
    130  CA       110.3840  218.1310  264.3730 C.3   139  GLY139      0.2014
    131  C        110.0290  219.5270  263.9140 C.2   139  GLY139      0.2638
    132  O        110.6420  220.0150  262.9550 O.2   139  GLY139     -0.2714
    133  N        109.0670  220.1870  264.5650 N.am  140  LYS140     -0.1977
    134  CA       108.6170  221.5170  264.1750 C.3   140  LYS140      0.1596
    135  C        108.9510  222.5720  265.2220 C.2   140  LYS140      0.2287
    136  O        109.6780  223.5270  264.9330 O.2   140  LYS140     -0.2864
    137  CB       107.1020  221.4890  263.9530 C.3   140  LYS140      0.0298
    138  CG       106.6410  220.6250  262.8100 C.3   140  LYS140      0.0038
    139  CD       105.1320  220.6820  262.7070 C.3   140  LYS140      0.0206
    140  CE       104.6080  219.8200  261.5730 C.3   140  LYS140      0.1093
    141  NZ       103.1220  219.8700  261.4930 N.3   140  LYS140     -0.1314
    142  N        109.2460  221.4420  268.8240 N.3   142  GLN142     -0.1245
    143  CA       109.5580  220.6970  270.0450 C.3   142  GLN142      0.1566
    144  C        108.3930  220.7640  271.0370 C.2   142  GLN142      0.2260
    145  O        108.4910  221.3340  272.1250 O.2   142  GLN142     -0.2867
    146  CB       110.8590  221.2070  270.6740 C.3   142  GLN142      0.0367
    147  CG       112.0750  220.9660  269.8110 C.3   142  GLN142      0.0905
    148  CD       113.3450  221.4830  270.4450 C.2   142  GLN142      0.2608
    149  OE1      113.3190  222.0830  271.5190 O.2   142  GLN142     -0.2717
    150  NE2      114.4680  221.2510  269.7820 N.am  142  GLN142     -0.0878
    151  N        128.5840  226.1000  267.9500 N.3   239  ASN239     -0.1225
    152  CA       128.4500  224.6410  267.8240 C.3   239  ASN239      0.1785
    153  C        127.4020  224.0450  268.7830 C.2   239  ASN239      0.2597
    154  O        127.7250  223.1210  269.5290 O.2   239  ASN239     -0.2718
    155  CB       129.8080  223.9780  268.0560 C.3   239  ASN239      0.1169
    156  CG       130.8270  224.3540  267.0000 C.2   239  ASN239      0.2627
    157  OD1      131.8120  225.0350  267.2860 O.2   239  ASN239     -0.2716
    158  ND2      130.6000  223.9030  265.7720 N.am  239  ASN239     -0.0877
    159  N        126.1550  224.5360  268.8120 N.am  240  SER240     -0.1952
    160  CA       125.6080  225.6730  268.0730 C.3   240  SER240      0.1924
    161  C        125.6080  226.8130  269.0680 C.2   240  SER240      0.2314
    162  O        126.2150  227.8630  268.8560 O.2   240  SER240     -0.2863
    163  CB       124.2000  225.3770  267.5660 C.3   240  SER240      0.2116
    164  OG       123.2960  225.2230  268.6460 O.3   240  SER240     -0.2180
@<TRIPOS>BOND
     1    20    19    1
     2    19    18    1
     3    34    35    2
     4    34    33    1
     5    30    29    1
     6    31    29    1
     7    33    36    1
     8    33    32    1
     9    18    17    1
    10    29    28    2
    11    36    37    1
    12    24    23    2
    13    28    27    1
    14    17    16    1
    15    32    23   am
    16    32    38    1
    17    37    38    1
    18    23    22    1
    19    27    26    1
    20    16    13    1
    21    55    53   am
    22    54    53    2
    23    26    25    1
    24    22    21    1
    25    22    25    1
    26    21    14   am
    27    53    52    1
    28    14    13    1
    29    14    15    2
    30    13    12    1
    31    66    65    2
    32   141   140    1
    33   140   139    1
    34    12     3   am
    35    39    40    1
    36    52    51    1
    37    59    58    2
    38    65    64    1
    39    65    67   am
    40    68    67    1
    41    68    71    1
    42    68    69    1
    43    64    63    1
    44    51    48    1
    45   139   138    1
    46    71    72    1
    47   138   137    1
    48     3     2    1
    49     3     4    2
    50    70    69    2
    51   132   131    2
    52    58    63   am
    53    58    57    1
    54    43    40    1
    55    43    44    1
    56    69    73   am
    57    40    41    1
    58    42    41    2
    59     2     1    1
    60     2     5    1
    61    73    74    1
    62   131   130    1
    63   131   133   am
    64   137   134    1
    65    60    62    1
    66    60    57    1
    67    60    61    1
    68    48    49    1
    69    48    47    1
    70   124   123    2
    71     6     5    1
    72     6     7    1
    73    57    56    1
    74    56    49   am
    75   134   133    1
    76   134   135    1
    77    49    50    2
    78    74    75    1
    79   130   129    1
    80    44    46   ar
    81    44    45   ar
    82   136   135    2
    83   120   118   ar
    84   120   119   ar
    85     7     8    1
    86   123   129   am
    87   123   122    1
    88   118   116   ar
    89   101   102   ar
    90   101    99   ar
    91   102   100   ar
    92    75    76    2
    93    75    77   am
    94   158   156   am
    95    99    98   ar
    96     8     9    2
    97   119   117   ar
    98   100    98   ar
    99    98    97    1
   100   122   125    1
   101   122   121    1
   102    77    78    1
   103    97    94    1
   104   116   115   ar
   105   125   126    1
   106     9    10    1
   107     9    11    1
   108   156   157    2
   109   156   155    1
   110   108   107    1
   111   117   115   ar
   112   126   127    2
   113   126   128   am
   114   121   112   am
   115   163   160    1
   116   163   164    1
   117   115   114    1
   118    78    81    1
   119    78    79    1
   120   152   151    1
   121   152   155    1
   122   152   153    1
   123    81    82    1
   124   160   159    1
   125   160   161    1
   126    94    93    1
   127    94    95    1
   128   112   113    2
   129   112   111    1
   130    82    83    1
   131    96    95    2
   132    91    90    1
   133    93    88   am
   134    83    84    1
   135    95   103   am
   136   107   109    1
   137   107   104    1
   138    84    85    1
   139   153   159   am
   140   153   154    2
   141   111   114    1
   142   111   110    1
   143    86    79   am
   144    86    87    1
   145   142   143    1
   146   162   161    2
   147    79    80    2
   148   103   104    1
   149   104   105    1
   150    88    87    1
   151    88    89    2
   152    90    87    1
   153    90    92    1
   154   150   148   am
   155   147   148    1
   156   147   146    1
   157   143   146    1
   158   143   144    1
   159   148   149    2
   160   105   106    2
   161   144   145    2
