@<TRIPOS>MOLECULE
tmp/6b0nC11.pdb
 81 79 0 0 0
SMALL
GASTEIGER

@<TRIPOS>ATOM
      1  N         54.1650  228.8530  -24.1200 N.3   170  PRO170     -0.2116
      2  CA        54.4380  229.4160  -22.7910 C.3   170  PRO170      0.1372
      3  C         54.1900  228.3850  -21.7000 C.2   170  PRO170      0.2244
      4  O         53.1710  227.6910  -21.6990 O.2   170  PRO170     -0.2868
      5  CB        53.4570  230.5910  -22.6920 C.3   170  PRO170      0.0268
      6  CG        53.0250  230.8640  -24.1020 C.3   170  PRO170      0.0207
      7  CD        53.0400  229.5320  -24.7800 C.3   170  PRO170      0.0892
      8  N         53.1100  234.9890  -22.1440 N.3   212  VAL212     -0.1231
      9  CA        52.3850  234.9860  -23.4080 C.3   212  VAL212      0.1692
     10  C         52.5260  236.3630  -24.0380 C.2   212  VAL212      0.2591
     11  O         52.0530  237.3620  -23.4790 O.2   212  VAL212     -0.2718
     12  CB        50.9070  234.6190  -23.2110 C.3   212  VAL212      0.0266
     13  CG1       50.1840  234.6220  -24.5470 C.3   212  VAL212      0.0020
     14  CG2       50.7830  233.2670  -22.5340 C.3   212  VAL212      0.0020
     15  N         53.1730  236.4160  -25.2000 N.am  213  VAL213     -0.1980
     16  CA        53.3010  237.6600  -25.9510 C.3   213  VAL213      0.1595
     17  C         51.9730  237.9210  -26.6580 C.2   213  VAL213      0.2287
     18  O         51.5640  237.1670  -27.5410 O.2   213  VAL213     -0.2864
     19  CB        54.4690  237.6060  -26.9430 C.3   213  VAL213      0.0276
     20  CG1       55.7760  237.8740  -26.2200 C.3   213  VAL213      0.0022
     21  CG2       54.5160  236.2510  -27.6360 C.3   213  VAL213      0.0022
     22  N         46.4020  237.0060  -23.0490 N.3   219  LEU219     -0.1231
     23  CA        45.9320  235.6190  -23.2780 C.3   219  LEU219      0.1693
     24  C         46.3190  234.7110  -22.1120 C.2   219  LEU219      0.2592
     25  O         47.4460  234.8330  -21.6220 O.2   219  LEU219     -0.2718
     26  CB        46.6060  235.1060  -24.5490 C.3   219  LEU219      0.0284
     27  CG        46.2120  235.8080  -25.8420 C.3   219  LEU219      0.0019
     28  CD1       46.4560  234.8900  -27.0250 C.3   219  LEU219      0.0001
     29  CD2       44.7530  236.2070  -25.7950 C.3   219  LEU219      0.0001
     30  N         45.4170  233.8350  -21.7050 N.am  220  ASN220     -0.1974
     31  CA        45.7110  232.8480  -20.6620 C.3   220  ASN220      0.1688
     32  C         46.3030  233.5030  -19.4140 C.2   220  ASN220      0.2292
     33  O         47.2690  233.0080  -18.8280 O.2   220  ASN220     -0.2864
     34  CB        46.6310  231.7470  -21.1920 C.3   220  ASN220      0.1181
     35  CG        45.9990  230.9610  -22.3220 C.2   220  ASN220      0.2629
     36  OD1       44.7790  230.9800  -22.4980 O.2   220  ASN220     -0.2716
     37  ND2       46.8240  230.2580  -23.0910 N.am  220  ASN220     -0.0877
     38  N         49.6710  237.5000  -32.0430 N.3   333  PHE333     -0.1227
     39  CA        49.9100  236.4320  -31.0870 C.3   333  PHE333      0.1736
     40  C         50.4580  235.2220  -31.8260 C.2   333  PHE333      0.2595
     41  O         50.2840  235.0760  -33.0370 O.2   333  PHE333     -0.2718
     42  CB        48.6350  236.0590  -30.3240 C.3   333  PHE333      0.0547
     43  CG        47.6450  235.2940  -31.1430 C.ar  333  PHE333     -0.0202
     44  CD1       46.7580  235.9580  -31.9700 C.ar  333  PHE333     -0.0042
     45  CD2       47.6060  233.9100  -31.0930 C.ar  333  PHE333     -0.0042
     46  CE1       45.8460  235.2570  -32.7320 C.ar  333  PHE333     -0.0003
     47  CE2       46.6970  233.2020  -31.8530 C.ar  333  PHE333     -0.0003
     48  CZ        45.8160  233.8780  -32.6750 C.ar  333  PHE333     -0.0000
     49  N         51.1240  234.3510  -31.0800 N.am  334  ASN334     -0.1960
     50  CA        51.7010  233.1360  -31.6310 C.3   334  ASN334      0.1819
     51  C         50.8220  231.9410  -31.2890 C.2   334  ASN334      0.2621
     52  O         50.2180  231.8880  -30.2140 O.2   334  ASN334     -0.2715
     53  CB        53.1160  232.9120  -31.0980 C.3   334  ASN334      0.1195
     54  CG        53.6760  231.5630  -31.4890 C.2   334  ASN334      0.2630
     55  OD1       53.5700  230.5930  -30.7390 O.2   334  ASN334     -0.2716
     56  ND2       54.2690  231.4900  -32.6750 N.am  334  ASN334     -0.0877
     57  N         50.7500  230.9840  -32.2110 N.am  335  CYS335     -0.1968
     58  CA        49.9950  229.7600  -31.9750 C.3   335  CYS335      0.1712
     59  C         50.4960  228.6720  -32.9100 C.2   335  CYS335      0.2296
     60  O         50.6400  228.9030  -34.1140 O.2   335  CYS335     -0.2864
     61  CB        48.4970  229.9760  -32.1870 C.3   335  CYS335      0.0983
     62  SG        47.6190  228.4360  -32.5220 S.3   335  CYS335     -0.0798
     63  N         43.7560  226.9570  -32.5650 N.3   392  CYS392     -0.1221
     64  CA        44.1440  227.6790  -31.3600 C.3   392  CYS392      0.1808
     65  C         42.8580  227.9310  -30.5890 C.2   392  CYS392      0.2601
     66  O         41.8330  228.2750  -31.1850 O.2   392  CYS392     -0.2717
     67  CB        44.7610  229.0400  -31.7020 C.3   392  CYS392      0.0970
     68  SG        45.7910  229.0380  -33.1850 S.3   392  CYS392     -0.0800
     69  N         42.9160  227.7630  -29.2690 N.am  393  VAL393     -0.1965
     70  CA        41.8220  228.0810  -28.3610 C.3   393  VAL393      0.1727
     71  C         42.4910  228.5830  -27.0860 C.2   393  VAL393      0.2616
     72  O         43.2950  227.8650  -26.4810 O.2   393  VAL393     -0.2715
     73  CB        40.8730  226.9010  -28.0960 C.3   393  VAL393      0.0290
     74  CG1       40.1720  226.4900  -29.3790 C.3   393  VAL393      0.0023
     75  CG2       41.6410  225.7180  -27.5150 C.3   393  VAL393      0.0023
     76  N         42.2110  229.8280  -26.7110 N.am  394  SER394     -0.1950
     77  CA        42.8660  230.4500  -25.5720 C.3   394  SER394      0.1924
     78  C         41.7570  231.1880  -24.8380 C.2   394  SER394      0.2314
     79  O         40.5990  231.2090  -25.2680 O.2   394  SER394     -0.2863
     80  CB        43.9500  231.4320  -26.0340 C.3   394  SER394      0.2116
     81  OG        45.0470  230.7450  -26.6080 O.3   394  SER394     -0.2180
@<TRIPOS>BOND
     1    60    59    2
     2    68    62    1
     3    68    67    1
     4    41    40    2
     5    59    58    1
     6    46    48   ar
     7    46    44   ar
     8    48    47   ar
     9    56    54   am
    10    63    64    1
    11    62    61    1
    12    57    58    1
    13    57    51   am
    14    61    58    1
    15    38    39    1
    16    44    43   ar
    17    47    45   ar
    18    40    39    1
    19    40    49   am
    20    67    64    1
    21    50    51    1
    22    50    53    1
    23    50    49    1
    24    54    53    1
    25    54    55    2
    26    64    65    1
    27    51    52    2
    28    66    65    2
    29    43    45   ar
    30    43    42    1
    31    39    42    1
    32    65    69   am
    33    74    73    1
    34    69    70    1
    35    70    73    1
    36    70    71    1
    37    73    75    1
    38    21    19    1
    39    18    17    2
    40    71    76   am
    41    71    72    2
    42    28    27    1
    43    19    20    1
    44    19    16    1
    45    76    77    1
    46    17    16    1
    47    81    80    1
    48    80    77    1
    49    16    15    1
    50    27    29    1
    51    27    26    1
    52    77    78    1
    53    79    78    2
    54    15    10   am
    55     7     1    1
    56     7     6    1
    57    26    23    1
    58    13    12    1
    59     1     2    1
    60     6     5    1
    61    10    11    2
    62    10     9    1
    63     9    12    1
    64     9     8    1
    65    23    22    1
    66    23    24    1
    67    12    14    1
    68    37    35   am
    69     2     5    1
    70     2     3    1
    71    36    35    2
    72    35    34    1
    73    24    30   am
    74    24    25    2
    75    30    31    1
    76     3     4    2
    77    34    31    1
    78    31    32    1
    79    32    33    2
