@<TRIPOS>MOLECULE
tmp/6b0nC16.pdb
 88 82 0 0 0
SMALL
GASTEIGER

@<TRIPOS>ATOM
      1  N         38.7620  231.0250  -30.5880 N.3   253  ASN253     -0.1225
      2  CA        39.1430  229.9220  -31.4620 C.3   253  ASN253      0.1785
      3  C         39.8050  230.4880  -32.7090 C.2   253  ASN253      0.2597
      4  O         39.1570  231.1860  -33.4940 O.2   253  ASN253     -0.2718
      5  CB        37.9280  229.0730  -31.8460 C.3   253  ASN253      0.1169
      6  CG        37.3060  228.3700  -30.6580 C.2   253  ASN253      0.2627
      7  OD1       37.9060  228.2850  -29.5870 O.2   253  ASN253     -0.2716
      8  ND2       36.1000  227.8470  -30.8460 N.am  253  ASN253     -0.0877
      9  N         41.0850  230.1800  -32.8950 N.am  254  CYS254     -0.1956
     10  CA        41.8430  230.6180  -34.0580 C.3   254  CYS254      0.1843
     11  C         42.3690  229.4070  -34.8150 C.2   254  CYS254      0.2626
     12  O         42.7430  228.3980  -34.2080 O.2   254  CYS254     -0.2714
     13  CB        43.0120  231.5220  -33.6530 C.3   254  CYS254      0.0997
     14  SG        42.5550  233.0590  -32.8190 S.3   254  CYS254     -0.0797
     15  N         42.3940  229.5140  -36.1440 N.am  255  THR255     -0.1950
     16  CA        42.8540  228.4350  -37.0060 C.3   255  THR255      0.1897
     17  C         43.6050  229.0140  -38.1940 C.2   255  THR255      0.2313
     18  O         43.4540  230.1870  -38.5440 O.2   255  THR255     -0.2863
     19  CB        41.6950  227.5690  -37.5230 C.3   255  THR255      0.1794
     20  OG1       40.6420  228.4150  -38.0010 O.3   255  THR255     -0.2208
     21  CG2       41.1630  226.6580  -36.4320 C.3   255  THR255      0.0378
     22  N         42.2160  229.4160  -47.9570 N.3   284  ARG284     -0.1245
     23  CA        41.3430  230.1100  -47.0240 C.3   284  ARG284      0.1563
     24  C         42.1610  231.0770  -46.1810 C.2   284  ARG284      0.2260
     25  O         43.3900  230.9790  -46.0970 O.2   284  ARG284     -0.2867
     26  CB        40.5990  229.1260  -46.1120 C.3   284  ARG284      0.0307
     27  CG        39.7850  228.0900  -46.8610 C.3   284  ARG284      0.0489
     28  CD        39.1140  227.1310  -45.9010 C.3   284  ARG284      0.2205
     29  NE        38.3580  227.8380  -44.8730 N.pl3 284  ARG284     -0.0865
     30  CZ        37.7040  227.2370  -43.8860 C.cat 284  ARG284      0.5346
     31  NH1       37.7120  225.9140  -43.7980 N.pl3 284  ARG284      0.1354
     32  NH2       37.0430  227.9550  -42.9870 N.pl3 284  ARG284      0.1354
     33  N         41.4420  232.8100  -39.5410 N.3   287  HIS287     -0.1241
     34  CA        40.3780  233.5380  -38.8680 C.3   287  HIS287      0.1621
     35  C         40.2860  233.1100  -37.4120 C.2   287  HIS287      0.2264
     36  O         40.6170  231.9750  -37.0590 O.2   287  HIS287     -0.2867
     37  CB        39.0280  233.3200  -39.5600 C.3   287  HIS287      0.0745
     38  CG        38.4900  231.9340  -39.4000 C.ar  287  HIS287      0.0817
     39  ND1       39.0810  230.8350  -39.9840 N.ar  287  HIS287     -0.2268
     40  CD2       37.4190  231.4670  -38.7160 C.ar  287  HIS287      0.1154
     41  CE1       38.3950  229.7510  -39.6700 C.ar  287  HIS287      0.1986
     42  NE2       37.3830  230.1070  -38.9000 N.ar  287  HIS287     -0.2212
     43  N         37.4310  233.0630  -34.2180 N.3   289  ASN289     -0.1240
     44  CA        35.9990  233.1090  -33.9440 C.3   289  ASN289      0.1653
     45  C         35.7700  233.2660  -32.4450 C.2   289  ASN289      0.2266
     46  O         36.1950  232.4160  -31.6550 O.2   289  ASN289     -0.2867
     47  CB        35.3060  231.8520  -34.4700 C.3   289  ASN289      0.1155
     48  CG        34.3380  232.1520  -35.5980 C.2   289  ASN289      0.2627
     49  OD1       34.0330  233.3130  -35.8700 O.2   289  ASN289     -0.2716
     50  ND2       33.8480  231.1090  -36.2590 N.am  289  ASN289     -0.0877
     51  N         25.4600  234.1060  -33.0780 N.3   359  ASP359     -0.1225
     52  CA        26.6000  233.7760  -33.9180 C.3   359  ASP359      0.1805
     53  C         27.8710  234.4180  -33.3690 C.2   359  ASP359      0.2598
     54  O         27.8320  235.4210  -32.6530 O.2   359  ASP359     -0.2718
     55  CB        26.3570  234.2330  -35.3580 C.3   359  ASP359      0.1424
     56  CG        27.3920  233.6940  -36.3240 C.2   359  ASP359      0.3668
     57  OD1       27.9710  232.6240  -36.0350 O.co2 359  ASP359     -0.2456
     58  OD2       27.6250  234.3380  -37.3700 O.co2 359  ASP359     -0.2456
     59  N         28.9810  233.7640  -33.6590 N.am  360  SER360     -0.1952
     60  CA        30.3230  234.1840  -33.1890 C.3   360  SER360      0.1924
     61  C         30.8430  235.3420  -34.0330 C.2   360  SER360      0.2314
     62  O         30.2250  235.6350  -35.0580 O.2   360  SER360     -0.2863
     63  CB        31.2660  233.0370  -33.2480 C.3   360  SER360      0.2116
     64  OG        31.5400  232.7220  -34.5970 O.3   360  SER360     -0.2180
     65  N         33.9410  236.8380  -36.3180 N.3   362  THR362     -0.1218
     66  CA        35.0990  236.2540  -37.0380 C.3   362  THR362      0.1862
     67  C         36.1010  237.3560  -37.3850 C.2   362  THR362      0.2287
     68  O         35.6790  238.4450  -37.7850 O.2   362  THR362     -0.2866
     69  CB        34.6300  235.3160  -38.1490 C.3   362  THR362      0.1770
     70  OG1       34.1920  234.1570  -37.4390 O.3   362  THR362     -0.2211
     71  CG2       35.7400  234.9460  -39.1060 C.3   362  THR362      0.0375
     72  N         44.9640  224.5930  -34.9600 N.3   391  ARG391     -0.1231
     73  CA        43.8580  225.2240  -34.2540 C.3   391  ARG391      0.1694
     74  C         44.3700  225.8440  -32.9610 C.2   391  ARG391      0.2592
     75  O         45.2930  225.3240  -32.3290 O.2   391  ARG391     -0.2718
     76  CB        42.7430  224.2180  -33.9360 C.3   391  ARG391      0.0321
     77  CG        42.2110  223.4730  -35.1450 C.3   391  ARG391      0.0489
     78  CD        41.2600  222.3620  -34.7330 C.3   391  ARG391      0.2205
     79  NE        41.9100  221.3870  -33.8620 N.pl3 391  ARG391     -0.0865
     80  CZ        42.6270  220.3560  -34.2990 C.cat 391  ARG391      0.5346
     81  NH1       42.7900  220.1620  -35.6020 N.pl3 391  ARG391      0.1354
     82  NH2       43.1840  219.5190  -33.4340 N.pl3 391  ARG391      0.1354
     83  N         43.7560  226.9570  -32.5650 N.am  392  CYS392     -0.1970
     84  CA        44.1440  227.6790  -31.3600 C.3   392  CYS392      0.1712
     85  C         42.8580  227.9310  -30.5890 C.2   392  CYS392      0.2296
     86  O         41.8330  228.2750  -31.1850 O.2   392  CYS392     -0.2864
     87  CB        44.7610  229.0400  -31.7020 C.3   392  CYS392      0.0983
     88  SG        45.7910  229.0380  -33.1850 S.3   392  CYS392     -0.0798
@<TRIPOS>BOND
     1    22    23    1
     2    23    24    1
     3    23    26    1
     4    27    26    1
     5    27    28    1
     6    24    25    2
     7    28    29    1
     8    29    30    2
     9    30    31    1
    10    30    32    1
    11    39    41   ar
    12    39    38   ar
    13    41    42   ar
    14    37    38    1
    15    37    34    1
    16    33    34    1
    17    38    40   ar
    18    71    69    1
    19    42    40   ar
    20    34    35    1
    21    18    17    2
    22    17    16    1
    23    69    70    1
    24    69    66    1
    25    20    19    1
    26    68    67    2
    27    19    16    1
    28    19    21    1
    29    35    36    2
    30    67    66    1
    31    58    56   ar
    32    66    65    1
    33    16    15    1
    34    56    57   ar
    35    56    55    1
    36    50    48   am
    37    15    11   am
    38    49    48    2
    39    81    80    1
    40    48    47    1
    41    55    52    1
    42    77    78    1
    43    77    76    1
    44    62    61    2
    45    72    73    1
    46    11    12    2
    47    11    10    1
    48    78    79    1
    49    64    63    1
    50    47    44    1
    51    80    79    2
    52    80    82    1
    53    73    76    1
    54    73    74    1
    55    43    44    1
    56    10    13    1
    57    10     9    1
    58    61    60    1
    59    44    45    1
    60    52    53    1
    61    52    51    1
    62    59    53   am
    63    59    60    1
    64    13    14    1
    65     4     3    2
    66    53    54    2
    67    63    60    1
    68    88    87    1
    69    74    83   am
    70    74    75    2
    71     9     3   am
    72     3     2    1
    73    83    84    1
    74    45    46    2
    75     5     2    1
    76     5     6    1
    77    87    84    1
    78     2     1    1
    79    84    85    1
    80    86    85    2
    81     8     6   am
    82     6     7    2
