@<TRIPOS>MOLECULE
tmp/6b0uA01.pdb
 114 110 0 0 0
SMALL
GASTEIGER

@<TRIPOS>ATOM
      1  N         30.4410  -17.4130   83.3810 N.3    80  VAL80      -0.1245
      2  CA        29.1530  -17.0210   82.8150 C.3    80  VAL80       0.1561
      3  C         29.0570  -15.5060   82.9550 C.2    80  VAL80       0.2260
      4  O         29.2960  -14.9660   84.0420 O.2    80  VAL80      -0.2867
      5  CB        27.9810  -17.6900   83.5590 C.3    80  VAL80       0.0252
      6  CG1       26.6370  -17.2460   82.9860 C.3    80  VAL80       0.0019
      7  CG2       28.1100  -19.2080   83.4900 C.3    80  VAL80       0.0019
      8  N         23.4110  -14.3520   83.7570 N.3    85  ARG85      -0.1231
      9  CA        23.5970  -15.0410   85.0340 C.3    85  ARG85       0.1694
     10  C         22.2670  -15.6830   85.4750 C.2    85  ARG85       0.2592
     11  O         21.2060  -15.3020   84.9770 O.2    85  ARG85      -0.2718
     12  CB        24.0870  -14.0080   86.0550 C.3    85  ARG85       0.0321
     13  CG        24.8520  -14.5530   87.2420 C.3    85  ARG85       0.0489
     14  CD        24.9330  -13.5190   88.3570 C.3    85  ARG85       0.2205
     15  NE        23.6580  -13.3730   89.0710 N.pl3  85  ARG85      -0.0865
     16  CZ        23.5060  -12.8740   90.3020 C.cat  85  ARG85       0.5346
     17  NH1       22.2870  -12.8110   90.8340 N.pl3  85  ARG85       0.1354
     18  NH2       24.5450  -12.4400   91.0150 N.pl3  85  ARG85       0.1354
     19  N         22.3250  -16.6640   86.3790 N.am   86  ARG86      -0.1966
     20  CA        21.1220  -17.3490   86.9230 C.3    86  ARG86       0.1729
     21  C         20.1000  -17.7610   85.8460 C.2    86  ARG86       0.2616
     22  O         18.8960  -17.6020   86.0320 O.2    86  ARG86      -0.2715
     23  CB        20.4380  -16.4980   88.0180 C.3    86  ARG86       0.0348
     24  CG        21.2710  -16.1820   89.2640 C.3    86  ARG86       0.0492
     25  CD        21.8620  -17.4120   89.9520 C.3    86  ARG86       0.2205
     26  NE        23.2220  -17.6750   89.4740 N.pl3  86  ARG86      -0.0865
     27  CZ        24.3440  -17.1150   89.9410 C.cat  86  ARG86       0.5346
     28  NH1       24.3320  -16.2410   90.9490 N.pl3  86  ARG86       0.1354
     29  NH2       25.5100  -17.4380   89.3860 N.pl3  86  ARG86       0.1354
     30  N         20.5990  -18.2990   84.7330 N.am   87  ARG87      -0.1963
     31  CA        19.7770  -18.6280   83.5580 C.3    87  ARG87       0.1729
     32  C         19.8530  -20.1050   83.1140 C.2    87  ARG87       0.2617
     33  O         19.2410  -20.4800   82.1110 O.2    87  ARG87      -0.2715
     34  CB        20.1970  -17.7180   82.3950 C.3    87  ARG87       0.0348
     35  CG        19.1070  -17.4230   81.3730 C.3    87  ARG87       0.0492
     36  CD        18.1360  -16.3610   81.8650 C.3    87  ARG87       0.2205
     37  NE        18.7720  -15.0480   81.9880 N.pl3  87  ARG87      -0.0865
     38  CZ        19.0660  -14.2300   80.9730 C.cat  87  ARG87       0.5346
     39  NH1       18.7960  -14.5620   79.7070 N.pl3  87  ARG87       0.1354
     40  NH2       19.6490  -13.0580   81.2260 N.pl3  87  ARG87       0.1354
     41  N         20.5830  -20.9390   83.8580 N.am   88  GLY88      -0.1940
     42  CA        20.8110  -22.3470   83.4870 C.3    88  GLY88       0.2014
     43  C         22.0780  -22.6360   82.6810 C.2    88  GLY88       0.2639
     44  O         22.2990  -23.7770   82.2680 O.2    88  GLY88      -0.2714
     45  N         22.9270  -21.6260   82.4860 N.am   89  LEU89      -0.1963
     46  CA        24.0870  -21.7530   81.5940 C.3    89  LEU89       0.1728
     47  C         25.2210  -22.6030   82.1700 C.2    89  LEU89       0.2616
     48  O         25.8320  -23.3800   81.4410 O.2    89  LEU89      -0.2715
     49  CB        24.6110  -20.3720   81.1640 C.3    89  LEU89       0.0311
     50  CG        24.0640  -19.8480   79.8320 C.3    89  LEU89       0.0022
     51  CD1       22.5440  -19.8390   79.7800 C.3    89  LEU89       0.0001
     52  CD2       24.6060  -18.4540   79.5810 C.3    89  LEU89       0.0001
     53  N         25.4980  -22.4500   83.4630 N.am   90  LEU90      -0.1963
     54  CA        26.5190  -23.2600   84.1460 C.3    90  LEU90       0.1728
     55  C         26.1300  -24.7360   84.2340 C.2    90  LEU90       0.2616
     56  O         26.9760  -25.6100   84.0410 O.2    90  LEU90      -0.2715
     57  CB        26.7710  -22.7310   85.5590 C.3    90  LEU90       0.0311
     58  CG        27.9190  -23.3370   86.3720 C.3    90  LEU90       0.0022
     59  CD1       29.2560  -22.8390   85.8460 C.3    90  LEU90       0.0001
     60  CD2       27.7650  -23.0040   87.8480 C.3    90  LEU90       0.0001
     61  N         24.8610  -24.9940   84.5480 N.am   91  ARG91      -0.1977
     62  CA        24.3230  -26.3530   84.6680 C.3    91  ARG91       0.1597
     63  C         24.4040  -27.1130   83.3380 C.2    91  ARG91       0.2287
     64  O         24.8690  -28.2560   83.2930 O.2    91  ARG91      -0.2864
     65  CB        22.8750  -26.2940   85.1680 C.3    91  ARG91       0.0334
     66  CG        22.2480  -27.6450   85.4700 C.3    91  ARG91       0.0492
     67  CD        21.0140  -27.5080   86.3520 C.3    91  ARG91       0.2205
     68  NE        21.3490  -27.1490   87.7360 N.pl3  91  ARG91      -0.0865
     69  CZ        21.8510  -27.9790   88.6580 C.cat  91  ARG91       0.5346
     70  NH1       22.1070  -29.2600   88.3820 N.pl3  91  ARG91       0.1354
     71  NH2       22.1080  -27.5190   89.8820 N.pl3  91  ARG91       0.1354
     72  N         35.0180  -20.0220   94.4640 N.3   115  GLU115     -0.1245
     73  CA        34.2250  -20.0250   95.7020 C.3   115  GLU115      0.1567
     74  C         33.9300  -21.4800   96.0940 C.2   115  GLU115      0.2260
     75  O         33.6120  -22.2970   95.2310 O.2   115  GLU115     -0.2867
     76  CB        32.8940  -19.3090   95.5010 C.3   115  GLU115      0.0388
     77  CG        32.9780  -17.8590   95.0590 C.3   115  GLU115      0.1160
     78  CD        31.6390  -17.3380   94.5640 C.2   115  GLU115      0.3649
     79  OE1       31.6310  -16.3990   93.7380 O.co2 115  GLU115     -0.2457
     80  OE2       30.5890  -17.8830   94.9810 O.co2 115  GLU115     -0.2457
     81  N         31.3310  -22.7810   97.5830 N.3   117  GLY117     -0.1210
     82  CA        29.8950  -23.1270   97.6110 C.3   117  GLY117      0.1956
     83  C         29.2130  -23.4120   96.2770 C.2   117  GLY117      0.2611
     84  O         28.0170  -23.7110   96.2560 O.2   117  GLY117     -0.2717
     85  N         29.9670  -23.3330   95.1780 N.am  118  ILE118     -0.1979
     86  CA        29.4420  -23.5340   93.8160 C.3   118  ILE118      0.1595
     87  C         29.5740  -24.9980   93.3570 C.2   118  ILE118      0.2287
     88  O         28.7230  -25.4920   92.6090 O.2   118  ILE118     -0.2864
     89  CB        30.1560  -22.6190   92.7790 C.3   118  ILE118      0.0276
     90  CG1       30.2440  -21.1760   93.3020 C.3   118  ILE118      0.0022
     91  CG2       29.4460  -22.6770   91.4190 C.3   118  ILE118      0.0022
     92  CD1       30.9400  -20.2000   92.3740 C.3   118  ILE118      0.0001
     93  N         27.5230  -29.2540   94.5190 N.3   121  ARG121     -0.1231
     94  CA        26.3510  -29.7750   93.8030 C.3   121  ARG121      0.1694
     95  C         26.6930  -30.5680   92.5310 C.2   121  ARG121      0.2592
     96  O         25.9540  -31.4750   92.1600 O.2   121  ARG121     -0.2718
     97  CB        25.3580  -28.6470   93.4700 C.3   121  ARG121      0.0321
     98  CG        25.8640  -27.5730   92.5070 C.3   121  ARG121      0.0489
     99  CD        24.7360  -26.6660   92.0350 C.3   121  ARG121      0.2205
    100  NE        24.2190  -25.8120   93.1060 N.pl3 121  ARG121     -0.0865
    101  CZ        24.7740  -24.6740   93.5320 C.cat 121  ARG121      0.5346
    102  NH1       25.8960  -24.1930   92.9850 N.pl3 121  ARG121      0.1354
    103  NH2       24.1880  -23.9960   94.5190 N.pl3 121  ARG121      0.1354
    104  N         27.8040  -30.2260   91.8750 N.am  122  PHE122     -0.1976
    105  CA        28.2400  -30.9180   90.6510 C.3   122  PHE122      0.1639
    106  C         29.1050  -32.1490   90.9240 C.2   122  PHE122      0.2290
    107  O         29.6740  -32.7180   89.9860 O.2   122  PHE122     -0.2864
    108  CB        29.0000  -29.9590   89.7240 C.3   122  PHE122      0.0560
    109  CG        28.1630  -28.8300   89.2050 C.ar  122  PHE122     -0.0200
    110  CD1       27.1360  -29.0750   88.3050 C.ar  122  PHE122     -0.0042
    111  CD2       28.4040  -27.5200   89.6110 C.ar  122  PHE122     -0.0042
    112  CE1       26.3540  -28.0360   87.8260 C.ar  122  PHE122     -0.0003
    113  CE2       27.6280  -26.4740   89.1360 C.ar  122  PHE122     -0.0003
    114  CZ        26.6020  -26.7320   88.2410 C.ar  122  PHE122     -0.0000
@<TRIPOS>BOND
     1    52    50    1
     2    39    38    1
     3    51    50    1
     4    50    49    1
     5    38    40    1
     6    38    37    2
     7    49    46    1
     8    35    36    1
     9    35    34    1
    10    48    47    2
    11    46    47    1
    12    46    45    1
    13    36    37    1
    14    33    32    2
    15    47    53   am
    16    44    43    2
    17    34    31    1
    18    45    43   am
    19    43    42    1
    20     2     3    1
    21     2     1    1
    22     2     5    1
    23     3     4    2
    24     6     5    1
    25    32    31    1
    26    32    41   am
    27    64    63    2
    28    63    62    1
    29    53    54    1
    30    42    41    1
    31     7     5    1
    32    31    30    1
    33     8     9    1
    34    56    55    2
    35    54    55    1
    36    54    57    1
    37    55    61   am
    38    61    62    1
    39    62    65    1
    40    30    21   am
    41    11    10    2
    42     9    10    1
    43     9    12    1
    44    65    66    1
    45    66    67    1
    46    10    19   am
    47    57    58    1
    48    59    58    1
    49    21    22    2
    50    21    20    1
    51    12    13    1
    52    67    68    1
    53    58    60    1
    54    19    20    1
    55    20    23    1
    56    13    14    1
    57    68    69    2
    58   112   114   ar
    59   112   110   ar
    60    23    24    1
    61   114   113   ar
    62   110   109   ar
    63    14    15    1
    64    70    69    1
    65    69    71    1
    66    15    16    2
    67   113   111   ar
    68   109   111   ar
    69   109   108    1
    70    24    25    1
    71    29    27    1
    72    26    27    2
    73    26    25    1
    74   108   105    1
    75    27    28    1
    76   107   106    2
    77    16    17    1
    78    16    18    1
    79   105   106    1
    80   105   104    1
    81    91    89    1
    82   104    95   am
    83    99    98    1
    84    99   100    1
    85    96    95    2
    86    92    90    1
    87    98    97    1
    88    95    94    1
    89    88    87    2
    90    89    90    1
    91    89    86    1
    92   102   101    1
    93   100   101    2
    94    87    86    1
    95    97    94    1
    96   101   103    1
    97    79    78   ar
    98    94    93    1
    99    86    85    1
   100    72    73    1
   101    78    80   ar
   102    78    77    1
   103    77    76    1
   104    85    83   am
   105    75    74    2
   106    76    73    1
   107    73    74    1
   108    84    83    2
   109    83    82    1
   110    81    82    1
