@<TRIPOS>MOLECULE
tmp/6b0uC00.pdb
 101 98 0 0 0
SMALL
GASTEIGER

@<TRIPOS>ATOM
      1  N         77.2220  -12.2550  102.5600 N.3    80  VAL80      -0.1245
      2  CA        77.5240  -13.6720  102.6700 C.3    80  VAL80       0.1561
      3  C         76.2750  -14.4220  102.2380 C.2    80  VAL80       0.2260
      4  O         75.1750  -14.1190  102.7100 O.2    80  VAL80      -0.2867
      5  CB        77.8900  -14.0560  104.1120 C.3    80  VAL80       0.0252
      6  CG1       78.3210  -15.5160  104.1870 C.3    80  VAL80       0.0019
      7  CG2       79.0020  -13.1520  104.6240 C.3    80  VAL80       0.0019
      8  N         76.4930  -19.0210  105.5170 N.3    85  ARG85      -0.1231
      9  CA        76.5760  -18.1330  106.6920 C.3    85  ARG85       0.1694
     10  C         76.9540  -18.9020  107.9690 C.2    85  ARG85       0.2592
     11  O         76.9590  -20.1350  107.9820 O.2    85  ARG85      -0.2718
     12  CB        75.2990  -17.2850  106.8870 C.3    85  ARG85       0.0321
     13  CG        73.9770  -18.0400  106.9580 C.3    85  ARG85       0.0489
     14  CD        73.0560  -17.5420  108.0720 C.3    85  ARG85       0.2205
     15  NE        73.0030  -18.4610  109.2180 N.pl3  85  ARG85      -0.0865
     16  CZ        72.2200  -18.3180  110.2940 C.cat  85  ARG85       0.5346
     17  NH1       72.2640  -19.2290  111.2650 N.pl3  85  ARG85       0.1354
     18  NH2       71.3940  -17.2770  110.4170 N.pl3  85  ARG85       0.1354
     19  N         77.2920  -18.1530  109.0200 N.am   86  ARG86      -0.1966
     20  CA        77.7610  -18.6910  110.3090 C.3    86  ARG86       0.1729
     21  C         78.9910  -19.6090  110.1520 C.2    86  ARG86       0.2616
     22  O         79.1550  -20.5850  110.8850 O.2    86  ARG86      -0.2715
     23  CB        76.5940  -19.3910  111.0290 C.3    86  ARG86       0.0348
     24  CG        76.6510  -19.3900  112.5580 C.3    86  ARG86       0.0492
     25  CD        75.2500  -19.2460  113.1530 C.3    86  ARG86       0.2205
     26  NE        75.1540  -19.6420  114.5620 N.pl3  86  ARG86      -0.0865
     27  CZ        74.0590  -19.5210  115.3240 C.cat  86  ARG86       0.5346
     28  NH1       74.0930  -19.9200  116.5920 N.pl3  86  ARG86       0.1354
     29  NH2       72.9290  -19.0010  114.8410 N.pl3  86  ARG86       0.1354
     30  N         79.8650  -19.2470  109.2120 N.am   87  ARG87      -0.1963
     31  CA        80.9710  -20.0960  108.7690 C.3    87  ARG87       0.1729
     32  C         82.3240  -19.3520  108.6880 C.2    87  ARG87       0.2617
     33  O         83.2260  -19.7870  107.9730 O.2    87  ARG87      -0.2715
     34  CB        80.6130  -20.6730  107.3930 C.3    87  ARG87       0.0348
     35  CG        81.2410  -22.0240  107.0810 C.3    87  ARG87       0.0492
     36  CD        80.2830  -23.1790  107.3410 C.3    87  ARG87       0.2205
     37  NE        79.2790  -23.3120  106.2810 N.pl3  87  ARG87      -0.0865
     38  CZ        79.4940  -23.8290  105.0660 C.cat  87  ARG87       0.5346
     39  NH1       80.6980  -24.2770  104.7040 N.pl3  87  ARG87       0.1354
     40  NH2       78.4890  -23.8930  104.1920 N.pl3  87  ARG87       0.1354
     41  N         82.4670  -18.2390  109.4100 N.am   88  GLY88      -0.1940
     42  CA        83.7040  -17.4430  109.3950 C.3    88  GLY88       0.2014
     43  C         84.0390  -16.6750  108.1170 C.2    88  GLY88       0.2639
     44  O         85.1330  -16.1220  108.0140 O.2    88  GLY88      -0.2714
     45  N         83.1080  -16.6070  107.1610 N.am   89  LEU89      -0.1963
     46  CA        83.3700  -15.9850  105.8480 C.3    89  LEU89       0.1728
     47  C         83.4470  -14.4580  105.9180 C.2    89  LEU89       0.2616
     48  O         84.2900  -13.8430  105.2690 O.2    89  LEU89      -0.2715
     49  CB        82.3150  -16.4040  104.8090 C.3    89  LEU89       0.0311
     50  CG        82.7530  -17.4940  103.8280 C.3    89  LEU89       0.0022
     51  CD1       83.0260  -18.8110  104.5340 C.3    89  LEU89       0.0001
     52  CD2       81.7020  -17.6800  102.7460 C.3    89  LEU89       0.0001
     53  N         82.5460  -13.8620  106.6920 N.am   90  LEU90      -0.1963
     54  CA        82.5300  -12.4170  106.9230 C.3    90  LEU90       0.1728
     55  C         83.7720  -11.9460  107.6840 C.2    90  LEU90       0.2616
     56  O         84.4000  -10.9610  107.2970 O.2    90  LEU90      -0.2715
     57  CB        81.2570  -12.0260  107.6890 C.3    90  LEU90       0.0311
     58  CG        81.0230  -10.5610  108.0580 C.3    90  LEU90       0.0022
     59  CD1       81.0690   -9.6780  106.8260 C.3    90  LEU90       0.0001
     60  CD2       79.6860  -10.4120  108.7640 C.3    90  LEU90       0.0001
     61  N         84.1050  -12.6570  108.7610 N.am   91  ARG91      -0.1977
     62  CA        85.2870  -12.3680  109.5880 C.3    91  ARG91       0.1597
     63  C         86.5840  -12.3970  108.7730 C.2    91  ARG91       0.2287
     64  O         87.4420  -11.5250  108.9220 O.2    91  ARG91      -0.2864
     65  CB        85.3710  -13.3770  110.7380 C.3    91  ARG91       0.0334
     66  CG        86.4780  -13.1200  111.7520 C.3    91  ARG91       0.0492
     67  CD        86.3380  -14.0330  112.9630 C.3    91  ARG91       0.2205
     68  NE        85.1040  -13.7650  113.7040 N.pl3  91  ARG91      -0.0865
     69  CZ        84.8960  -12.7200  114.5110 C.cat  91  ARG91       0.5346
     70  NH1       85.8440  -11.7990  114.7220 N.pl3  91  ARG91       0.1354
     71  NH2       83.7180  -12.5900  115.1210 N.pl3  91  ARG91       0.1354
     72  N         75.8570   -5.8820  114.0950 N.3   118  ILE118     -0.1245
     73  CA        76.9250   -6.6340  113.4250 C.3   118  ILE118      0.1561
     74  C         78.2810   -5.9090  113.5030 C.2   118  ILE118      0.2260
     75  O         79.3180   -6.5640  113.6360 O.2   118  ILE118     -0.2867
     76  CB        76.5650   -6.9320  111.9370 C.3   118  ILE118      0.0252
     77  CG1       75.2470   -7.7240  111.8430 C.3   118  ILE118      0.0019
     78  CG2       77.6810   -7.7170  111.2350 C.3   118  ILE118      0.0019
     79  CD1       74.5890   -7.6820  110.4800 C.3   118  ILE118      0.0001
     80  N         81.8040   -5.0590  116.6220 N.3   121  ARG121     -0.1231
     81  CA        82.9550   -5.9510  116.8400 C.3   121  ARG121      0.1694
     82  C         84.1180   -5.7140  115.8680 C.2   121  ARG121      0.2592
     83  O         85.2700   -5.9560  116.2180 O.2   121  ARG121     -0.2718
     84  CB        82.5250   -7.4250  116.7960 C.3   121  ARG121      0.0321
     85  CG        82.1090   -7.9550  115.4250 C.3   121  ARG121      0.0489
     86  CD        81.8900   -9.4600  115.4530 C.3   121  ARG121      0.2205
     87  NE        80.8700   -9.8490  116.4280 N.pl3 121  ARG121     -0.0865
     88  CZ        79.5520   -9.6930  116.2760 C.cat 121  ARG121      0.5346
     89  NH1       79.0330   -9.1460  115.1700 N.pl3 121  ARG121      0.1354
     90  NH2       78.7340  -10.0910  117.2500 N.pl3 121  ARG121      0.1354
     91  N         83.8110   -5.2520  114.6550 N.am  122  PHE122     -0.1976
     92  CA        84.8290   -4.9720  113.6300 C.3   122  PHE122      0.1639
     93  C         85.5200   -3.6130  113.7820 C.2   122  PHE122      0.2290
     94  O         86.3370   -3.2440  112.9320 O.2   122  PHE122     -0.2864
     95  CB        84.2120   -5.0840  112.2300 C.3   122  PHE122      0.0560
     96  CG        83.7420   -6.4650  111.9010 C.ar  122  PHE122     -0.0200
     97  CD1       84.6560   -7.4480  111.5430 C.ar  122  PHE122     -0.0042
     98  CD2       82.3930   -6.7970  111.9740 C.ar  122  PHE122     -0.0042
     99  CE1       84.2330   -8.7350  111.2530 C.ar  122  PHE122     -0.0003
    100  CE2       81.9630   -8.0840  111.6860 C.ar  122  PHE122     -0.0003
    101  CZ        82.8850   -9.0540  111.3250 C.ar  122  PHE122     -0.0000
@<TRIPOS>BOND
     1     3     2    1
     2     3     4    2
     3     1     2    1
     4     2     5    1
     5    52    50    1
     6    50    51    1
     7    50    49    1
     8     5     6    1
     9     5     7    1
    10    40    38    1
    11    39    38    1
    12    49    46    1
    13    38    37    2
    14    48    47    2
    15     8     9    1
    16    46    47    1
    17    46    45    1
    18    47    53   am
    19    37    36    1
    20    53    54    1
    21     9    12    1
    22     9    10    1
    23    59    58    1
    24    12    13    1
    25    54    55    1
    26    54    57    1
    27    13    14    1
    28    35    36    1
    29    35    34    1
    30    45    43   am
    31    56    55    2
    32    34    31    1
    33    55    61   am
    34    57    58    1
    35    10    11    2
    36    10    19   am
    37    33    32    2
    38    44    43    2
    39    58    60    1
    40    14    15    1
    41    43    42    1
    42    32    31    1
    43    32    41   am
    44    61    62    1
    45    31    30    1
    46    63    64    2
    47    63    62    1
    48    19    20    1
    49    30    21   am
    50    15    16    2
    51    42    41    1
    52    62    65    1
    53    21    20    1
    54    21    22    2
    55    16    18    1
    56    16    17    1
    57    20    23    1
    58    79    77    1
    59    65    66    1
    60    23    24    1
    61    78    76    1
    62    99   101   ar
    63    99    97   ar
    64   101   100   ar
    65    97    96   ar
    66   100    98   ar
    67    66    67    1
    68    77    76    1
    69    96    98   ar
    70    96    95    1
    71    76    73    1
    72    95    92    1
    73    24    25    1
    74    94    93    2
    75    67    68    1
    76    25    26    1
    77    73    74    1
    78    73    72    1
    79    74    75    2
    80    92    93    1
    81    92    91    1
    82    68    69    2
    83    69    70    1
    84    69    71    1
    85    26    27    2
    86    91    82   am
    87    29    27    1
    88    89    88    1
    89    27    28    1
    90    85    86    1
    91    85    84    1
    92    86    87    1
    93    82    83    2
    94    82    81    1
    95    88    87    2
    96    88    90    1
    97    80    81    1
    98    84    81    1
