@<TRIPOS>MOLECULE
tmp/6b0vA00.pdb
 187 181 0 0 0
SMALL
GASTEIGER

@<TRIPOS>ATOM
      1  N        -14.8090    9.9450    8.4420 N.3     9  VAL9       -0.1231
      2  CA       -14.0000    9.1960    9.3870 C.3     9  VAL9        0.1692
      3  C        -14.2740    7.7170    9.1970 C.2     9  VAL9        0.2592
      4  O        -15.3010    7.2970    8.6280 O.2     9  VAL9       -0.2718
      5  CB       -14.2150    9.6370   10.8240 C.3     9  VAL9        0.0266
      6  CG1      -13.9060   11.1200   11.0450 C.3     9  VAL9        0.0020
      7  CG2      -15.5630    9.1720   11.3270 C.3     9  VAL9        0.0020
      8  N        -13.3860    6.9150    9.7370 N.am   10  GLY10      -0.1957
      9  CA       -13.4440    5.5080    9.6120 C.3    10  GLY10       0.1869
     10  C        -12.0710    4.8660    9.3880 C.2    10  GLY10       0.2309
     11  O        -11.0760    5.5580    9.0080 O.2    10  GLY10      -0.2863
     12  N         -8.6950    2.8270    8.2000 N.3    12  CYS12      -0.1221
     13  CA        -7.9280    2.6700    6.9730 C.3    12  CYS12       0.1808
     14  C         -8.4920    1.6680    6.0490 C.2    12  CYS12       0.2601
     15  O         -8.8260    0.5770    6.4220 O.2    12  CYS12      -0.2717
     16  CB        -6.5150    2.1470    7.2550 C.3    12  CYS12       0.0970
     17  SG        -5.5000    3.3740    8.0870 S.3    12  CYS12      -0.0800
     18  N         -8.6450    2.0760    4.8010 N.am   13  GLY13      -0.1957
     19  CA        -9.0070    1.1590    3.7620 C.3    13  GLY13       0.1869
     20  C        -10.4950    0.9510    3.5380 C.2    13  GLY13       0.2309
     21  O        -10.9030    0.1100    2.6930 O.2    13  GLY13      -0.2863
     22  N        -12.8860    5.9620    2.4180 N.3    16  LYS16      -0.1245
     23  CA       -13.1110    7.3700    2.6610 C.3    16  LYS16       0.1561
     24  C        -12.6970    8.2790    1.5040 C.2    16  LYS16       0.2260
     25  O        -13.4750    9.0930    0.9990 O.2    16  LYS16      -0.2867
     26  CB       -12.4150    7.8100    3.9070 C.3    16  LYS16       0.0271
     27  CG       -12.9200    7.0490    5.1520 C.3    16  LYS16       0.0035
     28  CD       -12.1930    7.5820    6.3810 C.3    16  LYS16       0.0206
     29  CE       -10.6920    7.4630    6.4300 C.3    16  LYS16       0.1093
     30  NZ       -10.2650    6.0050    6.2530 N.3    16  LYS16      -0.1314
     31  N         -2.5510    7.1330    1.5760 N.3    34  PRO34      -0.2116
     32  CA        -3.3970    7.1620    2.7850 C.3    34  PRO34       0.1372
     33  C         -2.9910    8.2980    3.7460 C.2    34  PRO34       0.2244
     34  O         -3.6940    8.5170    4.7290 O.2    34  PRO34      -0.2868
     35  CB        -3.1290    5.8510    3.4250 C.3    34  PRO34       0.0268
     36  CG        -1.7620    5.3990    2.8820 C.3    34  PRO34       0.0207
     37  CD        -1.8260    5.8420    1.4510 C.3    34  PRO34       0.0892
     38  N        -10.3400   12.3800    6.1760 N.3    58  THR58      -0.1203
     39  CA        -9.3090   12.3450    7.1990 C.3    58  THR58       0.1994
     40  C         -8.2170   11.3780    6.8820 C.2    58  THR58       0.2618
     41  O         -8.3630   10.2940    6.2700 O.2    58  THR58      -0.2717
     42  CB        -9.9200   12.0630    8.5730 C.3    58  THR58       0.1784
     43  OG1      -10.6160   10.7960    8.5690 O.3    58  THR58      -0.2211
     44  CG2      -10.8660   13.2060    8.9280 C.3    58  THR58       0.0376
     45  N         -7.1000   11.6750    7.5200 N.am   59  ALA59      -0.1965
     46  CA        -5.8730   10.8350    7.5850 C.3    59  ALA59       0.1728
     47  C         -5.2620   10.9750    8.9830 C.2    59  ALA59       0.2617
     48  O         -5.6510   11.8480    9.7480 O.2    59  ALA59      -0.2715
     49  CB        -4.8280   11.2650    6.5600 C.3    59  ALA59       0.0334
     50  N         -4.2710   10.1800    9.2980 N.am   60  GLY60      -0.1940
     51  CA        -3.5950   10.4020   10.5850 C.3    60  GLY60       0.2014
     52  C         -3.3220    9.1410   11.3420 C.2    60  GLY60       0.2639
     53  O         -3.7040    8.0030   10.9690 O.2    60  GLY60      -0.2714
     54  N         -2.6270    9.3430   12.4310 N.am   61  GLN61      -0.1963
     55  CA        -2.2340    8.2490   13.3180 C.3    61  GLN61       0.1733
     56  C         -3.2470    8.1380   14.4400 C.2    61  GLN61       0.2616
     57  O         -4.0810    8.9960   14.6400 O.2    61  GLN61      -0.2715
     58  CB        -0.8090    8.4510   13.7930 C.3    61  GLN61       0.0408
     59  CG         0.2340    8.0510   12.7390 C.3    61  GLN61       0.0908
     60  CD         0.2350    8.9890   11.5250 C.2    61  GLN61       0.2608
     61  OE1        0.0080    8.5260   10.3530 O.2    61  GLN61      -0.2717
     62  NE2        0.4020   10.2480   11.7510 N.am   61  GLN61      -0.0878
     63  N         -3.1880    7.0400   15.1360 N.am   62  GLU62      -0.1963
     64  CA        -4.0380    6.7820   16.2970 C.3    62  GLU62       0.1733
     65  C         -3.4910    7.5270   17.5170 C.2    62  GLU62       0.2616
     66  O         -2.7820    6.9530   18.3780 O.2    62  GLU62      -0.2715
     67  CB        -4.0630    5.2700   16.4830 C.3    62  GLU62       0.0429
     68  CG        -4.6980    4.4810   15.3540 C.3    62  GLU62       0.1163
     69  CD        -4.8370    3.0060   15.6480 C.2    62  GLU62       0.3649
     70  OE1       -4.6340    2.1700   14.7210 O.co2  62  GLU62      -0.2457
     71  OE2       -5.1240    2.6530   16.8200 O.co2  62  GLU62      -0.2457
     72  N         -3.7630    8.8120   17.5830 N.am   63  GLU63      -0.1963
     73  CA        -3.2850    9.7280   18.6410 C.3    63  GLU63       0.1733
     74  C         -4.1860   10.9390   18.6870 C.2    63  GLU63       0.2616
     75  O         -4.8170   11.2560   17.6870 O.2    63  GLU63      -0.2715
     76  CB        -1.7830   10.0750   18.3720 C.3    63  GLU63       0.0429
     77  CG        -1.5950   10.7790   17.0630 C.3    63  GLU63       0.1163
     78  CD        -0.1270   10.9310   16.6700 C.2    63  GLU63       0.3649
     79  OE1        0.8280   10.5630   17.4010 O.co2  63  GLU63      -0.2457
     80  OE2        0.0340   11.4760   15.5970 O.co2  63  GLU63      -0.2457
     81  N         -4.1970   11.7130   19.8040 N.am   64  TYR64      -0.1974
     82  CA        -5.2200   12.7330   20.1070 C.3    64  TYR64       0.1639
     83  C         -4.6890   13.9660   20.8100 C.2    64  TYR64       0.2290
     84  O         -4.7730   14.0870   22.0260 O.2    64  TYR64      -0.2864
     85  CB        -6.2730   12.1710   21.0470 C.3    64  TYR64       0.0560
     86  CG        -6.7580   10.8630   20.5620 C.ar   64  TYR64      -0.0198
     87  CD1       -7.7120   10.7790   19.5900 C.ar   64  TYR64      -0.0009
     88  CD2       -6.1500    9.6850   21.0130 C.ar   64  TYR64      -0.0009
     89  CE1       -8.0810    9.5630   19.0870 C.ar   64  TYR64       0.0417
     90  CE2       -6.5570    8.4640   20.5280 C.ar   64  TYR64       0.0417
     91  CZ        -7.4910    8.4350   19.5470 C.ar   64  TYR64       0.1957
     92  OH        -7.8830    7.2240   19.0560 O.3    64  TYR64      -0.2866
     93  N         -5.5100   18.8640   17.4190 N.3    68  ARG68      -0.1231
     94  CA        -6.3240   18.0000   16.5350 C.3    68  ARG68       0.1694
     95  C         -7.7690   17.9640   16.9760 C.2    68  ARG68       0.2592
     96  O         -8.6760   18.0460   16.1230 O.2    68  ARG68      -0.2718
     97  CB        -5.7480   16.6120   16.4190 C.3    68  ARG68       0.0321
     98  CG        -6.5220   15.6760   15.4980 C.3    68  ARG68       0.0489
     99  CD        -6.5660   16.1330   14.0720 C.3    68  ARG68       0.2205
    100  NE        -6.9820   15.0750   13.2050 N.pl3  68  ARG68      -0.0865
    101  CZ        -7.1360   15.2660   11.8960 C.cat  68  ARG68       0.5346
    102  NH1       -6.9690   16.4540   11.3450 N.pl3  68  ARG68       0.1354
    103  NH2       -7.5030   14.2020   11.1910 N.pl3  68  ARG68       0.1354
    104  N         -7.9850   17.8020   18.2860 N.am   69  ASP69      -0.1974
    105  CA        -9.3930   17.7910   18.7770 C.3    69  ASP69       0.1709
    106  C        -10.0880   19.1060   18.3870 C.2    69  ASP69       0.2293
    107  O        -11.2700   19.1330   17.9130 O.2    69  ASP69      -0.2864
    108  CB        -9.4220   17.7130   20.2400 C.3    69  ASP69       0.1436
    109  CG        -9.0970   16.3190   20.7860 C.2    69  ASP69       0.3671
    110  OD1       -9.0600   15.3190   20.0350 O.co2  69  ASP69      -0.2456
    111  OD2       -8.9850   16.2000   22.0300 O.co2  69  ASP69      -0.2456
    112  N        -11.0730   18.9330   14.7550 N.3    72  MET72      -0.1245
    113  CA       -12.2130   18.0400   14.5290 C.3    72  MET72       0.1570
    114  C        -13.5390   18.5270   15.0810 C.2    72  MET72       0.2261
    115  O        -14.5970   18.3410   14.4510 O.2    72  MET72      -0.2867
    116  CB       -11.8810   16.6290   15.0750 C.3    72  MET72       0.0387
    117  CG       -10.7420   15.9130   14.3880 C.3    72  MET72       0.0595
    118  SD       -11.0340   15.5290   12.6440 S.3    72  MET72      -0.1393
    119  CE       -10.1470   13.9780   12.5130 C.3    72  MET72       0.0692
    120  N        -20.6540   14.2600   10.5180 N.3    78  PHE78      -0.1241
    121  CA       -19.6440   13.2260   10.2900 C.3    78  PHE78       0.1605
    122  C        -20.2130   12.0150    9.5790 C.2    78  PHE78       0.2264
    123  O        -21.3070   11.5340    9.9690 O.2    78  PHE78      -0.2867
    124  CB       -19.0270   12.7880   11.6690 C.3    78  PHE78       0.0534
    125  CG       -18.3780   13.8930   12.3950 C.ar   78  PHE78      -0.0203
    126  CD1      -19.1250   14.8040   13.0900 C.ar   78  PHE78      -0.0042
    127  CD2      -17.0280   14.0340   12.4090 C.ar   78  PHE78      -0.0042
    128  CE1      -18.5180   15.9800   13.6600 C.ar   78  PHE78      -0.0003
    129  CE2      -16.4330   15.1140   13.0660 C.ar   78  PHE78      -0.0003
    130  CZ       -17.1770   16.0620   13.6650 C.ar   78  PHE78      -0.0000
    131  N        -15.8100    3.5010   18.3580 N.3    95  HIS95      -0.1226
    132  CA       -14.6900    4.3060   18.8020 C.3    95  HIS95       0.1752
    133  C        -14.7360    5.6880   18.1310 C.2    95  HIS95       0.2596
    134  O        -14.5260    6.7390   18.7730 O.2    95  HIS95      -0.2718
    135  CB       -13.3770    3.6070   18.5110 C.3    95  HIS95       0.0759
    136  CG       -12.1820    4.5150   18.4290 C.ar   95  HIS95       0.0818
    137  ND1      -11.5420    4.9910   19.5460 N.ar   95  HIS95      -0.2268
    138  CD2      -11.5330    5.0560   17.3560 C.ar   95  HIS95       0.1154
    139  CE1      -10.5190    5.7560   19.1680 C.ar   95  HIS95       0.1986
    140  NE2      -10.5200    5.8410   17.8500 N.ar   95  HIS95      -0.2212
    141  N        -14.9580    5.7390   16.8430 N.am   96  TYR96      -0.1976
    142  CA       -14.9970    7.0030   16.1080 C.3    96  TYR96       0.1639
    143  C        -16.1600    7.8490   16.6430 C.2    96  TYR96       0.2290
    144  O        -15.9750    9.0460   16.8910 O.2    96  TYR96      -0.2864
    145  CB       -15.1160    6.7640   14.5510 C.3    96  TYR96       0.0560
    146  CG       -13.8010    6.2510   14.0110 C.ar   96  TYR96      -0.0198
    147  CD1      -12.7370    7.0740   13.8990 C.ar   96  TYR96      -0.0009
    148  CD2      -13.6860    4.9900   13.5180 C.ar   96  TYR96      -0.0009
    149  CE1      -11.5170    6.5990   13.4030 C.ar   96  TYR96       0.0417
    150  CE2      -12.4500    4.4790   13.0510 C.ar   96  TYR96       0.0417
    151  CZ       -11.3650    5.3030   13.0820 C.ar   96  TYR96       0.1957
    152  OH       -10.0880    4.8500   12.6290 O.3    96  TYR96      -0.2866
    153  N        -15.2200    9.3390   19.9830 N.3    99  GLN99      -0.1231
    154  CA       -14.2640   10.4610   19.9140 C.3    99  GLN99       0.1698
    155  C        -14.9610   11.6930   19.4990 C.2    99  GLN99       0.2592
    156  O        -14.7150   12.7860   20.0070 O.2    99  GLN99      -0.2718
    157  CB       -13.0780   10.1660   18.9370 C.3    99  GLN99       0.0381
    158  CG       -12.1920    8.9900   19.4430 C.3    99  GLN99       0.0905
    159  CD       -11.6940    9.1980   20.8520 C.2    99  GLN99       0.2608
    160  OE1      -11.1710   10.2890   21.1920 O.2    99  GLN99      -0.2717
    161  NE2      -11.8830    8.1990   21.7200 N.am   99  GLN99      -0.0878
    162  N        -15.8640   11.5770   18.5170 N.am  100  ILE100     -0.1980
    163  CA       -16.5610   12.7230   18.0820 C.3   100  ILE100      0.1595
    164  C        -17.4930   13.2620   19.1750 C.2   100  ILE100      0.2287
    165  O        -17.5190   14.5010   19.4200 O.2   100  ILE100     -0.2864
    166  CB       -17.4110   12.3750   16.8250 C.3   100  ILE100      0.0276
    167  CG1      -16.4830   12.0940   15.6600 C.3   100  ILE100      0.0022
    168  CG2      -18.3530   13.5180   16.5090 C.3   100  ILE100      0.0022
    169  CD1      -17.1090   11.1960   14.6190 C.3   100  ILE100      0.0001
    170  N        -16.9270   13.0160   22.3170 N.3   102  ARG102     -0.1231
    171  CA       -16.0540   13.5950   23.2830 C.3   102  ARG102      0.1694
    172  C        -15.6000   14.9970   22.8740 C.2   102  ARG102      0.2591
    173  O        -15.6570   15.9280   23.6670 O.2   102  ARG102     -0.2718
    174  CB       -14.7990   12.7090   23.4920 C.3   102  ARG102      0.0321
    175  CG       -13.8110   13.3600   24.3830 C.3   102  ARG102      0.0489
    176  CD       -12.5190   12.5760   24.5590 C.3   102  ARG102      0.2205
    177  NE       -11.7630   12.3990   23.3320 N.pl3 102  ARG102     -0.0865
    178  CZ       -10.9570   13.3200   22.7740 C.cat 102  ARG102      0.5346
    179  NH1      -10.7750   14.4980   23.3810 N.pl3 102  ARG102      0.1354
    180  NH2      -10.2970   13.0400   21.6520 N.pl3 102  ARG102      0.1354
    181  N        -15.1340   15.2070   21.6560 N.am  103  VAL103     -0.1980
    182  CA       -14.6850   16.4840   21.2330 C.3   103  VAL103      0.1595
    183  C        -15.8310   17.4500   21.0560 C.2   103  VAL103      0.2287
    184  O        -15.6350   18.6450   21.3350 O.2   103  VAL103     -0.2864
    185  CB       -13.8080   16.4730   19.9750 C.3   103  VAL103      0.0276
    186  CG1      -12.6430   15.5430   20.2210 C.3   103  VAL103      0.0022
    187  CG2      -14.5470   16.1920   18.6720 C.3   103  VAL103      0.0022
@<TRIPOS>BOND
     1    25    24    2
     2    37    31    1
     3    37    36    1
     4    24    23    1
     5    31    32    1
     6    22    23    1
     7    23    26    1
     8    21    20    2
     9    32    35    1
    10    32    33    1
    11    36    35    1
    12    20    19    1
    13    33    34    2
    14    19    18    1
    15    26    27    1
    16    18    14   am
    17    27    28    1
    18    14    15    2
    19    14    13    1
    20    38    39    1
    21    30    29    1
    22    41    40    2
    23    28    29    1
    24    49    46    1
    25    40    39    1
    26    40    45   am
    27    13    16    1
    28    13    12    1
    29    39    42    1
    30    16    17    1
    31    45    46    1
    32    46    47    1
    33     1     2    1
    34    43    42    1
    35    42    44    1
    36     4     3    2
    37    47    50   am
    38    47    48    2
    39    11    10    2
    40     3     2    1
    41     3     8   am
    42    50    51    1
    43     2     5    1
    44    10     9    1
    45   122   123    2
    46   122   121    1
    47     9     8    1
    48   121   120    1
    49   121   124    1
    50    61    60    2
    51    51    52    1
    52     5     6    1
    53     5     7    1
    54    53    52    2
    55   103   101    1
    56    52    54   am
    57   102   101    1
    58    60    62   am
    59    60    59    1
    60   124   125    1
    61   101   100    2
    62   125   127   ar
    63   125   126   ar
    64   127   129   ar
    65    54    55    1
    66   119   118    1
    67   152   151    1
    68   118   117    1
    69    59    58    1
    70   150   151   ar
    71   150   148   ar
    72   129   130   ar
    73   151   149   ar
    74   126   128   ar
    75   100    99    1
    76    55    58    1
    77    55    56    1
    78   149   147   ar
    79   148   146   ar
    80   128   130   ar
    81   147   146   ar
    82   146   145    1
    83    99    98    1
    84   117   116    1
    85    56    57    2
    86    56    63   am
    87   115   114    2
    88   113   112    1
    89   113   116    1
    90   113   114    1
    91   145   142    1
    92   169   167    1
    93    70    69   ar
    94    63    64    1
    95    68    69    1
    96    68    67    1
    97    98    97    1
    98    80    78   ar
    99    69    71   ar
   100   167   166    1
   101   142   143    1
   102   142   141    1
   103    96    95    2
   104    64    67    1
   105    64    65    1
   106    97    94    1
   107   168   166    1
   108    94    95    1
   109    94    93    1
   110   143   144    2
   111    78    77    1
   112    78    79   ar
   113   166   163    1
   114   141   133   am
   115    95   104   am
   116    77    76    1
   117   138   140   ar
   118   138   136   ar
   119    65    72   am
   120    65    66    2
   121    72    73    1
   122    75    74    2
   123   140   139   ar
   124   107   106    2
   125   163   162    1
   126   163   164    1
   127   133   134    2
   128   133   132    1
   129   104   105    1
   130   131   132    1
   131    76    73    1
   132   106   105    1
   133   136   135    1
   134   136   137   ar
   135   135   132    1
   136   162   155   am
   137    73    74    1
   138   187   185    1
   139    74    81   am
   140   105   108    1
   141   157   158    1
   142   157   154    1
   143    92    91    1
   144    89    91   ar
   145    89    87   ar
   146   139   137   ar
   147   164   165    2
   148   158   159    1
   149   155   154    1
   150   155   156    2
   151    91    90   ar
   152    87    86   ar
   153    81    82    1
   154   154   153    1
   155   185   186    1
   156   185   182    1
   157   110   109   ar
   158    82    83    1
   159    82    85    1
   160   108   109    1
   161    90    88   ar
   162    86    88   ar
   163    86    85    1
   164   109   111   ar
   165    83    84    2
   166   159   160    2
   167   159   161   am
   168   183   182    1
   169   183   184    2
   170   182   181    1
   171   180   178    1
   172   181   172   am
   173   170   171    1
   174   178   177    2
   175   178   179    1
   176   172   171    1
   177   172   173    2
   178   171   174    1
   179   177   176    1
   180   174   175    1
   181   175   176    1
