@<TRIPOS>MOLECULE
tmp/6b0zB02.pdb
 204 196 0 0 0
SMALL
GASTEIGER

@<TRIPOS>ATOM
      1  N         34.7010   15.7800   49.2450 N.3   107  ARG107     -0.1231
      2  CA        33.5950   16.7210   49.3210 C.3   107  ARG107      0.1694
      3  C         32.2840   15.9870   49.0810 C.2   107  ARG107      0.2592
      4  O         32.2090   15.0940   48.2310 O.2   107  ARG107     -0.2718
      5  CB        33.7610   17.8460   48.2950 C.3   107  ARG107      0.0321
      6  CG        34.8670   18.8360   48.6300 C.3   107  ARG107      0.0489
      7  CD        35.0680   19.8380   47.5040 C.3   107  ARG107      0.2205
      8  NE        35.4740   21.1490   48.0050 N.pl3 107  ARG107     -0.0865
      9  CZ        36.7370   21.5500   48.1110 C.cat 107  ARG107      0.5346
     10  NH1       37.7230   20.7450   47.7470 N.pl3 107  ARG107      0.1354
     11  NH2       37.0150   22.7590   48.5790 N.pl3 107  ARG107      0.1354
     12  N         31.2520   16.3660   49.8310 N.am  108  GLU108     -0.1966
     13  CA        29.9540   15.7170   49.7130 C.3   108  GLU108      0.1733
     14  C         28.8560   16.7310   49.9900 C.2   108  GLU108      0.2616
     15  O         28.8670   17.3900   51.0340 O.2   108  GLU108     -0.2715
     16  CB        29.8370   14.5310   50.6770 C.3   108  GLU108      0.0429
     17  CG        28.6510   13.6180   50.3920 C.3   108  GLU108      0.1163
     18  CD        28.5940   12.4210   51.3250 C.2   108  GLU108      0.3649
     19  OE1       27.5160   11.7980   51.4290 O.co2 108  GLU108     -0.2457
     20  OE2       29.6250   12.1010   51.9530 O.co2 108  GLU108     -0.2457
     21  N         27.9190   16.8500   49.0570 N.am  109  ALA109     -0.1977
     22  CA        26.7530   17.6910   49.2650 C.3   109  ALA109      0.1597
     23  C         25.6720   16.9150   50.0070 C.2   109  ALA109      0.2287
     24  O         25.5660   15.6900   49.8980 O.2   109  ALA109     -0.2864
     25  CB        26.2050   18.2080   47.9350 C.3   109  ALA109      0.0319
     26  N         21.7730   16.2310   50.3760 N.3   111  ILE111     -0.1245
     27  CA        20.6820   16.2510   49.4110 C.3   111  ILE111      0.1561
     28  C         19.3480   16.1730   50.1420 C.2   111  ILE111      0.2260
     29  O         19.1820   15.3740   51.0740 O.2   111  ILE111     -0.2867
     30  CB        20.8280   15.0990   48.4010 C.3   111  ILE111      0.0252
     31  CG1       21.8350   15.4670   47.3120 C.3   111  ILE111      0.0019
     32  CG2       19.4850   14.7190   47.7970 C.3   111  ILE111      0.0019
     33  CD1       21.9670   14.4160   46.2350 C.3   111  ILE111      0.0001
     34  N         18.4530   19.8120   42.5850 N.3   117  ARG117     -0.1231
     35  CA        19.8570   19.5730   42.2960 C.3   117  ARG117      0.1694
     36  C         20.1890   20.1450   40.9250 C.2   117  ARG117      0.2592
     37  O         19.3190   20.2540   40.0560 O.2   117  ARG117     -0.2718
     38  CB        20.1890   18.0770   42.3290 C.3   117  ARG117      0.0321
     39  CG        20.4420   17.5130   43.7190 C.3   117  ARG117      0.0489
     40  CD        19.1420   17.2980   44.4780 C.3   117  ARG117      0.2205
     41  NE        18.2470   16.3990   43.7560 N.pl3 117  ARG117     -0.0865
     42  CZ        16.9210   16.4780   43.7870 C.cat 117  ARG117      0.5346
     43  NH1       16.1880   15.6180   43.0920 N.pl3 117  ARG117      0.1354
     44  NH2       16.3260   17.4200   44.5090 N.pl3 117  ARG117      0.1354
     45  N         21.4590   20.5230   40.7460 N.am  118  LEU118     -0.1966
     46  CA        21.9030   21.0540   39.4600 C.3   118  LEU118      0.1728
     47  C         21.5650   20.0920   38.3280 C.2   118  LEU118      0.2616
     48  O         21.1240   20.5120   37.2530 O.2   118  LEU118     -0.2715
     49  CB        23.4050   21.3380   39.5020 C.3   118  LEU118      0.0311
     50  CG        24.0440   21.9130   38.2360 C.3   118  LEU118      0.0022
     51  CD1       23.4060   23.2440   37.8630 C.3   118  LEU118      0.0001
     52  CD2       25.5460   22.0660   38.4210 C.3   118  LEU118      0.0001
     53  N         21.7520   18.7970   38.5590 N.am  119  VAL119     -0.1977
     54  CA        21.2520   17.7500   37.6770 C.3   119  VAL119      0.1596
     55  C         20.1450   17.0250   38.4280 C.2   119  VAL119      0.2287
     56  O         20.3890   16.4400   39.4910 O.2   119  VAL119     -0.2864
     57  CB        22.3650   16.7830   37.2490 C.3   119  VAL119      0.0276
     58  CG1       21.7930   15.6410   36.4210 C.3   119  VAL119      0.0022
     59  CG2       23.4410   17.5300   36.4700 C.3   119  VAL119      0.0022
     60  N         20.3210   13.4590   39.8660 N.3   122  TRP122     -0.1241
     61  CA        21.0880   13.2210   41.0850 C.3   122  TRP122      0.1605
     62  C         20.1310   13.1460   42.2660 C.2   122  TRP122      0.2264
     63  O         19.7000   14.1710   42.8000 O.2   122  TRP122     -0.2867
     64  CB        22.1200   14.3230   41.2940 C.3   122  TRP122      0.0550
     65  CG        23.2150   14.3420   40.2750 C.ar  122  TRP122      0.0003
     66  CD1       23.5660   13.3340   39.4260 C.ar  122  TRP122      0.0946
     67  CD2       24.1080   15.4270   40.0020 C.ar  122  TRP122      0.0152
     68  NE1       24.6230   13.7250   38.6390 N.ar  122  TRP122     -0.2442
     69  CE2       24.9740   15.0070   38.9740 C.ar  122  TRP122      0.0810
     70  CE3       24.2580   16.7150   40.5270 C.ar  122  TRP122      0.0012
     71  CZ2       25.9750   15.8280   38.4590 C.ar  122  TRP122      0.0191
     72  CZ3       25.2530   17.5280   40.0160 C.ar  122  TRP122      0.0001
     73  CH2       26.0980   17.0820   38.9920 C.ar  122  TRP122      0.0015
     74  N         21.0700   10.8310   44.8420 N.3   124  LYS124     -0.1231
     75  CA        22.0050   10.4430   45.8820 C.3   124  LYS124      0.1678
     76  C         23.2660   11.2880   45.7910 C.2   124  LYS124      0.2434
     77  O         23.6860   11.6620   44.6900 O.2   124  LYS124     -0.2733
     78  CB        22.3750    8.9590   45.7640 C.3   124  LYS124      0.0284
     79  CG        21.1680    8.0430   45.7530 C.3   124  LYS124      0.0035
     80  CD        21.5540    6.5850   45.5840 C.3   124  LYS124      0.0206
     81  CE        20.3070    5.7250   45.4600 C.3   124  LYS124      0.1093
     82  NZ        20.6230    4.2760   45.3430 N.3   124  LYS124     -0.1314
     83  N         23.8890   11.6100   46.9250 N.am  125  PRO125     -0.2718
     84  CA        25.0760   12.4690   46.8870 C.3   125  PRO125      0.1535
     85  C         26.2060   11.8360   46.0920 C.2   125  PRO125      0.2598
     86  O         26.3110   10.6130   45.9780 O.2   125  PRO125     -0.2715
     87  CB        25.4560   12.6240   48.3660 C.3   125  PRO125      0.0310
     88  CG        24.1920   12.3510   49.1150 C.3   125  PRO125      0.0237
     89  CD        23.4820   11.2980   48.3050 C.3   125  PRO125      0.0939
     90  N         27.0360   12.6960   45.5110 N.am  126  ILE126     -0.1978
     91  CA        28.2710   12.2960   44.8500 C.3   126  ILE126      0.1596
     92  C         29.4260   12.8460   45.6720 C.2   126  ILE126      0.2287
     93  O         29.3970   14.0070   46.1010 O.2   126  ILE126     -0.2864
     94  CB        28.3390   12.8110   43.3990 C.3   126  ILE126      0.0276
     95  CG1       27.1130   12.3510   42.6090 C.3   126  ILE126      0.0022
     96  CG2       29.6150   12.3330   42.7210 C.3   126  ILE126      0.0022
     97  CD1       27.0970   12.8230   41.1670 C.3   126  ILE126      0.0001
     98  N         33.3880   13.7420   45.7270 N.3   128  ILE128     -0.1245
     99  CA        34.5600   14.0390   44.9190 C.3   128  ILE128      0.1561
    100  C         35.7920   13.9340   45.8040 C.2   128  ILE128      0.2260
    101  O         35.8460   14.5370   46.8840 O.2   128  ILE128     -0.2867
    102  CB        34.4660   15.4350   44.2840 C.3   128  ILE128      0.0252
    103  CG1       33.1560   15.5850   43.5130 C.3   128  ILE128      0.0019
    104  CG2       35.6550   15.6710   43.3740 C.3   128  ILE128      0.0019
    105  CD1       33.0870   14.7410   42.2650 C.3   128  ILE128      0.0001
    106  N         32.7860   12.9770   32.9920 N.3   251  VAL251     -0.1245
    107  CA        31.8660   14.1030   33.1180 C.3   251  VAL251      0.1561
    108  C         30.4840   13.7120   32.6100 C.2   251  VAL251      0.2260
    109  O         29.4730   13.9050   33.2950 O.2   251  VAL251     -0.2867
    110  CB        32.4170   15.3320   32.3720 C.3   251  VAL251      0.0252
    111  CG1       31.3170   16.3610   32.1460 C.3   251  VAL251      0.0019
    112  CG2       33.5850   15.9360   33.1370 C.3   251  VAL251      0.0019
    113  N         28.9340   10.9730   34.9210 N.3   254  ALA254     -0.1231
    114  CA        28.4500   11.4890   36.1980 C.3   254  ALA254      0.1694
    115  C         27.1390   12.2490   36.0310 C.2   254  ALA254      0.2591
    116  O         26.2390   12.1420   36.8720 O.2   254  ALA254     -0.2718
    117  CB        29.5110   12.3830   36.8400 C.3   254  ALA254      0.0304
    118  N         27.0080   13.0190   34.9480 N.am  255  MET255     -0.1979
    119  CA        25.7800   13.7730   34.7190 C.3   255  MET255      0.1605
    120  C         24.5980   12.8740   34.3820 C.2   255  MET255      0.2287
    121  O         23.4490   13.2740   34.5950 O.2   255  MET255     -0.2864
    122  CB        25.9920   14.7940   33.6050 C.3   255  MET255      0.0413
    123  CG        26.9120   15.9370   33.9910 C.3   255  MET255      0.0598
    124  SD        27.1150   17.1150   32.6450 S.3   255  MET255     -0.1393
    125  CE        25.4650   17.8120   32.5540 C.3   255  MET255      0.0692
    126  N         34.1090    9.8710   43.2780 N.3   263  TRP263     -0.1241
    127  CA        34.8370   10.3120   42.0940 C.3   263  TRP263      0.1605
    128  C         36.1790   10.8720   42.5500 C.2   263  TRP263      0.2264
    129  O         36.2380   11.9480   43.1550 O.2   263  TRP263     -0.2867
    130  CB        34.0220   11.3490   41.3230 C.3   263  TRP263      0.0550
    131  CG        34.6570   11.8680   40.0630 C.ar  263  TRP263      0.0003
    132  CD1       35.8980   11.5690   39.5750 C.ar  263  TRP263      0.0946
    133  CD2       34.0710   12.7840   39.1300 C.ar  263  TRP263      0.0152
    134  NE1       36.1200   12.2440   38.4000 N.ar  263  TRP263     -0.2442
    135  CE2       35.0140   12.9970   38.1050 C.ar  263  TRP263      0.0810
    136  CE3       32.8390   13.4440   39.0620 C.ar  263  TRP263      0.0012
    137  CZ2       34.7640   13.8440   37.0260 C.ar  263  TRP263      0.0191
    138  CZ3       32.5930   14.2840   37.9910 C.ar  263  TRP263      0.0001
    139  CH2       33.5510   14.4760   36.9870 C.ar  263  TRP263      0.0015
    140  N         41.8730   18.5190   39.9750 N.3   268  TYR268     -0.1241
    141  CA        40.6770   19.0500   40.6220 C.3   268  TYR268      0.1605
    142  C         40.9930   20.3810   41.2870 C.2   268  TYR268      0.2264
    143  O         41.7780   20.4370   42.2390 O.2   268  TYR268     -0.2867
    144  CB        40.1020   18.0670   41.6420 C.3   268  TYR268      0.0534
    145  CG        38.6420   18.3280   41.9270 C.ar  268  TYR268     -0.0201
    146  CD1       37.6830   18.1410   40.9400 C.ar  268  TYR268     -0.0009
    147  CD2       38.2240   18.7890   43.1680 C.ar  268  TYR268     -0.0009
    148  CE1       36.3470   18.3900   41.1850 C.ar  268  TYR268      0.0417
    149  CE2       36.8880   19.0400   43.4250 C.ar  268  TYR268      0.0417
    150  CZ        35.9540   18.8430   42.4270 C.ar  268  TYR268      0.1957
    151  OH        34.6220   19.0870   42.6700 O.3   268  TYR268     -0.2866
    152  N         35.4850   23.7940   40.8040 N.3   273  GLN273     -0.1231
    153  CA        34.5750   22.7610   40.3220 C.3   273  GLN273      0.1698
    154  C         33.5310   22.3640   41.3560 C.2   273  GLN273      0.2592
    155  O         32.5170   21.7600   40.9950 O.2   273  GLN273     -0.2718
    156  CB        35.3720   21.5340   39.8870 C.3   273  GLN273      0.0381
    157  CG        36.4300   21.8590   38.8580 C.3   273  GLN273      0.0905
    158  CD        37.3770   20.7080   38.5910 C.2   273  GLN273      0.2608
    159  OE1       38.5340   20.7360   39.0090 O.2   273  GLN273     -0.2717
    160  NE2       36.8940   19.6920   37.8850 N.am  273  GLN273     -0.0878
    161  N         33.7480   22.6880   42.6310 N.am  274  SER274     -0.1952
    162  CA        32.7970   22.3410   43.6840 C.3   274  SER274      0.1924
    163  C         32.2670   23.5880   44.3760 C.2   274  SER274      0.2314
    164  O         31.0660   23.8600   44.2970 O.2   274  SER274     -0.2863
    165  CB        33.4470   21.3780   44.6800 C.3   274  SER274      0.2116
    166  OG        32.4920   20.4890   45.2340 O.3   274  SER274     -0.2180
    167  N         30.7100   26.5110   41.9480 N.3   277  VAL277     -0.1231
    168  CA        29.4350   26.0900   41.3740 C.3   277  VAL277      0.1692
    169  C         28.3520   26.0940   42.4440 C.2   277  VAL277      0.2591
    170  O         27.2650   26.6510   42.2490 O.2   277  VAL277     -0.2718
    171  CB        29.5710   24.7070   40.7110 C.3   277  VAL277      0.0266
    172  CG1       28.2330   24.2630   40.1340 C.3   277  VAL277      0.0020
    173  CG2       30.6420   24.7460   39.6310 C.3   277  VAL277      0.0020
    174  N         28.6390   25.4800   43.5970 N.am  278  ALA278     -0.1980
    175  CA        27.6940   25.5120   44.7090 C.3   278  ALA278      0.1597
    176  C         27.3900   26.9450   45.1260 C.2   278  ALA278      0.2287
    177  O         26.2440   27.2780   45.4500 O.2   278  ALA278     -0.2864
    178  CB        28.2450   24.7110   45.8890 C.3   278  ALA278      0.0319
    179  N         25.1980   28.1930   42.3600 N.3   281  TYR281     -0.1241
    180  CA        23.9240   27.5000   42.4930 C.3   281  TYR281      0.1605
    181  C         23.2200   27.8380   43.8010 C.2   281  TYR281      0.2264
    182  O         21.9930   27.7140   43.8780 O.2   281  TYR281     -0.2867
    183  CB        24.1380   25.9900   42.3860 C.3   281  TYR281      0.0534
    184  CG        22.8650   25.1980   42.2070 C.ar  281  TYR281     -0.0201
    185  CD1       22.1060   25.3210   41.0510 C.ar  281  TYR281     -0.0009
    186  CD2       22.4280   24.3190   43.1900 C.ar  281  TYR281     -0.0009
    187  CE1       20.9430   24.5960   40.8800 C.ar  281  TYR281      0.0417
    188  CE2       21.2670   23.5900   43.0290 C.ar  281  TYR281      0.0417
    189  CZ        20.5290   23.7310   41.8730 C.ar  281  TYR281      0.1957
    190  OH        19.3720   23.0070   41.7100 O.3   281  TYR281     -0.2866
    191  N         24.2270   26.6570   47.1950 N.3   283  SER283     -0.1217
    192  CA        24.1330   25.5020   48.0800 C.3   283  SER283      0.1889
    193  C         25.4300   25.2670   48.8480 C.2   283  SER283      0.2288
    194  O         25.7340   24.1320   49.2260 O.2   283  SER283     -0.2866
    195  CB        23.7420   24.2500   47.2960 C.3   283  SER283      0.2089
    196  OG        24.6290   24.0250   46.2130 O.3   283  SER283     -0.2183
    197  N         27.2330   21.8580   51.6940 N.3   287  MET287     -0.1245
    198  CA        28.4510   21.2210   51.2080 C.3   287  MET287      0.1570
    199  C         29.3790   20.9540   52.3860 C.2   287  MET287      0.2261
    200  O         29.7610   21.8830   53.1060 O.2   287  MET287     -0.2867
    201  CB        29.1390   22.1020   50.1630 C.3   287  MET287      0.0387
    202  CG        30.3220   21.4550   49.4620 C.3   287  MET287      0.0595
    203  SD        29.8430   20.1970   48.2710 S.3   287  MET287     -0.1393
    204  CE        28.6310   21.0970   47.3110 C.3   287  MET287      0.0692
@<TRIPOS>BOND
     1   111   110    1
     2   110   107    1
     3   110   112    1
     4   125   124    1
     5   108   107    1
     6   108   109    2
     7   124   123    1
     8   106   107    1
     9   122   123    1
    10   122   119    1
    11   120   121    2
    12   120   119    1
    13   119   118    1
    14   113   114    1
    15   118   115   am
    16   115   114    1
    17   115   116    2
    18   114   117    1
    19    58    57    1
    20    59    57    1
    21   139   137   ar
    22   139   138   ar
    23   137   135   ar
    24    57    54    1
    25    48    47    2
    26    54    55    1
    27    54    53    1
    28    51    50    1
    29   160   158   am
    30   138   136   ar
    31   135   134   ar
    32   135   133   ar
    33    50    52    1
    34    50    49    1
    35    47    53   am
    36    47    46    1
    37   134   132   ar
    38    55    56    2
    39    71    69   ar
    40    71    73   ar
    41   158   157    1
    42   158   159    2
    43    68    69   ar
    44    68    66   ar
    45   157   156    1
    46    69    67   ar
    47    73    72   ar
    48   136   133   ar
    49   133   131   ar
    50    66    65   ar
    51    46    49    1
    52    46    45    1
    53   132   131   ar
    54   173   171    1
    55    60    61    1
    56   156   153    1
    57   140   141    1
    58    67    65   ar
    59    67    70   ar
    60    72    70   ar
    61    37    36    2
    62   131   130    1
    63   172   171    1
    64    65    64    1
    65   153   152    1
    66   153   154    1
    67   141   142    1
    68   141   144    1
    69   171   168    1
    70    45    36   am
    71   187   185   ar
    72   187   189   ar
    73    36    35    1
    74   146   148   ar
    75   146   145   ar
    76   155   154    2
    77   185   184   ar
    78    61    64    1
    79    61    62    1
    80    97    95    1
    81   148   150   ar
    82   142   143    2
    83   130   127    1
    84   154   161   am
    85   168   167    1
    86   168   169    1
    87   144   145    1
    88   190   189    1
    89   189   188   ar
    90   145   147   ar
    91   127   128    1
    92   127   126    1
    93   184   183    1
    94   184   186   ar
    95   170   169    2
    96   105   103    1
    97    62    63    2
    98    35    38    1
    99    35    34    1
   100    38    39    1
   101   179   180    1
   102   183   180    1
   103   150   151    1
   104   150   149   ar
   105   169   174   am
   106   180   181    1
   107   128   129    2
   108    95    94    1
   109   161   162    1
   110    96    94    1
   111   188   186   ar
   112    43    42    1
   113   147   149   ar
   114   104   102    1
   115    94    91    1
   116   103   102    1
   117   174   175    1
   118   162   163    1
   119   162   165    1
   120    39    40    1
   121    41    42    2
   122    41    40    1
   123    42    44    1
   124   181   182    2
   125   102    99    1
   126   164   163    2
   127   165   166    1
   128    77    76    2
   129   175   176    1
   130   175   178    1
   131    74    75    1
   132    91    90    1
   133    91    92    1
   134    99    98    1
   135    99   100    1
   136   176   177    2
   137    82    81    1
   138    81    80    1
   139    90    85   am
   140    80    79    1
   141    92    93    2
   142    79    78    1
   143    78    75    1
   144    76    75    1
   145    76    83   am
   146   100   101    2
   147    86    85    2
   148    85    84    1
   149   196   195    1
   150    33    31    1
   151    84    83    1
   152    84    87    1
   153    83    89    1
   154   191   192    1
   155   195   192    1
   156   204   203    1
   157    31    30    1
   158     7     8    1
   159     7     6    1
   160    10     9    1
   161    32    30    1
   162    25    22    1
   163     8     9    2
   164   192   193    1
   165     9    11    1
   166     4     3    2
   167   203   202    1
   168     5     6    1
   169     5     2    1
   170    89    88    1
   171    87    88    1
   172    30    27    1
   173   193   194    2
   174    21    22    1
   175    21    14   am
   176     3     2    1
   177     3    12   am
   178     1     2    1
   179    22    23    1
   180    27    28    1
   181    27    26    1
   182   202   201    1
   183    13    12    1
   184    13    14    1
   185    13    16    1
   186    24    23    2
   187    14    15    2
   188    28    29    2
   189   201   198    1
   190    17    16    1
   191    17    18    1
   192   198   197    1
   193   198   199    1
   194    18    19   ar
   195    18    20   ar
   196   199   200    2
