@<TRIPOS>MOLECULE
tmp/6b16B00.pdb
 140 130 0 0 0
SMALL
GASTEIGER

@<TRIPOS>ATOM
      1  N         11.3060  -20.5480  -16.0570 N.3    22  ILE22      -0.1231
      2  CA        12.1330  -19.4040  -16.4440 C.3    22  ILE22       0.1692
      3  C         12.3700  -18.4450  -15.2770 C.2    22  ILE22       0.2592
      4  O         13.3130  -17.6530  -15.2980 O.2    22  ILE22      -0.2718
      5  CB        11.5150  -18.6070  -17.6210 C.3    22  ILE22       0.0266
      6  CG1       10.2720  -17.8310  -17.1720 C.3    22  ILE22       0.0019
      7  CG2       11.2130  -19.5280  -18.7940 C.3    22  ILE22       0.0020
      8  CD1        9.8110  -16.7780  -18.1710 C.3    22  ILE22       0.0001
      9  N         11.5240  -18.5260  -14.2560 N.am   23  GLY23      -0.1957
     10  CA        11.6420  -17.6280  -13.1240 C.3    23  GLY23       0.1869
     11  C         10.9690  -18.1360  -11.8670 C.2    23  GLY23       0.2309
     12  O          9.9750  -18.8600  -11.9250 O.2    23  GLY23      -0.2863
     13  N          7.3000  -18.6200  -12.3810 N.3    30  VAL30      -0.1245
     14  CA         6.9290  -18.2240  -13.7370 C.3    30  VAL30       0.1561
     15  C          7.3890  -19.2320  -14.7930 C.2    30  VAL30       0.2260
     16  O          8.5810  -19.5280  -14.9130 O.2    30  VAL30      -0.2867
     17  CB         7.5110  -16.8430  -14.0930 C.3    30  VAL30       0.0252
     18  CG1        7.1090  -16.4470  -15.5030 C.3    30  VAL30       0.0019
     19  CG2        7.0400  -15.7940  -13.0930 C.3    30  VAL30       0.0019
     20  N          3.5430  -16.4240  -21.0630 N.3    43  ALA43      -0.1245
     21  CA         4.1590  -16.4560  -19.7450 C.3    43  ALA43       0.1562
     22  C          3.0810  -16.7440  -18.7060 C.2    43  ALA43       0.2260
     23  O          2.0680  -16.0520  -18.6470 O.2    43  ALA43      -0.2867
     24  CB         4.8680  -15.1320  -19.4460 C.3    43  ALA43       0.0290
     25  N          2.2100  -17.1650  -14.7160 N.3    45  LYS45      -0.1245
     26  CA         2.6050  -16.9840  -13.3260 C.3    45  LYS45       0.1561
     27  C          1.7800  -17.9090  -12.4390 C.2    45  LYS45       0.2260
     28  O          0.5480  -17.8880  -12.4720 O.2    45  LYS45      -0.2867
     29  CB         2.4440  -15.5230  -12.8930 C.3    45  LYS45       0.0271
     30  CG         2.9880  -15.2300  -11.5000 C.3    45  LYS45       0.0035
     31  CD         3.0990  -13.7330  -11.2330 C.3    45  LYS45       0.0206
     32  CE         4.1380  -13.0810  -12.1360 C.3    45  LYS45       0.1093
     33  NZ         4.3160  -11.6270  -11.8520 N.3    45  LYS45      -0.1314
     34  N          3.4250   -5.4670  -20.6360 N.3    74  VAL74      -0.1245
     35  CA         3.1640   -6.8950  -20.7340 C.3    74  VAL74       0.1561
     36  C          1.7210   -7.1290  -20.3080 C.2    74  VAL74       0.2260
     37  O          1.3740   -6.9360  -19.1420 O.2    74  VAL74      -0.2867
     38  CB         4.1220   -7.7280  -19.8630 C.3    74  VAL74       0.0252
     39  CG1        3.7420   -9.2050  -19.9170 C.3    74  VAL74       0.0019
     40  CG2        5.5500   -7.5310  -20.3140 C.3    74  VAL74       0.0019
     41  N          0.2480  -14.4130  -19.0520 N.3    90  MET90      -0.1230
     42  CA         0.6910  -13.1580  -19.6560 C.3    90  MET90       0.1702
     43  C          1.3710  -13.3920  -20.9960 C.2    90  MET90       0.2592
     44  O          1.9140  -14.4680  -21.2440 O.2    90  MET90      -0.2718
     45  CB         1.6490  -12.4210  -18.7220 C.3    90  MET90       0.0401
     46  CG         1.0130  -11.9240  -17.4350 C.3    90  MET90       0.0596
     47  SD         2.2520  -11.7550  -16.1420 S.3    90  MET90      -0.1393
     48  CE         1.2630  -11.0400  -14.8310 C.3    90  MET90       0.0692
     49  N          1.3550  -12.3820  -21.8570 N.am   91  GLU91      -0.1966
     50  CA         2.0300  -12.4980  -23.1440 C.3    91  GLU91       0.1733
     51  C          3.5430  -12.6150  -22.9340 C.2    91  GLU91       0.2616
     52  O          4.0970  -12.0460  -21.9980 O.2    91  GLU91      -0.2715
     53  CB         1.6790  -11.3150  -24.0540 C.3    91  GLU91       0.0429
     54  CG         2.0640   -9.9540  -23.5300 C.3    91  GLU91       0.1163
     55  CD         1.3340   -8.8300  -24.2500 C.2    91  GLU91       0.3649
     56  OE1        0.4810   -9.1210  -25.1150 O.co2  91  GLU91      -0.2457
     57  OE2        1.6080   -7.6530  -23.9420 O.co2  91  GLU91      -0.2457
     58  N          4.2020  -13.3860  -23.7890 N.am   92  TYR92      -0.1960
     59  CA         5.6200  -13.6620  -23.6030 C.3    92  TYR92       0.1771
     60  C          6.4860  -12.8900  -24.5950 C.2    92  TYR92       0.2619
     61  O          6.1880  -12.8370  -25.7880 O.2    92  TYR92      -0.2715
     62  CB         5.8830  -15.1680  -23.7230 C.3    92  TYR92       0.0574
     63  CG         7.3500  -15.5400  -23.7350 C.ar   92  TYR92      -0.0198
     64  CD1        8.1430  -15.3470  -22.6110 C.ar   92  TYR92      -0.0009
     65  CD2        7.9400  -16.0920  -24.8720 C.ar   92  TYR92      -0.0009
     66  CE1        9.4830  -15.6850  -22.6160 C.ar   92  TYR92       0.0417
     67  CE2        9.2800  -16.4400  -24.8860 C.ar   92  TYR92       0.0417
     68  CZ        10.0460  -16.2320  -23.7560 C.ar   92  TYR92       0.1957
     69  OH        11.3780  -16.5700  -23.7560 O.3    92  TYR92      -0.2866
     70  N          7.5530  -12.2800  -24.0900 N.am   93  LEU93      -0.1963
     71  CA         8.4980  -11.5530  -24.9400 C.3    93  LEU93       0.1728
     72  C          9.8370  -12.2610  -24.9280 C.2    93  LEU93       0.2616
     73  O         10.5160  -12.2900  -23.9030 O.2    93  LEU93      -0.2715
     74  CB         8.6520  -10.1000  -24.4770 C.3    93  LEU93       0.0311
     75  CG         7.8740   -9.0940  -25.3300 C.3    93  LEU93       0.0022
     76  CD1        6.3740   -9.3350  -25.2040 C.3    93  LEU93       0.0001
     77  CD2        8.2350   -7.6570  -24.9740 C.3    93  LEU93       0.0001
     78  N         10.2130  -12.8260  -26.0730 N.am   94  ALA94      -0.1977
     79  CA        11.3350  -13.7600  -26.1400 C.3    94  ALA94       0.1597
     80  C         12.7150  -13.0990  -26.1010 C.2    94  ALA94       0.2287
     81  O         13.7020  -13.7470  -25.7590 O.2    94  ALA94      -0.2864
     82  CB        11.2110  -14.6210  -27.3930 C.3    94  ALA94       0.0319
     83  N         14.0400  -11.0350  -24.0890 N.3    96  GLY96      -0.1210
     84  CA        14.6320  -10.8040  -22.7830 C.3    96  GLY96       0.1956
     85  C         14.7170   -9.3420  -22.3660 C.2    96  GLY96       0.2612
     86  O         14.1060   -8.4690  -22.9810 O.2    96  GLY96      -0.2717
     87  N         15.4930   -9.0840  -21.3180 N.am   97  SER97      -0.1952
     88  CA        15.4960   -7.7860  -20.6440 C.3    97  SER97       0.1924
     89  C         16.3630   -6.7490  -21.3380 C.2    97  SER97       0.2314
     90  O         17.2850   -7.0910  -22.0790 O.2    97  SER97      -0.2863
     91  CB        15.9820   -7.9420  -19.2030 C.3    97  SER97       0.2116
     92  OG        17.3700   -8.2450  -19.1850 O.3    97  SER97      -0.2180
     93  N         15.7930   -4.0510  -16.1110 N.3   139  ASP139     -0.1225
     94  CA        15.3270   -5.4350  -16.0460 C.3   139  ASP139      0.1805
     95  C         13.8070   -5.5470  -16.0230 C.2   139  ASP139      0.2597
     96  O         13.2680   -6.6460  -16.0820 O.2   139  ASP139     -0.2718
     97  CB        15.9270   -6.1660  -14.8440 C.3   139  ASP139      0.1424
     98  CG        16.2050   -5.2500  -13.6820 C.2   139  ASP139      0.3668
     99  OD1       17.3520   -5.2700  -13.1840 O.co2 139  ASP139     -0.2456
    100  OD2       15.2830   -4.5180  -13.2580 O.co2 139  ASP139     -0.2456
    101  N         13.1140   -4.4150  -15.9600 N.am  140  ASN140     -0.1974
    102  CA        11.6610   -4.4220  -16.0560 C.3   140  ASN140      0.1688
    103  C         11.2090   -4.0160  -17.4460 C.2   140  ASN140      0.2292
    104  O         10.0140   -3.8730  -17.7130 O.2   140  ASN140     -0.2864
    105  CB        11.0370   -3.5090  -15.0000 C.3   140  ASN140      0.1181
    106  CG        11.0210   -4.1440  -13.6250 C.2   140  ASN140      0.2629
    107  OD1       11.1280   -5.3620  -13.4930 O.2   140  ASN140     -0.2716
    108  ND2       10.8900   -3.3200  -12.5930 N.am  140  ASN140     -0.0877
    109  N         11.0910   -5.3160  -21.2110 N.3   142  LEU142     -0.1245
    110  CA        11.2080   -6.5250  -22.0040 C.3   142  LEU142      0.1561
    111  C         11.1380   -6.2120  -23.4910 C.2   142  LEU142      0.2260
    112  O         10.4200   -5.3010  -23.9190 O.2   142  LEU142     -0.2867
    113  CB        10.1210   -7.5270  -21.6170 C.3   142  LEU142      0.0270
    114  CG        10.2420   -8.0990  -20.2010 C.3   142  LEU142      0.0019
    115  CD1        8.9960   -8.8920  -19.8420 C.3   142  LEU142      0.0001
    116  CD2       11.4840   -8.9670  -20.0850 C.3   142  LEU142      0.0001
    117  N          7.0470   -4.1840  -17.5110 N.3   152  THR152     -0.1203
    118  CA         6.4630   -5.1810  -16.6230 C.3   152  THR152      0.1994
    119  C          6.8010   -4.8910  -15.1620 C.2   152  THR152      0.2617
    120  O          7.4870   -3.9090  -14.8580 O.2   152  THR152     -0.2717
    121  CB         6.9270   -6.6130  -16.9750 C.3   152  THR152      0.1784
    122  OG1        6.2570   -7.5480  -16.1200 O.3   152  THR152     -0.2211
    123  CG2        8.4270   -6.7570  -16.7970 C.3   152  THR152      0.0376
    124  N          6.2990   -5.7500  -14.2750 N.am  153  ASP153     -0.1973
    125  CA         6.5230   -5.6590  -12.8290 C.3   153  ASP153      0.1709
    126  C          5.9800   -4.3610  -12.2310 C.2   153  ASP153      0.2293
    127  O          6.7220   -3.5790  -11.6370 O.2   153  ASP153     -0.2864
    128  CB         8.0150   -5.8070  -12.5060 C.3   153  ASP153      0.1436
    129  CG         8.2800   -5.9700  -11.0190 C.2   153  ASP153      0.3671
    130  OD1        7.9860   -7.0570  -10.4800 O.co2 153  ASP153     -0.2456
    131  OD2        8.7930   -5.0160  -10.3950 O.co2 153  ASP153     -0.2456
    132  N         21.9340  -12.1600  -26.7920 N.3   277  LYS277     -0.1245
    133  CA        21.7100  -13.6010  -26.7470 C.3   277  LYS277      0.1561
    134  C         22.9800  -14.3830  -27.0590 C.2   277  LYS277      0.2260
    135  O         23.2890  -15.3640  -26.3830 O.2   277  LYS277     -0.2867
    136  CB        20.5960  -13.9980  -27.7170 C.3   277  LYS277      0.0271
    137  CG        19.2470  -14.1890  -27.0350 C.3   277  LYS277      0.0035
    138  CD        18.0880  -13.9070  -27.9780 C.3   277  LYS277      0.0206
    139  CE        16.7660  -14.2820  -27.3340 C.3   277  LYS277      0.1093
    140  NZ        16.7190  -13.8500  -25.9090 N.3   277  LYS277     -0.1314
@<TRIPOS>BOND
     1   138   139    1
     2   138   137    1
     3   136   137    1
     4   136   133    1
     5    82    79    1
     6   139   140    1
     7   134   133    1
     8   134   135    2
     9   132   133    1
    10    79    80    1
    11    79    78    1
    12    80    81    2
    13    78    72   am
    14    61    60    2
    15    75    76    1
    16    75    77    1
    17    75    74    1
    18    56    55   ar
    19    71    72    1
    20    71    74    1
    21    71    70    1
    22    72    73    2
    23    67    65   ar
    24    67    68   ar
    25    65    63   ar
    26    60    70   am
    27    60    59    1
    28    55    57   ar
    29    55    54    1
    30    83    84    1
    31    53    54    1
    32    53    50    1
    33   112   111    2
    34    58    59    1
    35    58    51   am
    36    68    69    1
    37    68    66   ar
    38    63    62    1
    39    63    64   ar
    40    62    59    1
    41   111   110    1
    42    50    51    1
    43    50    49    1
    44    86    85    2
    45    51    52    2
    46    84    85    1
    47    66    64   ar
    48    85    87   am
    49    90    89    2
    50   110   113    1
    51   110   109    1
    52    49    43   am
    53   113   114    1
    54    89    88    1
    55    87    88    1
    56    44    43    2
    57    20    21    1
    58    43    42    1
    59    35    34    1
    60    35    36    1
    61    35    38    1
    62    88    91    1
    63    40    38    1
    64    36    37    2
    65   114   116    1
    66   114   115    1
    67    39    38    1
    68    21    24    1
    69    21    22    1
    70    42    41    1
    71    42    45    1
    72    91    92    1
    73     7     5    1
    74    45    46    1
    75    22    23    2
    76     8     6    1
    77   104   103    2
    78     5     6    1
    79     5     2    1
    80   117   118    1
    81   103   102    1
    82    46    47    1
    83   121   123    1
    84   121   118    1
    85   121   122    1
    86   118   119    1
    87     2     1    1
    88     2     3    1
    89    47    48    1
    90    93    94    1
    91    96    95    2
    92   102   101    1
    93   102   105    1
    94    94    95    1
    95    94    97    1
    96    95   101   am
    97    18    17    1
    98     4     3    2
    99     3     9   am
   100   119   120    2
   101   119   124   am
   102   105   106    1
   103    16    15    2
   104    97    98    1
   105    15    14    1
   106    25    26    1
   107   124   125    1
   108     9    10    1
   109    17    14    1
   110    17    19    1
   111    14    13    1
   112    98   100   ar
   113    98    99   ar
   114   106   107    2
   115   106   108   am
   116    26    29    1
   117    26    27    1
   118    10    11    1
   119    29    30    1
   120   125   128    1
   121   125   126    1
   122   128   129    1
   123    28    27    2
   124   126   127    2
   125    32    33    1
   126    32    31    1
   127    12    11    2
   128    30    31    1
   129   129   130   ar
   130   129   131   ar
