@<TRIPOS>MOLECULE
tmp/6b18A00.pdb
 124 117 0 0 0
SMALL
GASTEIGER

@<TRIPOS>ATOM
      1  N         24.4800    7.7430   18.6050 N.3    76  ALA76      -0.1245
      2  CA        25.4430    8.8310   18.5570 C.3    76  ALA76       0.1562
      3  C         26.6900    8.5700   17.7510 C.2    76  ALA76       0.2260
      4  O         27.6390    9.3080   17.8810 O.2    76  ALA76      -0.2867
      5  CB        25.8090    9.2750   19.9670 C.3    76  ALA76       0.0290
      6  N         26.7460    9.0800   14.6000 N.3    78  GLY78      -0.1225
      7  CA        26.6510   10.0680   13.4930 C.3    78  GLY78       0.1811
      8  C         25.8240    9.5950   12.2980 C.2    78  GLY78       0.2280
      9  O         25.8460   10.2180   11.2360 O.2    78  GLY78      -0.2866
     10  N         22.3720    9.3280   11.5070 N.3    80  ASP80      -0.1225
     11  CA        21.3660   10.2820   10.9930 C.3    80  ASP80       0.1805
     12  C         21.9810   11.4960   10.2930 C.2    80  ASP80       0.2598
     13  O         21.5190   11.8970    9.2290 O.2    80  ASP80      -0.2718
     14  CB        20.4240   10.7630   12.1020 C.3    80  ASP80       0.1424
     15  CG        19.4690    9.6600   12.6230 C.2    80  ASP80       0.3668
     16  OD1       19.5040    8.4890   12.1830 O.co2  80  ASP80      -0.2456
     17  OD2       18.6760    9.9750   13.5300 O.co2  80  ASP80      -0.2456
     18  N         23.0260   12.0670   10.8760 N.am   81  GLY81      -0.1957
     19  CA        23.7410   13.1900   10.2580 C.3    81  GLY81       0.1869
     20  C         24.3780   12.8440    8.9370 C.2    81  GLY81       0.2309
     21  O         24.2530   13.5840    7.9790 O.2    81  GLY81      -0.2863
     22  N         29.6250   12.5420   23.2980 N.3   202  ARG202     -0.1231
     23  CA        28.5300   13.0590   22.4860 C.3   202  ARG202      0.1694
     24  C         27.2190   13.1110   23.2380 C.2   202  ARG202      0.2592
     25  O         26.5270   14.1160   23.1800 O.2   202  ARG202     -0.2718
     26  CB        28.3980   12.2280   21.2180 C.3   202  ARG202      0.0321
     27  CG        29.5570   12.4380   20.2800 C.3   202  ARG202      0.0489
     28  CD        29.4350   11.5500   19.0710 C.3   202  ARG202      0.2205
     29  NE        30.6010   11.7330   18.2200 N.pl3 202  ARG202     -0.0865
     30  CZ        30.8710   11.0530   17.1160 C.cat 202  ARG202      0.5346
     31  NH1       30.0620   10.0970   16.6690 N.pl3 202  ARG202      0.1354
     32  NH2       31.9840   11.3390   16.4390 N.pl3 202  ARG202      0.1354
     33  N         26.8970   12.0410   23.9520 N.am  203  PHE203     -0.1976
     34  CA        25.7460   12.0190   24.8750 C.3   203  PHE203      0.1639
     35  C         25.7620   13.2130   25.8540 C.2   203  PHE203      0.2290
     36  O         24.7790   13.9340   25.9770 O.2   203  PHE203     -0.2864
     37  CB        25.7400   10.7240   25.7040 C.3   203  PHE203      0.0560
     38  CG        25.1340    9.5080   25.0280 C.ar  203  PHE203     -0.0200
     39  CD1       24.6930    9.5000   23.7110 C.ar  203  PHE203     -0.0042
     40  CD2       25.0510    8.3120   25.7440 C.ar  203  PHE203     -0.0042
     41  CE1       24.1340    8.3410   23.1500 C.ar  203  PHE203     -0.0003
     42  CE2       24.5080    7.1590   25.1760 C.ar  203  PHE203     -0.0003
     43  CZ        24.0480    7.1750   23.8770 C.ar  203  PHE203     -0.0000
     44  N         25.0960   16.5320   24.0480 N.3   206  ARG206     -0.1231
     45  CA        23.6570   16.6420   23.7460 C.3   206  ARG206      0.1694
     46  C         22.8560   17.0110   24.9960 C.2   206  ARG206      0.2591
     47  O         21.9580   17.8680   24.9400 O.2   206  ARG206     -0.2718
     48  CB        23.0360   15.3180   23.2300 C.3   206  ARG206      0.0321
     49  CG        23.4000   14.7930   21.8440 C.3   206  ARG206      0.0489
     50  CD        22.9370   13.3200   21.7260 C.3   206  ARG206      0.2205
     51  NE        22.9840   12.7460   20.3670 N.pl3 206  ARG206     -0.0865
     52  CZ        22.5980   11.5020   20.0410 C.cat 206  ARG206      0.5346
     53  NH1       22.1240   10.6510   20.9590 N.pl3 206  ARG206      0.1354
     54  NH2       22.6900   11.1060   18.7740 N.pl3 206  ARG206      0.1354
     55  N         23.1350   16.3220   26.1030 N.am  207  ILE207     -0.1980
     56  CA        22.4900   16.6400   27.3930 C.3   207  ILE207      0.1595
     57  C         22.6710   18.0910   27.7790 C.2   207  ILE207      0.2287
     58  O         21.7570   18.6780   28.3030 O.2   207  ILE207     -0.2864
     59  CB        22.9690   15.7300   28.5280 C.3   207  ILE207      0.0276
     60  CG1       22.3360   14.3520   28.3620 C.3   207  ILE207      0.0022
     61  CG2       22.5800   16.2680   29.9040 C.3   207  ILE207      0.0022
     62  CD1       22.9090   13.2950   29.2770 C.3   207  ILE207      0.0001
     63  N         18.8660   20.8670   21.8550 N.3   212  LYS212     -0.1231
     64  CA        18.6510   19.4150   21.6240 C.3   212  LYS212      0.1693
     65  C         17.9850   18.6160   22.7740 C.2   212  LYS212      0.2592
     66  O         17.4640   17.5160   22.5580 O.2   212  LYS212     -0.2718
     67  CB        20.0040   18.7530   21.3270 C.3   212  LYS212      0.0285
     68  CG        20.7490   19.3500   20.1410 C.3   212  LYS212      0.0035
     69  CD        22.0570   18.6210   19.8280 C.3   212  LYS212      0.0206
     70  CE        22.7550   19.2870   18.6350 C.3   212  LYS212      0.1093
     71  NZ        23.8530   18.4920   18.0130 N.3   212  LYS212     -0.1314
     72  N         18.0380   19.1620   23.9850 N.am  213  ASN213     -0.1974
     73  CA        17.5690   18.5030   25.2160 C.3   213  ASN213      0.1688
     74  C         16.2250   17.8320   25.2110 C.2   213  ASN213      0.2292
     75  O         16.0600   16.7940   25.8310 O.2   213  ASN213     -0.2864
     76  CB        17.5040   19.5570   26.3600 C.3   213  ASN213      0.1181
     77  CG        18.8160   19.7270   27.0310 C.2   213  ASN213      0.2629
     78  OD1       19.1380   20.7760   27.5600 O.2   213  ASN213     -0.2716
     79  ND2       19.6170   18.6710   26.9860 N.am  213  ASN213     -0.0877
     80  N         14.6150   16.2660   23.0520 N.3   215  LYS215     -0.1231
     81  CA        14.5440   14.9900   22.3270 C.3   215  LYS215      0.1693
     82  C         14.8530   13.7770   23.1850 C.2   215  LYS215      0.2592
     83  O         14.5850   12.6450   22.7590 O.2   215  LYS215     -0.2718
     84  CB        15.5350   14.9810   21.1780 C.3   215  LYS215      0.0285
     85  CG        15.2860   16.0430   20.1300 C.3   215  LYS215      0.0035
     86  CD        16.4820   16.1450   19.2100 C.3   215  LYS215      0.0206
     87  CE        16.0780   16.4490   17.7760 C.3   215  LYS215      0.1093
     88  NZ        16.9670   15.6820   16.8590 N.3   215  LYS215     -0.1314
     89  N         15.4590   13.9860   24.3540 N.am  216  PHE216     -0.1976
     90  CA        15.7110   12.8870   25.2670 C.3   216  PHE216      0.1639
     91  C         14.3960   12.3650   25.8420 C.2   216  PHE216      0.2290
     92  O         13.5720   13.1370   26.3380 O.2   216  PHE216     -0.2864
     93  CB        16.6250   13.3130   26.4190 C.3   216  PHE216      0.0560
     94  CG        16.7320   12.2880   27.5210 C.ar  216  PHE216     -0.0200
     95  CD1       15.8310   12.2940   28.5850 C.ar  216  PHE216     -0.0042
     96  CD2       17.7310   11.3120   27.4920 C.ar  216  PHE216     -0.0042
     97  CE1       15.9260   11.3510   29.6030 C.ar  216  PHE216     -0.0003
     98  CE2       17.8290   10.3650   28.5060 C.ar  216  PHE216     -0.0003
     99  CZ        16.9270   10.3830   29.5660 C.ar  216  PHE216     -0.0000
    100  N         16.8500    6.4800   27.0960 N.3   220  ASP220     -0.1225
    101  CA        17.6440    6.5960   25.8680 C.3   220  ASP220      0.1805
    102  C         19.0960    6.1170   26.0000 C.2   220  ASP220      0.2597
    103  O         19.7510    5.8990   24.9960 O.2   220  ASP220     -0.2718
    104  CB        17.6360    8.0410   25.3350 C.3   220  ASP220      0.1424
    105  CG        16.3240    8.4210   24.6500 C.2   220  ASP220      0.3668
    106  OD1       15.3370    7.6390   24.7210 O.co2 220  ASP220     -0.2456
    107  OD2       16.2780    9.5360   24.0540 O.co2 220  ASP220     -0.2456
    108  N         19.6100    6.0020   27.2190 N.am  221  LEU221     -0.1979
    109  CA        20.9620    5.4710   27.4730 C.3   221  LEU221      0.1596
    110  C         20.9920    3.9850   27.7440 C.2   221  LEU221      0.2287
    111  O         22.0580    3.4270   27.9330 O.2   221  LEU221     -0.2864
    112  CB        21.5760    6.1440   28.6970 C.3   221  LEU221      0.0297
    113  CG        22.2480    7.5020   28.5360 C.3   221  LEU221      0.0022
    114  CD1       21.4230    8.5180   27.7590 C.3   221  LEU221      0.0001
    115  CD2       22.5730    7.9850   29.9450 C.3   221  LEU221      0.0001
    116  N         33.6850   12.9820   12.5550 N.3   256  LYS256     -0.1245
    117  CA        32.5160   12.9520   11.6790 C.3   256  LYS256      0.1561
    118  C         32.7610   13.3410   10.2350 C.2   256  LYS256      0.2260
    119  O         32.1990   12.7070    9.3240 O.2   256  LYS256     -0.2867
    120  CB        31.4040   13.8240   12.2320 C.3   256  LYS256      0.0271
    121  CG        30.7310   13.1960   13.4330 C.3   256  LYS256      0.0035
    122  CD        29.6400   14.0980   13.9310 C.3   256  LYS256      0.0206
    123  CE        28.8660   13.4420   15.0470 C.3   256  LYS256      0.1093
    124  NZ        27.9490   14.4520   15.6320 N.3   256  LYS256     -0.1314
@<TRIPOS>BOND
     1    21    20    2
     2    20    19    1
     3    13    12    2
     4   119   118    2
     5   118   117    1
     6    19    18    1
     7    12    18   am
     8    12    11    1
     9    11    10    1
    10    11    14    1
    11     9     8    2
    12   117   120    1
    13   117   116    1
    14    14    15    1
    15    16    15   ar
    16   120   121    1
    17     8     7    1
    18    15    17   ar
    19   121   122    1
    20     7     6    1
    21   122   123    1
    22   123   124    1
    23    32    30    1
    24    31    30    1
    25    88    87    1
    26    30    29    2
    27     3     4    2
    28     3     2    1
    29    87    86    1
    30    71    70    1
    31    29    28    1
    32     2     1    1
    33     2     5    1
    34    70    69    1
    35    54    52    1
    36    28    27    1
    37    86    85    1
    38    69    68    1
    39    52    51    2
    40    52    53    1
    41    85    84    1
    42    68    67    1
    43    27    26    1
    44    51    50    1
    45    84    81    1
    46    26    23    1
    47    67    64    1
    48    64    63    1
    49    64    65    1
    50    50    49    1
    51    49    48    1
    52    81    80    1
    53    81    82    1
    54    23    24    1
    55    23    22    1
    56    66    65    2
    57    83    82    2
    58    65    72   am
    59    41    39   ar
    60    41    43   ar
    61    25    24    2
    62    82    89   am
    63    48    45    1
    64    24    33   am
    65    39    38   ar
    66    45    44    1
    67    45    46    1
    68    43    42   ar
    69    33    34    1
    70    72    73    1
    71   107   105   ar
    72    89    90    1
    73   105   106   ar
    74   105   104    1
    75    34    37    1
    76    34    35    1
    77    47    46    2
    78    46    55   am
    79   103   102    2
    80    38    37    1
    81    38    40   ar
    82    42    40   ar
    83    74    73    1
    84    74    75    2
    85    73    76    1
    86    90    91    1
    87    90    93    1
    88   104   101    1
    89    91    92    2
    90    35    36    2
    91   101   102    1
    92   101   100    1
    93   102   108   am
    94    55    56    1
    95    76    77    1
    96    93    94    1
    97    79    77   am
    98    77    78    2
    99   108   109    1
   100    56    57    1
   101    56    59    1
   102   109   110    1
   103   109   112    1
   104    96    94   ar
   105    96    98   ar
   106    94    95   ar
   107   110   111    2
   108   114   113    1
   109    57    58    2
   110    60    59    1
   111    60    62    1
   112    98    99   ar
   113    59    61    1
   114   113   112    1
   115   113   115    1
   116    95    97   ar
   117    99    97   ar
