@<TRIPOS>MOLECULE
tmp/6b1dA00.pdb
 149 136 0 0 0
SMALL
GASTEIGER

@<TRIPOS>ATOM
      1  N         34.5670   14.8340  -12.2290 N.3    33  ILE33      -0.1245
      2  CA        34.4690   14.6620  -13.6810 C.3    33  ILE33       0.1561
      3  C         34.0300   13.2540  -14.0440 C.2    33  ILE33       0.2260
      4  O         34.7740   12.3080  -13.7890 O.2    33  ILE33      -0.2867
      5  CB        35.8090   14.9530  -14.3700 C.3    33  ILE33       0.0252
      6  CG1       36.3740   16.2910  -13.8800 C.3    33  ILE33       0.0019
      7  CG2       35.6480   14.9520  -15.8920 C.3    33  ILE33       0.0019
      8  CD1       37.7060   16.6680  -14.4860 C.3    33  ILE33       0.0001
      9  N         33.7110   11.4920  -16.8210 N.3    35  ASP35      -0.1225
     10  CA        34.5290   10.7110  -17.7510 C.3    35  ASP35       0.1805
     11  C         35.8190   10.1440  -17.1140 C.2    35  ASP35       0.2597
     12  O         36.3430    9.1040  -17.5250 O.2    35  ASP35      -0.2718
     13  CB        34.8680   11.5240  -18.9900 C.3    35  ASP35       0.1424
     14  CG        33.7130   11.6190  -19.9550 C.2    35  ASP35       0.3668
     15  OD1       32.6700   10.9300  -19.7850 O.co2  35  ASP35      -0.2456
     16  OD2       33.8440   12.3990  -20.9210 O.co2  35  ASP35      -0.2456
     17  N         36.3300   10.8310  -16.1100 N.am   36  VAL36      -0.1980
     18  CA        37.5260   10.3490  -15.4240 C.3    36  VAL36       0.1595
     19  C         37.1510    9.2280  -14.4600 C.2    36  VAL36       0.2287
     20  O         36.4980    9.4730  -13.4700 O.2    36  VAL36      -0.2864
     21  CB        38.2270   11.4790  -14.6680 C.3    36  VAL36       0.0276
     22  CG1       39.4190   10.9480  -13.8700 C.3    36  VAL36       0.0022
     23  CG2       38.6990   12.5440  -15.6460 C.3    36  VAL36       0.0022
     24  N         45.8450    8.1860  -16.3820 N.3    54  LEU54      -0.1245
     25  CA        44.4590    8.5900  -16.2490 C.3    54  LEU54       0.1561
     26  C         43.6130    7.6510  -17.0530 C.2    54  LEU54       0.2260
     27  O         43.8810    7.4080  -18.2250 O.2    54  LEU54      -0.2867
     28  CB        44.2040   10.0000  -16.7650 C.3    54  LEU54       0.0270
     29  CG        44.5400   11.1290  -15.7980 C.3    54  LEU54       0.0019
     30  CD1       46.0460   11.3190  -15.7760 C.3    54  LEU54       0.0001
     31  CD2       43.8840   12.4400  -16.1820 C.3    54  LEU54       0.0001
     32  N         40.0790    7.1510  -18.7230 N.3    56  ILE56      -0.1245
     33  CA        38.9110    7.8860  -19.2030 C.3    56  ILE56       0.1561
     34  C         37.9480    6.9610  -19.9490 C.2    56  ILE56       0.2260
     35  O         38.3390    5.9320  -20.5100 O.2    56  ILE56      -0.2867
     36  CB        39.2160    9.2320  -19.9000 C.3    56  ILE56       0.0252
     37  CG1       40.0360    9.1440  -21.1650 C.3    56  ILE56       0.0019
     38  CG2       39.7880   10.1890  -18.8650 C.3    56  ILE56       0.0019
     39  CD1       39.2110    9.2310  -22.4350 C.3    56  ILE56       0.0001
     40  N         35.0860    7.5820  -22.7670 N.3    58  GLU58      -0.1245
     41  CA        34.5070    8.4740  -23.7650 C.3    58  GLU58       0.1567
     42  C         33.7630    7.6530  -24.8120 C.2    58  GLU58       0.2260
     43  O         34.3880    6.7900  -25.4490 O.2    58  GLU58      -0.2867
     44  CB        35.6530    9.1980  -24.4630 C.3    58  GLU58       0.0388
     45  CG        35.2800   10.1870  -25.5560 C.3    58  GLU58       0.1160
     46  CD        36.4900   10.8830  -26.1560 C.2    58  GLU58       0.3649
     47  OE1       37.6430   10.4690  -25.8790 O.co2  58  GLU58      -0.2457
     48  OE2       36.2850   11.8480  -26.9270 O.co2  58  GLU58      -0.2457
     49  N         39.8960    4.5530  -22.3170 N.3    63  LYS63      -0.1245
     50  CA        41.1080    5.0790  -22.8870 C.3    63  LYS63       0.1561
     51  C         41.9720    5.5860  -21.7660 C.2    63  LYS63       0.2260
     52  O         41.5160    5.8120  -20.6430 O.2    63  LYS63      -0.2867
     53  CB        40.7920    6.2210  -23.8330 C.3    63  LYS63       0.0271
     54  CG        39.9640    5.8200  -25.0430 C.3    63  LYS63       0.0035
     55  CD        39.5020    7.0410  -25.8120 C.3    63  LYS63       0.0206
     56  CE        38.4880    6.6970  -26.8760 C.3    63  LYS63       0.1093
     57  NZ        38.3250    7.8700  -27.7830 N.3    63  LYS63      -0.1314
     58  N         45.1880    8.2130  -20.5520 N.3    65  ILE65      -0.1245
     59  CA        46.0410    9.3790  -20.7660 C.3    65  ILE65       0.1561
     60  C         47.2490    9.2560  -19.8380 C.2    65  ILE65       0.2260
     61  O         47.0980    8.9240  -18.6620 O.2    65  ILE65      -0.2867
     62  CB        45.3020   10.6960  -20.5130 C.3    65  ILE65       0.0252
     63  CG1       44.1700   10.8370  -21.5250 C.3    65  ILE65       0.0019
     64  CG2       46.2420   11.8950  -20.6290 C.3    65  ILE65       0.0019
     65  CD1       43.2430   11.9840  -21.1950 C.3    65  ILE65       0.0001
     66  N         50.4960   11.0820  -18.0770 N.3    67  HIS67      -0.1241
     67  CA        51.0890   12.3230  -17.6050 C.3    67  HIS67       0.1621
     68  C         52.4270   12.0700  -16.9890 C.2    67  HIS67       0.2264
     69  O         52.6280   11.0770  -16.3140 O.2    67  HIS67      -0.2867
     70  CB        50.2530   12.9480  -16.5170 C.3    67  HIS67       0.0745
     71  CG        49.0670   13.6990  -17.0180 C.ar   67  HIS67       0.0817
     72  ND1       48.2000   14.3450  -16.1660 N.ar   67  HIS67      -0.2268
     73  CD2       48.5980   13.9120  -18.2680 C.ar   67  HIS67       0.1154
     74  CE1       47.2360   14.9130  -16.8690 C.ar   67  HIS67       0.1986
     75  NE2       47.4580   14.6710  -18.1470 N.ar   67  HIS67      -0.2212
     76  N         53.7970   19.8450  -15.9360 N.3    81  TYR81      -0.1241
     77  CA        53.6130   18.4510  -16.3570 C.3    81  TYR81       0.1605
     78  C         53.3510   18.3120  -17.8490 C.2    81  TYR81       0.2264
     79  O         52.9660   19.2570  -18.5420 O.2    81  TYR81      -0.2867
     80  CB        52.4830   17.7710  -15.5840 C.3    81  TYR81       0.0534
     81  CG        51.1240   18.2560  -15.9940 C.ar   81  TYR81      -0.0201
     82  CD1       50.5970   19.4140  -15.4460 C.ar   81  TYR81      -0.0009
     83  CD2       50.3750   17.5730  -16.9680 C.ar   81  TYR81      -0.0009
     84  CE1       49.3530   19.8710  -15.8360 C.ar   81  TYR81       0.0417
     85  CE2       49.1350   18.0270  -17.3680 C.ar   81  TYR81       0.0417
     86  CZ        48.6300   19.1770  -16.7930 C.ar   81  TYR81       0.1957
     87  OH        47.3870   19.6160  -17.1780 O.3    81  TYR81      -0.2866
     88  N         51.6740   15.7530  -21.0600 N.3    83  VAL83      -0.1245
     89  CA        50.9830   14.6220  -21.6670 C.3    83  VAL83       0.1561
     90  C         52.0700   13.9320  -22.4570 C.2    83  VAL83       0.2260
     91  O         52.6890   14.5440  -23.2940 O.2    83  VAL83      -0.2867
     92  CB        49.8610   15.0440  -22.6280 C.3    83  VAL83       0.0252
     93  CG1       49.2670   13.8400  -23.3680 C.3    83  VAL83       0.0019
     94  CG2       48.7840   15.7540  -21.8570 C.3    83  VAL83       0.0019
     95  N         45.4100    8.9690  -25.4470 N.3    87  VAL87      -0.1231
     96  CA        44.5110    9.5780  -26.4390 C.3    87  VAL87       0.1692
     97  C         44.6720   11.0930  -26.5650 C.2    87  VAL87       0.2591
     98  O         44.3630   11.6500  -27.5950 O.2    87  VAL87      -0.2718
     99  CB        43.0400    9.2360  -26.1570 C.3    87  VAL87       0.0266
    100  CG1       42.5520    9.9190  -24.8760 C.3    87  VAL87       0.0020
    101  CG2       42.1650    9.5850  -27.3610 C.3    87  VAL87       0.0020
    102  N         45.1400   11.7450  -25.5120 N.am   88  ALA88      -0.1980
    103  CA        45.3500   13.2030  -25.5430 C.3    88  ALA88       0.1597
    104  C         46.6010   13.6200  -26.2630 C.2    88  ALA88       0.2287
    105  O         46.8370   14.8060  -26.3950 O.2    88  ALA88      -0.2864
    106  CB        45.4000   13.7760  -24.1370 C.3    88  ALA88       0.0319
    107  N         42.5510   19.2710  -31.9000 N.3   130  GLU130     -0.1245
    108  CA        43.0440   18.6860  -30.6460 C.3   130  GLU130      0.1567
    109  C         43.3510   19.7620  -29.5990 C.2   130  GLU130      0.2260
    110  O         43.1470   19.5490  -28.4050 O.2   130  GLU130     -0.2867
    111  CB        44.2670   17.8000  -30.8970 C.3   130  GLU130      0.0388
    112  CG        43.9500   16.5070  -31.6550 C.3   130  GLU130      0.1160
    113  CD        42.9270   15.6060  -30.9800 C.2   130  GLU130      0.3649
    114  OE1       42.8830   15.5650  -29.7340 O.co2 130  GLU130     -0.2457
    115  OE2       42.1720   14.9210  -31.6990 O.co2 130  GLU130     -0.2457
    116  N         40.1050   20.7350  -28.0390 N.3   133  LYS133     -0.1231
    117  CA        39.7890   19.6340  -27.0880 C.3   133  LYS133      0.1693
    118  C         40.6280   19.6680  -25.7800 C.2   133  LYS133      0.2592
    119  O         40.0780   19.6740  -24.6680 O.2   133  LYS133     -0.2718
    120  CB        39.8990   18.2420  -27.7730 C.3   133  LYS133      0.0285
    121  CG        38.7090   17.8660  -28.6360 C.3   133  LYS133      0.0035
    122  CD        38.7760   16.4170  -29.1130 C.3   133  LYS133      0.0206
    123  CE        37.5090   16.0620  -29.8920 C.3   133  LYS133      0.1093
    124  NZ        37.7490   15.2890  -31.1410 N.3   133  LYS133     -0.1314
    125  N         41.9470   19.7180  -25.9240 N.am  134  GLY134     -0.1957
    126  CA        42.8570   19.8930  -24.7850 C.3   134  GLY134      0.1869
    127  C         42.5110   21.1370  -23.9560 C.2   134  GLY134      0.2309
    128  O         42.4390   21.0630  -22.7450 O.2   134  GLY134     -0.2863
    129  N         39.2210   20.5590  -21.9320 N.3   137  LYS137     -0.1231
    130  CA        39.4330   19.5520  -20.8800 C.3   137  LYS137      0.1693
    131  C         40.3130   20.1120  -19.7440 C.2   137  LYS137      0.2592
    132  O         40.0440   19.8650  -18.5640 O.2   137  LYS137     -0.2718
    133  CB        40.0050   18.2320  -21.4330 C.3   137  LYS137      0.0285
    134  CG        39.1490   17.5070  -22.4770 C.3   137  LYS137      0.0035
    135  CD        37.7750   17.0410  -22.0140 C.3   137  LYS137      0.0206
    136  CE        37.0150   16.4290  -23.1930 C.3   137  LYS137      0.1093
    137  NZ        35.5560   16.2710  -22.9770 N.3   137  LYS137     -0.1314
    138  N         41.3500   20.8650  -20.1130 N.am  138  GLY138     -0.1957
    139  CA        42.2360   21.5450  -19.1510 C.3   138  GLY138      0.1869
    140  C         41.4900   22.5490  -18.2850 C.2   138  GLY138      0.2309
    141  O         41.6270   22.5540  -17.0710 O.2   138  GLY138     -0.2863
    142  N         39.2590   20.8990  -15.8400 N.3   141  LEU141     -0.1245
    143  CA        40.0480   20.3100  -14.7630 C.3   141  LEU141      0.1561
    144  C         40.2910   21.3500  -13.6670 C.2   141  LEU141      0.2260
    145  O         40.0490   21.1170  -12.4880 O.2   141  LEU141     -0.2867
    146  CB        41.3780   19.7750  -15.2950 C.3   141  LEU141      0.0270
    147  CG        42.1870   18.8570  -14.3620 C.3   141  LEU141      0.0019
    148  CD1       41.6410   17.4370  -14.4940 C.3   141  LEU141      0.0001
    149  CD2       43.7030   18.8760  -14.5900 C.3   141  LEU141      0.0001
@<TRIPOS>BOND
     1   107   108    1
     2   115   113   ar
     3   112   113    1
     4   112   111    1
     5   124   123    1
     6   113   114   ar
     7   111   108    1
     8   108   109    1
     9   123   122    1
    10   109   110    2
    11   122   121    1
    12   121   120    1
    13   116   117    1
    14    57    56    1
    15   120   117    1
    16    98    97    2
    17   101    99    1
    18   117   118    1
    19    48    46   ar
    20    56    55    1
    21    97    96    1
    22    97   102   am
    23    96    99    1
    24    96    95    1
    25   105   104    2
    26   104   103    1
    27    99   100    1
    28    46    47   ar
    29    46    45    1
    30   125   118   am
    31   125   126    1
    32    55    54    1
    33   118   119    2
    34    45    44    1
    35   103   102    1
    36   103   106    1
    37    43    42    2
    38    54    53    1
    39    42    41    1
    40   126   127    1
    41    44    41    1
    42   127   128    2
    43    53    50    1
    44    41    40    1
    45    93    92    1
    46    91    90    2
    47   136   137    1
    48   136   135    1
    49    50    49    1
    50    50    51    1
    51    92    94    1
    52    92    89    1
    53   134   135    1
    54   134   133    1
    55    90    89    1
    56    39    37    1
    57   129   130    1
    58    51    52    2
    59    89    88    1
    60    63    65    1
    61    63    62    1
    62   133   130    1
    63    37    36    1
    64    16    14   ar
    65   130   131    1
    66    59    58    1
    67    59    62    1
    68    59    60    1
    69    64    62    1
    70    35    34    2
    71   138   131   am
    72   138   139    1
    73    14    15   ar
    74    14    13    1
    75    34    33    1
    76    36    33    1
    77    36    38    1
    78    60    61    2
    79   131   132    2
    80    33    32    1
    81   139   140    1
    82    13    10    1
    83    79    78    2
    84   140   141    2
    85    73    75   ar
    86    73    71   ar
    87    27    26    2
    88    75    74   ar
    89    66    67    1
    90    78    77    1
    91    10    11    1
    92    10     9    1
    93    67    68    1
    94    67    70    1
    95    12    11    2
    96    85    83   ar
    97    85    86   ar
    98    87    86    1
    99    11    17   am
   100    26    25    1
   101    71    70    1
   102    71    72   ar
   103    68    69    2
   104    83    81   ar
   105    74    72   ar
   106    86    84   ar
   107    28    25    1
   108    28    29    1
   109    24    25    1
   110    77    76    1
   111    77    80    1
   112    31    29    1
   113    17    18    1
   114    81    80    1
   115    81    82   ar
   116     7     5    1
   117   142   143    1
   118    84    82   ar
   119    29    30    1
   120    23    21    1
   121    18    21    1
   122    18    19    1
   123   146   143    1
   124   146   147    1
   125   143   144    1
   126    21    22    1
   127   149   147    1
   128   148   147    1
   129     8     6    1
   130    19    20    2
   131     5     6    1
   132     5     2    1
   133     3     4    2
   134     3     2    1
   135     2     1    1
   136   144   145    2
