@<TRIPOS>MOLECULE
tmp/6b1dC01.pdb
 84 78 0 0 0
SMALL
GASTEIGER

@<TRIPOS>ATOM
      1  N         20.0090   25.3650  -14.4430 N.3    19  TYR19      -0.1241
      2  CA        18.7340   24.8130  -13.9640 C.3    19  TYR19       0.1605
      3  C         18.6300   23.3260  -14.2740 C.2    19  TYR19       0.2264
      4  O         18.1940   22.5530  -13.4360 O.2    19  TYR19      -0.2867
      5  CB        17.5330   25.5860  -14.5130 C.3    19  TYR19       0.0534
      6  CG        16.2460   25.2190  -13.8690 C.ar   19  TYR19      -0.0201
      7  CD1       16.0050   25.5490  -12.5250 C.ar   19  TYR19      -0.0009
      8  CD2       15.2870   24.4700  -14.5430 C.ar   19  TYR19      -0.0009
      9  CE1       14.8300   25.1700  -11.8810 C.ar   19  TYR19       0.0417
     10  CE2       14.1100   24.0850  -13.9080 C.ar   19  TYR19       0.0417
     11  CZ        13.8830   24.4430  -12.5920 C.ar   19  TYR19       0.1957
     12  OH        12.7180   24.0790  -12.0210 O.3    19  TYR19      -0.2866
     13  N         20.8020   21.4910  -11.9020 N.3    22  MET22      -0.1230
     14  CA        20.1080   21.4430  -10.6010 C.3    22  MET22       0.1702
     15  C         19.1110   20.2990  -10.5060 C.2    22  MET22       0.2592
     16  O         18.9000   19.7530   -9.4250 O.2    22  MET22      -0.2718
     17  CB        19.4240   22.7590  -10.2570 C.3    22  MET22       0.0401
     18  CG        20.3960   23.9060  -10.0110 C.3    22  MET22       0.0596
     19  SD        19.5570   25.4680   -9.6520 S.3    22  MET22      -0.1393
     20  CE        20.9910   26.5410   -9.5280 C.3    22  MET22       0.0692
     21  N         18.5160   19.9140  -11.6270 N.am   23  LYS23      -0.1980
     22  CA        17.6010   18.7550  -11.6310 C.3    23  LYS23       0.1596
     23  C         18.2910   17.4330  -11.2600 C.2    23  LYS23       0.2287
     24  O         17.6470   16.5140  -10.7810 O.2    23  LYS23      -0.2864
     25  CB        16.9110   18.5810  -12.9890 C.3    23  LYS23       0.0298
     26  CG        15.9600   19.7010  -13.3510 C.3    23  LYS23       0.0038
     27  CD        15.5520   19.6210  -14.7980 C.3    23  LYS23       0.0206
     28  CE        14.8840   20.8930  -15.2610 C.3    23  LYS23       0.1093
     29  NZ        14.3910   20.7240  -16.6510 N.3    23  LYS23      -0.1314
     30  N         20.8100   17.2640   -9.0330 N.3    25  ALA25      -0.1231
     31  CA        21.4860   17.5350   -7.7610 C.3    25  ALA25       0.1694
     32  C         21.6090   16.3500   -6.8040 C.2    25  ALA25       0.2592
     33  O         22.6390   16.1940   -6.1720 O.2    25  ALA25      -0.2718
     34  CB        20.7900   18.6670   -7.0280 C.3    25  ALA25       0.0304
     35  N         20.5680   15.5380   -6.7130 N.am   26  ASP26      -0.1974
     36  CA        20.5780   14.3230   -5.8890 C.3    26  ASP26       0.1709
     37  C         21.7690   13.4070   -6.1770 C.2    26  ASP26       0.2293
     38  O         22.2890   12.7520   -5.2670 O.2    26  ASP26      -0.2864
     39  CB        19.3080   13.4810   -6.1170 C.3    26  ASP26       0.1436
     40  CG        18.0460   14.0910   -5.4960 C.2    26  ASP26       0.3671
     41  OD1       18.1480   15.1850   -4.9110 O.co2  26  ASP26      -0.2456
     42  OD2       16.9500   13.4770   -5.6600 O.co2  26  ASP26      -0.2456
     43  N          9.7410   13.0740   -7.3410 N.3    46  GLY46      -0.1225
     44  CA        10.6370   14.2100   -7.5150 C.3    46  GLY46       0.1811
     45  C          9.8610   15.5090   -7.4400 C.2    46  GLY46       0.2280
     46  O         10.4060   16.5260   -7.0750 O.2    46  GLY46      -0.2866
     47  N         12.7080   13.7230    0.7330 N.3    52  LYS52      -0.1245
     48  CA        14.0650   13.2490    0.6300 C.3    52  LYS52       0.1561
     49  C         14.7790   13.2140    1.9880 C.2    52  LYS52       0.2260
     50  O         14.5660   14.0470    2.8640 O.2    52  LYS52      -0.2867
     51  CB        14.8560   14.1380   -0.2910 C.3    52  LYS52       0.0271
     52  CG        14.3540   14.2190   -1.7130 C.3    52  LYS52       0.0035
     53  CD        15.0630   15.3550   -2.4170 C.3    52  LYS52       0.0206
     54  CE        14.6340   15.4180   -3.8740 C.3    52  LYS52       0.1093
     55  NZ        15.1700   16.6710   -4.5030 N.3    52  LYS52      -0.1314
     56  N          7.7640   23.4100   -8.0570 N.3    72  ILE72      -0.1245
     57  CA         8.7530   23.3980   -9.1310 C.3    72  ILE72       0.1561
     58  C          8.1540   24.2630  -10.2260 C.2    72  ILE72       0.2260
     59  O          6.9910   24.1900  -10.4790 O.2    72  ILE72      -0.2867
     60  CB         9.0740   21.9460   -9.5700 C.3    72  ILE72       0.0252
     61  CG1        9.6750   21.1760   -8.3810 C.3    72  ILE72       0.0019
     62  CG2       10.0570   21.8490  -10.7540 C.3    72  ILE72       0.0019
     63  CD1        9.9400   19.7040   -8.6660 C.3    72  ILE72       0.0001
     64  N          9.6220   25.1350  -13.8270 N.3    74  GLU74      -0.1245
     65  CA        10.6620   25.0080  -14.8760 C.3    74  GLU74       0.1567
     66  C         10.7930   26.2400  -15.8060 C.2    74  GLU74       0.2260
     67  O         11.9110   26.6820  -16.1040 O.2    74  GLU74      -0.2867
     68  CB        10.4320   23.6940  -15.6600 C.3    74  GLU74       0.0388
     69  CG        10.7370   22.4950  -14.7520 C.3    74  GLU74       0.1160
     70  CD        10.6820   21.1410  -15.4240 C.2    74  GLU74       0.3649
     71  OE1       10.0940   21.0360  -16.5170 O.co2  74  GLU74      -0.2457
     72  OE2       11.1960   20.1650  -14.8360 O.co2  74  GLU74      -0.2457
     73  N         12.5660   26.5560   -7.9980 N.3    79  TYR79      -0.1241
     74  CA        12.5630   25.3040   -7.2430 C.3    79  TYR79       0.1605
     75  C         12.4830   25.6220   -5.7620 C.2    79  TYR79       0.2264
     76  O         13.3650   26.2610   -5.2250 O.2    79  TYR79      -0.2867
     77  CB        13.8330   24.5280   -7.5280 C.3    79  TYR79       0.0534
     78  CG        13.8130   23.1830   -6.9030 C.ar   79  TYR79      -0.0201
     79  CD1       13.0850   22.1520   -7.4650 C.ar   79  TYR79      -0.0009
     80  CD2       14.5220   22.9210   -5.7510 C.ar   79  TYR79      -0.0009
     81  CE1       13.0700   20.8890   -6.9020 C.ar   79  TYR79       0.0417
     82  CE2       14.5170   21.6550   -5.1750 C.ar   79  TYR79       0.0417
     83  CZ        13.7900   20.6700   -5.7630 C.ar   79  TYR79       0.1957
     84  OH        13.7790   19.4540   -5.2090 O.3    79  TYR79      -0.2866
@<TRIPOS>BOND
     1    29    28    1
     2    71    70   ar
     3    67    66    2
     4    66    65    1
     5    68    65    1
     6    68    69    1
     7    70    72   ar
     8    70    69    1
     9    28    27    1
    10    65    64    1
    11    27    26    1
    12     8    10   ar
    13     8     6   ar
    14     5     2    1
    15     5     6    1
    16     1     2    1
    17     3     2    1
    18     3     4    2
    19    10    11   ar
    20     6     7   ar
    21    26    25    1
    22    25    22    1
    23    11    12    1
    24    11     9   ar
    25     7     9   ar
    26    13    14    1
    27    22    21    1
    28    22    23    1
    29    21    15   am
    30    23    24    2
    31    62    60    1
    32    14    15    1
    33    14    17    1
    34    15    16    2
    35    59    58    2
    36    17    18    1
    37    58    57    1
    38    18    19    1
    39    19    20    1
    40    60    57    1
    41    60    61    1
    42    57    56    1
    43    30    31    1
    44    63    61    1
    45    73    74    1
    46    31    34    1
    47    31    32    1
    48    77    74    1
    49    77    78    1
    50    44    45    1
    51    44    43    1
    52    79    78   ar
    53    79    81   ar
    54    45    46    2
    55    74    75    1
    56    78    80   ar
    57    81    83   ar
    58    32    35   am
    59    32    33    2
    60    35    36    1
    61    37    36    1
    62    37    38    2
    63    39    36    1
    64    39    40    1
    65    83    84    1
    66    83    82   ar
    67    75    76    2
    68    80    82   ar
    69    42    40   ar
    70    40    41   ar
    71    55    54    1
    72    54    53    1
    73    53    52    1
    74    52    51    1
    75    51    48    1
    76    48    47    1
    77    48    49    1
    78    49    50    2
