@<TRIPOS>MOLECULE
tmp/6b1fB01.pdb
 91 86 0 0 0
SMALL
GASTEIGER

@<TRIPOS>ATOM
      1  N        -14.3540   23.3240   36.3170 N.3    44  CYS44      -0.1221
      2  CA       -13.0540   22.6250   36.1930 C.3    44  CYS44       0.1808
      3  C        -13.3180   21.1310   35.8540 C.2    44  CYS44       0.2601
      4  O        -14.2870   20.8410   35.1470 O.2    44  CYS44      -0.2717
      5  CB       -12.1800   22.8110   37.4500 C.3    44  CYS44       0.0970
      6  SG       -12.1940   24.4720   38.1600 S.3    44  CYS44      -0.0800
      7  N        -12.5580   20.1860   36.4150 N.am   45  SER45      -0.1952
      8  CA       -12.7490   18.7530   36.1260 C.3    45  SER45       0.1924
      9  C        -14.0640   18.1790   36.6310 C.2    45  SER45       0.2314
     10  O        -14.3960   17.0460   36.3170 O.2    45  SER45      -0.2863
     11  CB       -11.6720   17.8940   36.7840 C.3    45  SER45       0.2116
     12  OG       -10.4100   18.0710   36.1760 O.3    45  SER45      -0.2180
     13  N        -16.7910   16.0400   34.7310 N.3    48  LYS48      -0.1245
     14  CA       -16.5790   14.6570   34.2710 C.3    48  LYS48       0.1561
     15  C        -17.5080   13.6180   34.9330 C.2    48  LYS48       0.2260
     16  O        -17.7890   12.5650   34.3410 O.2    48  LYS48      -0.2867
     17  CB       -15.1280   14.2360   34.4450 C.3    48  LYS48       0.0271
     18  CG       -14.1400   15.0830   33.6700 C.3    48  LYS48       0.0035
     19  CD       -12.6990   14.8350   34.0630 C.3    48  LYS48       0.0206
     20  CE       -11.7920   15.8440   33.4020 C.3    48  LYS48       0.1093
     21  NZ       -10.3940   15.6950   33.8580 N.3    48  LYS48      -0.1314
     22  N         -2.3040   16.0310   31.6380 N.3    80  TRP80      -0.1241
     23  CA        -2.9290   15.2070   32.6510 C.3    80  TRP80       0.1605
     24  C         -3.9020   14.1800   32.0850 C.2    80  TRP80       0.2264
     25  O         -5.1090   14.1970   32.3240 O.2    80  TRP80      -0.2867
     26  CB        -3.5520   15.9840   33.8130 C.3    80  TRP80       0.0550
     27  CG        -3.6870   15.0150   34.9290 C.ar   80  TRP80       0.0003
     28  CD1       -4.8180   14.3800   35.3470 C.ar   80  TRP80       0.0946
     29  CD2       -2.6090   14.4470   35.6680 C.ar   80  TRP80       0.0152
     30  NE1       -4.5190   13.4980   36.3550 N.ar   80  TRP80      -0.2442
     31  CE2       -3.1630   13.5120   36.5640 C.ar   80  TRP80       0.0810
     32  CE3       -1.2230   14.6610   35.6770 C.ar   80  TRP80       0.0012
     33  CZ2       -2.3760   12.7930   37.4750 C.ar   80  TRP80       0.0191
     34  CZ3       -0.4380   13.9420   36.5740 C.ar   80  TRP80       0.0001
     35  CH2       -1.0180   13.0170   37.4580 C.ar   80  TRP80       0.0015
     36  N         -9.5240   11.6260   36.9460 N.3   105  SER105     -0.1217
     37  CA        -9.7130   12.9060   36.2990 C.3   105  SER105      0.1889
     38  C         -8.8360   13.0300   35.0380 C.2   105  SER105      0.2288
     39  O         -8.2260   14.0770   34.7650 O.2   105  SER105     -0.2866
     40  CB        -9.4920   14.0390   37.2770 C.3   105  SER105      0.2089
     41  OG       -10.3020   15.1590   36.9420 O.3   105  SER105     -0.2183
     42  N         -7.8700   13.8220   31.5090 N.3   107  ASN107     -0.1240
     43  CA        -8.3890   14.8690   30.6470 C.3   107  ASN107      0.1653
     44  C         -8.6870   14.3550   29.2630 C.2   107  ASN107      0.2266
     45  O         -9.7470   14.6790   28.7280 O.2   107  ASN107     -0.2867
     46  CB        -7.4380   16.0620   30.5410 C.3   107  ASN107      0.1155
     47  CG        -7.5470   17.0150   31.7110 C.2   107  ASN107      0.2627
     48  OD1       -8.5870   17.1240   32.3690 O.2   107  ASN107     -0.2716
     49  ND2       -6.4540   17.7260   31.9790 N.am  107  ASN107     -0.0877
     50  N        -11.2740   20.2090   27.3600 N.3   141  GLU141     -0.1231
     51  CA       -10.0120   20.2250   28.1090 C.3   141  GLU141      0.1699
     52  C         -8.8950   20.6660   27.1700 C.2   141  GLU141      0.2592
     53  O         -8.8250   20.1350   26.0730 O.2   141  GLU141     -0.2718
     54  CB        -9.6880   18.8350   28.6210 C.3   141  GLU141      0.0402
     55  CG       -10.6200   18.3530   29.6940 C.3   141  GLU141      0.1161
     56  CD       -10.4310   19.0690   31.0000 C.2   141  GLU141      0.3649
     57  OE1       -9.5070   19.9030   31.1470 O.co2 141  GLU141     -0.2457
     58  OE2      -11.2050   18.7740   31.9110 O.co2 141  GLU141     -0.2457
     59  N         -8.0000   21.5910   27.5370 N.am  142  LEU142     -0.1980
     60  CA        -7.8550   22.2050   28.8550 C.3   142  LEU142      0.1596
     61  C         -8.4750   23.5920   29.0060 C.2   142  LEU142      0.2287
     62  O         -8.5160   24.1250   30.1190 O.2   142  LEU142     -0.2864
     63  CB        -6.3690   22.3990   29.1470 C.3   142  LEU142      0.0297
     64  CG        -5.4050   21.2530   28.9460 C.3   142  LEU142      0.0022
     65  CD1       -3.9890   21.7520   29.2110 C.3   142  LEU142      0.0001
     66  CD2       -5.7890   20.1250   29.8760 C.3   142  LEU142      0.0001
     67  N        -10.7170   25.0700   31.8450 N.3   145  ASN145     -0.1240
     68  CA       -10.1650   25.3380   33.1840 C.3   145  ASN145      0.1653
     69  C         -9.6970   26.7810   33.4320 C.2   145  ASN145      0.2266
     70  O         -9.1830   27.0680   34.5160 O.2   145  ASN145     -0.2867
     71  CB        -8.9830   24.4140   33.4590 C.3   145  ASN145      0.1155
     72  CG        -9.3690   22.9560   33.3800 C.2   145  ASN145      0.2627
     73  OD1      -10.1900   22.4880   34.1570 O.2   145  ASN145     -0.2716
     74  ND2       -8.8140   22.2420   32.4180 N.am  145  ASN145     -0.0877
     75  N        -12.6220   18.9060   41.2740 N.3   211  GLY211     -0.1210
     76  CA       -12.1540   19.7880   40.2020 C.3   211  GLY211      0.1956
     77  C        -11.1410   20.7600   40.7680 C.2   211  GLY211      0.2613
     78  O        -11.3040   21.2270   41.8880 O.2   211  GLY211     -0.2717
     79  N        -10.0930   21.0480   40.0000 N.am  212  THR212     -0.1938
     80  CA        -9.0390   21.9620   40.4060 C.3   212  THR212      0.2028
     81  C         -8.5230   22.7090   39.1720 C.2   212  THR212      0.2642
     82  O         -7.7170   22.1680   38.4060 O.2   212  THR212     -0.2714
     83  CB        -7.8670   21.1960   41.0700 C.3   212  THR212      0.1808
     84  OG1       -8.3690   20.2230   42.0090 O.3   212  THR212     -0.2208
     85  CG2       -6.9120   22.1750   41.7700 C.3   212  THR212      0.0379
     86  N         -8.9810   23.9350   38.9690 N.am  213  CYS213     -0.1967
     87  CA        -8.6190   24.6960   37.7640 C.3   213  CYS213      0.1712
     88  C         -7.1350   25.0980   37.7140 C.2   213  CYS213      0.2296
     89  O         -6.5800   25.2800   36.6270 O.2   213  CYS213     -0.2864
     90  CB        -9.5180   25.9260   37.5750 C.3   213  CYS213      0.0983
     91  SG       -11.1090   25.5870   36.7840 S.3   213  CYS213     -0.0798
@<TRIPOS>BOND
     1    53    52    2
     2    52    59   am
     3    52    51    1
     4    50    51    1
     5    59    60    1
     6    51    54    1
     7    54    55    1
     8    45    44    2
     9    60    61    1
    10    60    63    1
    11    64    63    1
    12    64    65    1
    13    64    66    1
    14    61    62    2
    15    44    43    1
    16    55    56    1
    17    46    43    1
    18    46    47    1
    19    43    42    1
    20    56    57   ar
    21    56    58   ar
    22    22    23    1
    23    47    49   am
    24    47    48    2
    25    67    68    1
    26    24    25    2
    27    24    23    1
    28    74    72   am
    29    23    26    1
    30    68    69    1
    31    68    71    1
    32    72    71    1
    33    72    73    2
    34    20    21    1
    35    20    19    1
    36    69    70    2
    37    18    19    1
    38    18    17    1
    39    26    27    1
    40    14    17    1
    41    14    13    1
    42    14    15    1
    43    16    15    2
    44    39    38    2
    45    27    28   ar
    46    27    29   ar
    47    38    37    1
    48     4     3    2
    49    28    30   ar
    50    29    32   ar
    51    29    31   ar
    52    32    34   ar
    53     3     2    1
    54     3     7   am
    55     8     7    1
    56     8     9    1
    57     8    11    1
    58    12    11    1
    59     2     1    1
    60     2     5    1
    61    37    36    1
    62    37    40    1
    63    10     9    2
    64    30    31   ar
    65    31    33   ar
    66    34    35   ar
    67    89    88    2
    68    91    90    1
    69    91     6    1
    70    41    40    1
    71     5     6    1
    72    35    33   ar
    73    90    87    1
    74    88    87    1
    75    87    86    1
    76    82    81    2
    77    86    81   am
    78    81    80    1
    79    79    80    1
    80    79    77   am
    81    76    77    1
    82    76    75    1
    83    80    83    1
    84    77    78    2
    85    83    85    1
    86    83    84    1
