@<TRIPOS>MOLECULE
tmp/6b1hA00.pdb
 132 126 0 0 0
SMALL
GASTEIGER

@<TRIPOS>ATOM
      1  N          5.1090    5.4960   -3.3030 N.3    47  CYS47      -0.1221
      2  CA         6.2660    4.5710   -3.3950 C.3    47  CYS47       0.1808
      3  C          5.7720    3.1620   -3.7700 C.2    47  CYS47       0.2601
      4  O          4.8500    3.0690   -4.5480 O.2    47  CYS47      -0.2717
      5  CB         7.1280    4.6140   -2.1100 C.3    47  CYS47       0.0970
      6  SG         7.3610    6.2940   -1.4600 S.3    47  CYS47      -0.0800
      7  N          6.2850    2.0970   -3.1380 N.am   48  SER48      -0.1952
      8  CA         5.8890    0.7730   -3.4730 C.3    48  SER48       0.1924
      9  C          4.4680    0.4450   -3.0420 C.2    48  SER48       0.2314
     10  O          4.0050   -0.6210   -3.4120 O.2    48  SER48      -0.2863
     11  CB         6.7530   -0.2810   -2.8090 C.3    48  SER48       0.2116
     12  OG         8.0810   -0.3100   -3.3200 O.3    48  SER48      -0.2180
     13  N          1.5500   -1.1950   -5.0960 N.3    51  LYS51      -0.1245
     14  CA         1.5310   -2.6280   -5.4280 C.3    51  LYS51       0.1561
     15  C          0.3850   -3.4530   -4.7850 C.2    51  LYS51       0.2260
     16  O         -0.0220   -4.4560   -5.3690 O.2    51  LYS51      -0.2867
     17  CB         2.8920   -3.2860   -5.1590 C.3    51  LYS51       0.0271
     18  CG         4.0190   -2.6980   -5.9770 C.3    51  LYS51       0.0035
     19  CD         5.3750   -3.1380   -5.5010 C.3    51  LYS51       0.0206
     20  CE         6.3790   -2.3300   -6.2690 C.3    51  LYS51       0.1093
     21  NZ         7.7560   -2.4130   -5.7360 N.3    51  LYS51      -0.1314
     22  N         15.7700   -4.3330   -6.8460 N.3    83  TRP83      -0.1241
     23  CA        14.6840   -4.6420   -5.8850 C.3    83  TRP83       0.1605
     24  C         13.5580   -5.4770   -6.5010 C.2    83  TRP83       0.2264
     25  O         12.3630   -5.2010   -6.3150 O.2    83  TRP83      -0.2867
     26  CB        14.1420   -3.3790   -5.2090 C.3    83  TRP83       0.0550
     27  CG        15.1260   -2.6790   -4.3520 C.ar   83  TRP83       0.0003
     28  CD1       15.4960   -3.0220   -3.0860 C.ar   83  TRP83       0.0946
     29  CD2       15.8290   -1.4700   -4.6640 C.ar   83  TRP83       0.0152
     30  NE1       16.4200   -2.1200   -2.6110 N.ar   83  TRP83      -0.2442
     31  CE2       16.6440   -1.1640   -3.5570 C.ar   83  TRP83       0.0810
     32  CE3       15.8700   -0.6410   -5.7760 C.ar   83  TRP83       0.0012
     33  CZ2       17.4530   -0.0210   -3.5110 C.ar   83  TRP83       0.0191
     34  CZ3       16.7070    0.5210   -5.7240 C.ar   83  TRP83       0.0001
     35  CH2       17.4740    0.7880   -4.6150 C.ar   83  TRP83       0.0015
     36  N          6.9700   -9.2230   -1.3500 N.3   107  TYR107     -0.1227
     37  CA         8.4150   -8.8160   -1.4280 C.3   107  TYR107      0.1736
     38  C          8.6010   -7.4560   -2.0710 C.2   107  TYR107      0.2596
     39  O          9.7300   -6.9770   -2.1640 O.2   107  TYR107     -0.2718
     40  CB         9.2350   -9.8890   -2.1580 C.3   107  TYR107      0.0548
     41  CG         9.2980  -11.1650   -1.3390 C.ar  107  TYR107     -0.0200
     42  CD1       10.3300  -11.3860   -0.4620 C.ar  107  TYR107     -0.0009
     43  CD2        8.2750  -12.1250   -1.4350 C.ar  107  TYR107     -0.0009
     44  CE1       10.3950  -12.5450    0.2980 C.ar  107  TYR107      0.0417
     45  CE2        8.3020  -13.2890   -0.6510 C.ar  107  TYR107      0.0417
     46  CZ         9.3910  -13.4950    0.1880 C.ar  107  TYR107      0.1957
     47  OH         9.4500  -14.6100    1.0020 O.3   107  TYR107     -0.2866
     48  N          7.5170   -6.8010   -2.4400 N.am  108  SER108     -0.1952
     49  CA         7.6230   -5.4890   -3.0770 C.3   108  SER108      0.1924
     50  C          8.5220   -5.5290   -4.3320 C.2   108  SER108      0.2314
     51  O          9.2720   -4.6000   -4.6070 O.2   108  SER108     -0.2863
     52  CB         8.0660   -4.4400   -2.0510 C.3   108  SER108      0.2116
     53  OG         7.5680   -3.1710   -2.3920 O.3   108  SER108     -0.2180
     54  N          9.8730   -5.1020   -7.7770 N.3   110  ASN110     -0.1240
     55  CA         9.6360   -4.0030   -8.7380 C.3   110  ASN110      0.1653
     56  C          9.2960   -4.4640  -10.1540 C.2   110  ASN110      0.2266
     57  O          8.2800   -4.0460  -10.7170 O.2   110  ASN110     -0.2867
     58  CB        10.8190   -3.0400   -8.8380 C.3   110  ASN110      0.1155
     59  CG        10.8920   -2.0230   -7.7090 C.2   110  ASN110      0.2627
     60  OD1        9.9000   -1.6460   -7.1130 O.2   110  ASN110     -0.2716
     61  ND2       12.1310   -1.5310   -7.4310 N.am  110  ASN110     -0.0877
     62  N          7.9250    1.6810  -12.0260 N.3   144  GLU144     -0.1231
     63  CA         9.1490    1.4890  -11.2350 C.3   144  GLU144      0.1699
     64  C         10.3360    1.6940  -12.1710 C.2   144  GLU144      0.2592
     65  O         10.2900    1.1790  -13.2910 O.2   144  GLU144     -0.2718
     66  CB         9.1490    0.0930  -10.5770 C.3   144  GLU144      0.0402
     67  CG         8.1580   -0.0530   -9.4090 C.3   144  GLU144      0.1161
     68  CD         8.4590    0.7830   -8.1960 C.2   144  GLU144      0.3649
     69  OE1        9.4250    1.5920   -8.1680 O.co2 144  GLU144     -0.2457
     70  OE2        7.7380    0.6520   -7.1880 O.co2 144  GLU144     -0.2457
     71  N         11.3940    2.4310  -11.8080 N.am  145  LEU145     -0.1980
     72  CA        11.6100    3.0710  -10.5180 C.3   145  LEU145      0.1596
     73  C         11.2790    4.5590  -10.4640 C.2   145  LEU145      0.2287
     74  O         11.2800    5.1480   -9.3590 O.2   145  LEU145     -0.2864
     75  CB        13.0750    2.9470  -10.1360 C.3   145  LEU145      0.0297
     76  CG        13.6800    1.5640  -10.1730 C.3   145  LEU145      0.0022
     77  CD1       15.2080    1.7320  -10.3110 C.3   145  LEU145      0.0001
     78  CD2       13.3600    0.8510   -8.8960 C.3   145  LEU145      0.0001
     79  N          9.3040    6.4970   -7.6960 N.3   148  ASN148     -0.1240
     80  CA         9.8690    6.6450   -6.3470 C.3   148  ASN148      0.1653
     81  C         10.5390    7.9920   -6.0980 C.2   148  ASN148      0.2266
     82  O         11.0050    8.2100   -4.9940 O.2   148  ASN148     -0.2867
     83  CB        10.9730    5.6070   -6.0780 C.3   148  ASN148      0.1155
     84  CG        10.4970    4.1690   -6.2000 C.2   148  ASN148      0.2627
     85  OD1        9.3940    3.8100   -5.7960 O.2   148  ASN148     -0.2716
     86  ND2       11.3590    3.3390   -6.6890 N.am  148  ASN148     -0.0877
     87  N          7.6500   -7.6020    4.3980 N.3   194  THR194     -0.1218
     88  CA         8.4050   -6.3570    4.5220 C.3   194  THR194      0.1862
     89  C          7.9220   -5.3850    5.5930 C.2   194  THR194      0.2287
     90  O          8.5640   -4.3130    5.7720 O.2   194  THR194     -0.2866
     91  CB         8.3850   -5.5660    3.2160 C.3   194  THR194      0.1770
     92  OG1        7.0810   -5.0480    3.0390 O.3   194  THR194     -0.2211
     93  CG2        8.7780   -6.4180    2.0100 C.3   194  THR194      0.0375
     94  N          6.6980   -1.8420   11.0830 N.3   198  ARG198     -0.1245
     95  CA         5.8380   -0.7160   10.7880 C.3   198  ARG198      0.1563
     96  C          4.5260   -0.9210   11.5200 C.2   198  ARG198      0.2260
     97  O          4.5590   -1.0880   12.7460 O.2   198  ARG198     -0.2867
     98  CB         5.7520   -0.4980    9.2500 C.3   198  ARG198      0.0307
     99  CG         7.0680    0.0200    8.7140 C.3   198  ARG198      0.0489
    100  CD         7.0740    0.3560    7.2250 C.3   198  ARG198      0.2205
    101  NE         8.4420    0.5410    6.7820 N.pl3 198  ARG198     -0.0865
    102  CZ         8.8190    1.0770    5.6220 C.cat 198  ARG198      0.5346
    103  NH1        7.9350    1.5330    4.7540 N.pl3 198  ARG198      0.1354
    104  NH2       10.1160    1.1410    5.3150 N.pl3 198  ARG198      0.1354
    105  N          3.8780   -2.1200    2.4010 N.3   213  THR213     -0.1203
    106  CA         4.7990   -1.0320    2.6810 C.3   213  THR213      0.1994
    107  C          5.2430   -0.2880    1.4020 C.2   213  THR213      0.2618
    108  O          5.0440   -0.7600    0.2830 O.2   213  THR213     -0.2717
    109  CB         6.0690   -1.5780    3.3860 C.3   213  THR213      0.1784
    110  OG1        6.7160   -2.5660    2.5710 O.3   213  THR213     -0.2211
    111  CG2        5.7390   -2.2160    4.7720 C.3   213  THR213      0.0376
    112  N          5.8680    0.8730    1.6020 N.am  214  GLY214     -0.1942
    113  CA         6.5120    1.6500    0.5680 C.3   214  GLY214      0.2014
    114  C          7.6980    2.4210    1.1640 C.2   214  GLY214      0.2640
    115  O          7.6420    2.9370    2.2930 O.2   214  GLY214     -0.2714
    116  N          8.7820    2.4940    0.4240 N.am  215  THR215     -0.1936
    117  CA         9.9580    3.2430    0.8730 C.3   215  THR215      0.2028
    118  C         10.6240    3.8840   -0.3370 C.2   215  THR215      0.2642
    119  O         11.2810    3.2030   -1.0980 O.2   215  THR215     -0.2714
    120  CB        10.9890    2.3390    1.6100 C.3   215  THR215      0.1808
    121  OG1       10.3370    1.4740    2.5600 O.3   215  THR215     -0.2208
    122  CG2       12.0300    3.2140    2.3510 C.3   215  THR215      0.0379
    123  N         10.4280    5.1850   -0.5350 N.am  216  CYS216     -0.1953
    124  CA        10.9030    5.8140   -1.7770 C.3   216  CYS216      0.1843
    125  C         12.4120    5.9480   -1.7760 C.2   216  CYS216      0.2626
    126  O         12.9970    5.9720   -2.8680 O.2   216  CYS216     -0.2714
    127  CB        10.2970    7.2050   -2.0380 C.3   216  CYS216      0.0997
    128  SG         8.6840    7.1520   -2.8110 S.3   216  CYS216     -0.0797
    129  N         12.9930    6.0150   -0.5820 N.am  217  GLY217     -0.1954
    130  CA        14.4760    6.1040   -0.3790 C.3   217  GLY217      0.1869
    131  C         15.0420    7.5170   -0.4230 C.2   217  GLY217      0.2309
    132  O         16.2920    7.7010   -0.3610 O.2   217  GLY217     -0.2863
@<TRIPOS>BOND
     1    65    64    2
     2    64    71   am
     3    64    63    1
     4    62    63    1
     5    71    72    1
     6    63    66    1
     7    57    56    2
     8    66    67    1
     9    72    73    1
    10    72    75    1
    11    73    74    2
    12    77    76    1
    13    76    75    1
    14    76    78    1
    15    56    55    1
    16    67    68    1
    17    58    55    1
    18    58    59    1
    19    55    54    1
    20    68    69   ar
    21    68    70   ar
    22    59    61   am
    23    59    60    2
    24    79    80    1
    25    22    23    1
    26    86    84   am
    27    24    25    2
    28    24    23    1
    29    80    81    1
    30    80    83    1
    31    20    21    1
    32    20    19    1
    33    84    83    1
    34    84    85    2
    35    81    82    2
    36    18    19    1
    37    18    17    1
    38    23    26    1
    39    32    34   ar
    40    32    29   ar
    41    34    35   ar
    42    14    17    1
    43    14    13    1
    44    14    15    1
    45    16    15    2
    46    26    27    1
    47    29    27   ar
    48    29    31   ar
    49    35    33   ar
    50    51    50    2
    51     4     3    2
    52    27    28   ar
    53    50    49    1
    54     3     2    1
    55     3     7   am
    56    31    33   ar
    57    31    30   ar
    58     8     7    1
    59     8     9    1
    60     8    11    1
    61    10     9    2
    62     2     1    1
    63     2     5    1
    64    12    11    1
    65    28    30   ar
    66    49    48    1
    67    49    52    1
    68   126   125    2
    69   128   127    1
    70   128     6    1
    71    48    38   am
    72    53    52    1
    73    39    38    2
    74    40    37    1
    75    40    41    1
    76     5     6    1
    77    38    37    1
    78   127   124    1
    79   124   125    1
    80   124   123    1
    81   125   129   am
    82    43    41   ar
    83    43    45   ar
    84    37    36    1
    85    41    42   ar
    86   119   118    2
    87    45    46   ar
    88   129   130    1
    89   123   118   am
    90    42    44   ar
    91   131   130    1
    92   131   132    2
    93   118   117    1
    94    46    44   ar
    95    46    47    1
    96   108   107    2
    97   116   117    1
    98   116   114   am
    99   113   114    1
   100   113   112    1
   101   117   120    1
   102   114   115    2
   103   107   112   am
   104   107   106    1
   105   120   122    1
   106   120   121    1
   107    93    91    1
   108   105   106    1
   109   110   109    1
   110   106   109    1
   111    92    91    1
   112    91    88    1
   113   109   111    1
   114    87    88    1
   115    88    89    1
   116   103   102    1
   117   104   102    1
   118    89    90    2
   119   102   101    2
   120   101   100    1
   121   100    99    1
   122    99    98    1
   123    98    95    1
   124    95    94    1
   125    95    96    1
   126    96    97    2
