@<TRIPOS>MOLECULE
tmp/6b1jA00.pdb
 145 139 0 0 0
SMALL
GASTEIGER

@<TRIPOS>ATOM
      1  N         -5.1190    5.5120    3.2890 N.3    47  CYS47      -0.1221
      2  CA        -6.2810    4.6200    3.3680 C.3    47  CYS47       0.1808
      3  C         -5.7690    3.2030    3.7430 C.2    47  CYS47       0.2601
      4  O         -4.8110    3.0780    4.5200 O.2    47  CYS47      -0.2717
      5  CB        -7.0980    4.6460    2.0730 C.3    47  CYS47       0.0970
      6  SG        -7.3360    6.2810    1.3580 S.3    47  CYS47      -0.0800
      7  N         -6.3620    2.1460    3.1940 N.am   48  SER48      -0.1952
      8  CA        -5.9030    0.7760    3.4910 C.3    48  SER48       0.1924
      9  C         -4.4870    0.4490    3.0410 C.2    48  SER48       0.2314
     10  O         -3.9920   -0.6310    3.4030 O.2    48  SER48      -0.2863
     11  CB        -6.7530   -0.2900    2.7680 C.3    48  SER48       0.2116
     12  OG        -8.1050   -0.3460    3.2000 O.3    48  SER48      -0.2180
     13  N         -1.4670   -1.1730    5.0020 N.3    51  LYS51      -0.1245
     14  CA        -1.4920   -2.5680    5.4260 C.3    51  LYS51       0.1561
     15  C         -0.3490   -3.4130    4.8300 C.2    51  LYS51       0.2260
     16  O          0.0920   -4.3630    5.4600 O.2    51  LYS51      -0.2867
     17  CB        -2.8400   -3.1720    5.1290 C.3    51  LYS51       0.0271
     18  CG        -3.9660   -2.6270    6.0220 C.3    51  LYS51       0.0035
     19  CD        -5.3350   -3.0200    5.4690 C.3    51  LYS51       0.0206
     20  CE        -6.4440   -2.3140    6.2490 C.3    51  LYS51       0.1093
     21  NZ        -7.7620   -2.2940    5.6010 N.3    51  LYS51      -0.1314
     22  N        -15.6940   -4.2640    6.8410 N.3    83  TRP83      -0.1241
     23  CA       -14.6130   -4.6000    5.8820 C.3    83  TRP83       0.1605
     24  C        -13.5120   -5.3980    6.5770 C.2    83  TRP83       0.2264
     25  O        -12.3040   -5.1290    6.4080 O.2    83  TRP83      -0.2867
     26  CB       -14.0460   -3.3640    5.1530 C.3    83  TRP83       0.0550
     27  CG       -15.0140   -2.6550    4.2890 C.ar   83  TRP83       0.0003
     28  CD1      -15.3480   -2.9560    2.9910 C.ar   83  TRP83       0.0946
     29  CD2      -15.7710   -1.4870    4.6410 C.ar   83  TRP83       0.0152
     30  NE1      -16.2830   -2.0430    2.5320 N.ar   83  TRP83      -0.2442
     31  CE2      -16.5450   -1.1320    3.5240 C.ar   83  TRP83       0.0810
     32  CE3      -15.8460   -0.6960    5.7860 C.ar   83  TRP83       0.0012
     33  CZ2      -17.3900    0.0010    3.5200 C.ar   83  TRP83       0.0191
     34  CZ3      -16.7120    0.3980    5.7920 C.ar   83  TRP83       0.0001
     35  CH2      -17.4690    0.7260    4.6730 C.ar   83  TRP83       0.0015
     36  N         -7.0140   -9.1820    1.4400 N.3   107  TYR107     -0.1227
     37  CA        -8.4570   -8.8170    1.5390 C.3   107  TYR107      0.1736
     38  C         -8.6670   -7.4380    2.1680 C.2   107  TYR107      0.2596
     39  O         -9.8050   -6.9930    2.3340 O.2   107  TYR107     -0.2718
     40  CB        -9.2510   -9.9240    2.2960 C.3   107  TYR107      0.0548
     41  CG        -9.3050  -11.1740    1.4680 C.ar  107  TYR107     -0.0200
     42  CD1      -10.3220  -11.3650    0.5060 C.ar  107  TYR107     -0.0009
     43  CD2       -8.3340  -12.1620    1.6150 C.ar  107  TYR107     -0.0009
     44  CE1      -10.3400  -12.5080   -0.2920 C.ar  107  TYR107      0.0417
     45  CE2       -8.3270  -13.2960    0.8070 C.ar  107  TYR107      0.0417
     46  CZ        -9.3280  -13.4630   -0.1430 C.ar  107  TYR107      0.1957
     47  OH        -9.3070  -14.5880   -0.9070 O.3   107  TYR107     -0.2866
     48  N         -7.5760   -6.7650    2.5250 N.am  108  SER108     -0.1952
     49  CA        -7.6180   -5.4650    3.1190 C.3   108  SER108      0.1924
     50  C         -8.4120   -5.4810    4.4220 C.2   108  SER108      0.2314
     51  O         -9.1520   -4.5340    4.7510 O.2   108  SER108     -0.2863
     52  CB        -8.1480   -4.4590    2.1330 C.3   108  SER108      0.2116
     53  OG        -7.5550   -3.2110    2.3770 O.3   108  SER108     -0.2180
     54  N         -9.8580   -5.0040    7.8580 N.3   110  ASN110     -0.1240
     55  CA        -9.6240   -3.8890    8.8030 C.3   110  ASN110      0.1653
     56  C         -9.3010   -4.3390   10.2180 C.2   110  ASN110      0.2266
     57  O         -8.3320   -3.8770   10.8440 O.2   110  ASN110     -0.2867
     58  CB       -10.8570   -2.9400    8.8190 C.3   110  ASN110      0.1155
     59  CG       -10.8300   -1.9140    7.6970 C.2   110  ASN110      0.2627
     60  OD1       -9.7750   -1.5930    7.1670 O.2   110  ASN110     -0.2716
     61  ND2      -12.0170   -1.4170    7.3110 N.am  110  ASN110     -0.0877
     62  N         -7.9600    1.8510   12.1290 N.3   144  GLU144     -0.1231
     63  CA        -9.1740    1.5760   11.3290 C.3   144  GLU144      0.1699
     64  C        -10.3910    1.8020   12.2200 C.2   144  GLU144      0.2592
     65  O        -10.4070    1.2780   13.3650 O.2   144  GLU144     -0.2718
     66  CB        -9.1550    0.1560   10.7440 C.3   144  GLU144      0.0402
     67  CG        -8.1630   -0.0350    9.6120 C.3   144  GLU144      0.1161
     68  CD        -8.4860    0.6890    8.3490 C.2   144  GLU144      0.3649
     69  OE1       -9.5420    1.3570    8.2840 O.co2 144  GLU144     -0.2457
     70  OE2       -7.7340    0.5730    7.3560 O.co2 144  GLU144     -0.2457
     71  N        -11.3790    2.5850   11.7790 N.am  145  LEU145     -0.1980
     72  CA       -11.5340    3.1330   10.4290 C.3   145  LEU145      0.1596
     73  C        -11.3120    4.6460   10.3600 C.2   145  LEU145      0.2287
     74  O        -11.4160    5.2470    9.2670 O.2   145  LEU145     -0.2864
     75  CB       -12.9380    2.7870    9.8510 C.3   145  LEU145      0.0297
     76  CG       -13.0900    1.2840    9.5460 C.3   145  LEU145      0.0022
     77  CD1      -13.4290    0.4390   10.7700 C.3   145  LEU145      0.0001
     78  CD2      -14.1440    1.0990    8.5070 C.3   145  LEU145      0.0001
     79  N         -9.1800    6.7690    7.6500 N.3   148  ASN148     -0.1225
     80  CA        -9.6560    6.9610    6.2700 C.3   148  ASN148      0.1785
     81  C        -10.3210    8.2910    6.0340 C.2   148  ASN148      0.2597
     82  O        -10.8720    8.4800    4.9370 O.2   148  ASN148     -0.2718
     83  CB       -10.6740    5.8590    5.9230 C.3   148  ASN148      0.1169
     84  CG       -10.0570    4.5120    5.9620 C.2   148  ASN148      0.2627
     85  OD1       -9.2690    4.1540    5.0780 O.2   148  ASN148     -0.2716
     86  ND2      -10.4030    3.7350    6.9770 N.am  148  ASN148     -0.0877
     87  N        -10.3510    9.2000    7.0270 N.am  149  SER149     -0.1952
     88  CA       -11.1210   10.4490    6.8820 C.3   149  SER149      0.1924
     89  C        -10.7180   11.2980    5.6790 C.2   149  SER149      0.2314
     90  O        -11.5670   11.9560    5.0710 O.2   149  SER149     -0.2863
     91  CB       -11.0800   11.2790    8.1710 C.3   149  SER149      0.2116
     92  OG        -9.7510   11.4420    8.6130 O.3   149  SER149     -0.2180
     93  N         -7.6290   -7.5520   -4.3620 N.3   194  THR194     -0.1218
     94  CA        -8.4130   -6.3120   -4.4960 C.3   194  THR194      0.1862
     95  C         -7.9450   -5.3870   -5.6010 C.2   194  THR194      0.2287
     96  O         -8.5240   -4.3050   -5.7640 O.2   194  THR194     -0.2866
     97  CB        -8.3820   -5.5230   -3.1790 C.3   194  THR194      0.1770
     98  OG1       -7.0660   -4.9950   -2.9580 O.3   194  THR194     -0.2211
     99  CG2       -8.7950   -6.3950   -2.0170 C.3   194  THR194      0.0375
    100  N         -6.7220   -1.8700  -11.0000 N.3   198  ARG198     -0.1245
    101  CA        -5.7940   -0.7600  -10.7520 C.3   198  ARG198      0.1563
    102  C         -4.4590   -0.9630  -11.4660 C.2   198  ARG198      0.2260
    103  O         -4.4810   -1.0960  -12.6780 O.2   198  ARG198     -0.2867
    104  CB        -5.7390   -0.4860   -9.2290 C.3   198  ARG198      0.0307
    105  CG        -7.0470    0.1200   -8.7620 C.3   198  ARG198      0.0489
    106  CD        -7.0780    0.4190   -7.2880 C.3   198  ARG198      0.2205
    107  NE        -8.4280    0.6100   -6.8420 N.pl3 198  ARG198     -0.0865
    108  CZ        -8.8100    1.1250   -5.6710 C.cat 198  ARG198      0.5346
    109  NH1       -7.9270    1.5600   -4.8000 N.pl3 198  ARG198      0.1354
    110  NH2      -10.1150    1.1980   -5.4130 N.pl3 198  ARG198      0.1354
    111  N         -3.8910   -2.0210   -2.3520 N.3   213  THR213     -0.1203
    112  CA        -4.7860   -0.9360   -2.7270 C.3   213  THR213      0.1994
    113  C         -5.2530   -0.2170   -1.4990 C.2   213  THR213      0.2618
    114  O         -5.0680   -0.6910   -0.3550 O.2   213  THR213     -0.2717
    115  CB        -6.0020   -1.4930   -3.4670 C.3   213  THR213      0.1784
    116  OG1       -6.6160   -2.4800   -2.6540 O.3   213  THR213     -0.2211
    117  CG2       -5.5980   -2.1200   -4.7440 C.3   213  THR213      0.0376
    118  N         -5.8210    0.9570   -1.7190 N.am  214  GLY214     -0.1942
    119  CA        -6.5300    1.6940   -0.6720 C.3   214  GLY214      0.2014
    120  C         -7.6820    2.4900   -1.2530 C.2   214  GLY214      0.2640
    121  O         -7.5690    3.0130   -2.3340 O.2   214  GLY214     -0.2714
    122  N         -8.7670    2.6130   -0.4980 N.am  215  THR215     -0.1936
    123  CA        -9.9390    3.3400   -0.9690 C.3   215  THR215      0.2028
    124  C        -10.6110    3.9620    0.2630 C.2   215  THR215      0.2642
    125  O        -11.3190    3.2760    0.9700 O.2   215  THR215     -0.2714
    126  CB       -10.9430    2.3830   -1.6730 C.3   215  THR215      0.1808
    127  OG1      -10.3070    1.5320   -2.6770 O.3   215  THR215     -0.2208
    128  CG2      -12.0330    3.2420   -2.3200 C.3   215  THR215      0.0379
    129  N        -10.3790    5.2400    0.5190 N.am  216  CYS216     -0.1953
    130  CA       -10.9080    5.8750    1.7390 C.3   216  CYS216      0.1843
    131  C        -12.4240    6.0880    1.7130 C.2   216  CYS216      0.2626
    132  O        -13.0290    6.2740    2.7810 O.2   216  CYS216     -0.2714
    133  CB       -10.2500    7.2500    1.9680 C.3   216  CYS216      0.0997
    134  SG        -8.5930    7.2570    2.6870 S.3   216  CYS216     -0.0797
    135  N        -13.0350    6.0760    0.5270 N.am  217  GLY217     -0.1940
    136  CA       -14.4870    6.2370    0.4030 C.3   217  GLY217      0.2014
    137  C        -15.0130    7.6570    0.3890 C.2   217  GLY217      0.2638
    138  O        -16.2550    7.8840    0.3620 O.2   217  GLY217     -0.2714
    139  N        -14.0950    8.6220    0.3580 N.am  218  VAL218     -0.1977
    140  CA       -14.4180   10.0320    0.4280 C.3   218  VAL218      0.1596
    141  C        -13.3130   10.8010   -0.3050 C.2   218  VAL218      0.2287
    142  O        -12.2170   10.2650   -0.5350 O.2   218  VAL218     -0.2864
    143  CB       -14.5250   10.5610    1.8950 C.3   218  VAL218      0.0276
    144  CG1      -15.7620   10.0480    2.5910 C.3   218  VAL218      0.0022
    145  CG2      -13.2870   10.2560    2.7330 C.3   218  VAL218      0.0022
@<TRIPOS>BOND
     1   103   102    2
     2   102   101    1
     3   100   101    1
     4   101   104    1
     5   104   105    1
     6   105   106    1
     7   106   107    1
     8   107   108    2
     9    96    95    2
    10   108   110    1
    11   108   109    1
    12    95    94    1
    13   117   115    1
    14    94    93    1
    15    94    97    1
    16   115   112    1
    17   115   116    1
    18    97    98    1
    19    97    99    1
    20   112   111    1
    21   112   113    1
    22   127   126    1
    23   121   120    2
    24   128   126    1
    25   118   113   am
    26   118   119    1
    27   126   123    1
    28   113   114    2
    29   120   119    1
    30   120   122   am
    31   123   122    1
    32   123   124    1
    33    47    46    1
    34   142   141    2
    35   141   140    1
    36    44    46   ar
    37    44    42   ar
    38    46    45   ar
    39   124   129   am
    40   124   125    2
    41   139   137   am
    42   139   140    1
    43   138   137    2
    44   137   136    1
    45   136   135    1
    46   140   143    1
    47    42    41   ar
    48   129   130    1
    49   135   131   am
    50    45    43   ar
    51     6     5    1
    52     6   134    1
    53    36    37    1
    54    41    43   ar
    55    41    40    1
    56    37    38    1
    57    37    40    1
    58   131   130    1
    59   131   132    2
    60   130   133    1
    61   143   144    1
    62   143   145    1
    63   133   134    1
    64     5     2    1
    65    52    53    1
    66    52    49    1
    67    38    39    2
    68    38    48   am
    69    48    49    1
    70    30    28   ar
    71    30    31   ar
    72    11    12    1
    73    11     8    1
    74    28    27   ar
    75     9    10    2
    76     9     8    1
    77    49    50    1
    78     7     8    1
    79     7     3   am
    80     1     2    1
    81     2     3    1
    82    33    31   ar
    83    33    35   ar
    84    31    29   ar
    85     3     4    2
    86    27    29   ar
    87    27    26    1
    88    50    51    2
    89    29    32   ar
    90    35    34   ar
    91    15    14    1
    92    15    16    2
    93    82    81    2
    94    13    14    1
    95    90    89    2
    96    85    84    2
    97    17    14    1
    98    17    18    1
    99    26    23    1
   100    19    18    1
   101    19    20    1
   102    21    20    1
   103    89    88    1
   104    32    34   ar
   105    23    24    1
   106    23    22    1
   107    83    84    1
   108    83    80    1
   109    84    86   am
   110    81    80    1
   111    81    87   am
   112    80    79    1
   113    25    24    2
   114    88    87    1
   115    88    91    1
   116    60    59    2
   117    61    59   am
   118    70    68   ar
   119    59    58    1
   120    54    55    1
   121    91    92    1
   122    69    68   ar
   123    68    67    1
   124    78    76    1
   125    55    58    1
   126    55    56    1
   127    74    73    2
   128    76    75    1
   129    76    77    1
   130    67    66    1
   131    75    72    1
   132    56    57    2
   133    73    72    1
   134    72    71    1
   135    66    63    1
   136    63    62    1
   137    63    64    1
   138    71    64   am
   139    64    65    2
