@<TRIPOS>MOLECULE
tmp/6b1lA01.pdb
 226 217 0 0 0
SMALL
GASTEIGER

@<TRIPOS>ATOM
      1  N        -15.8910   26.4850  -38.5990 N.3    69  TYR69      -0.1227
      2  CA       -16.5820   25.4700  -39.3810 C.3    69  TYR69       0.1736
      3  C        -17.9890   25.2550  -38.8150 C.2    69  TYR69       0.2595
      4  O        -18.5010   26.0830  -38.0580 O.2    69  TYR69      -0.2718
      5  CB       -15.7510   24.1840  -39.4350 C.3    69  TYR69       0.0548
      6  CG       -16.0440   23.3420  -40.6560 C.ar   69  TYR69      -0.0200
      7  CD1      -15.9000   23.8690  -41.9340 C.ar   69  TYR69      -0.0009
      8  CD2      -16.4670   22.0260  -40.5340 C.ar   69  TYR69      -0.0009
      9  CE1      -16.1700   23.1070  -43.0560 C.ar   69  TYR69       0.0417
     10  CE2      -16.7390   21.2550  -41.6530 C.ar   69  TYR69       0.0417
     11  CZ       -16.5900   21.8010  -42.9090 C.ar   69  TYR69       0.1957
     12  OH       -16.8590   21.0380  -44.0230 O.3    69  TYR69      -0.2866
     13  N        -18.6200   24.1320  -39.1650 N.am   70  VAL70      -0.1966
     14  CA       -20.0510   23.9580  -38.9480 C.3    70  VAL70       0.1727
     15  C        -20.3710   23.9200  -37.4590 C.2    70  VAL70       0.2616
     16  O        -19.6820   23.2640  -36.6660 O.2    70  VAL70      -0.2715
     17  CB       -20.5420   22.6820  -39.6520 C.3    70  VAL70       0.0290
     18  CG1      -22.0560   22.5800  -39.5810 C.3    70  VAL70       0.0023
     19  CG2      -20.0710   22.6640  -41.0960 C.3    70  VAL70       0.0023
     20  N        -21.4250   24.6360  -37.0760 N.am   71  GLU71      -0.1963
     21  CA       -21.9770   24.5990  -35.7320 C.3    71  GLU71       0.1733
     22  C        -23.4240   24.1270  -35.7960 C.2    71  GLU71       0.2616
     23  O        -24.0850   24.2240  -36.8340 O.2    71  GLU71      -0.2715
     24  CB       -21.9090   25.9750  -35.0540 C.3    71  GLU71       0.0429
     25  CG       -20.5040   26.5210  -34.8710 C.3    71  GLU71       0.1163
     26  CD       -20.4870   27.8580  -34.1480 C.2    71  GLU71       0.3649
     27  OE1      -21.5390   28.2580  -33.6080 O.co2  71  GLU71      -0.2457
     28  OE2      -19.4210   28.5080  -34.1190 O.co2  71  GLU71      -0.2457
     29  N        -23.9140   23.6090  -34.6730 N.am   72  ASP72      -0.1971
     30  CA       -25.3060   23.2010  -34.6120 C.3    72  ASP72       0.1709
     31  C        -26.2160   24.4290  -34.6430 C.2    72  ASP72       0.2293
     32  O        -25.7750   25.5720  -34.4940 O.2    72  ASP72      -0.2864
     33  CB       -25.5700   22.3620  -33.3610 C.3    72  ASP72       0.1436
     34  CG       -25.1710   23.0740  -32.0880 C.2    72  ASP72       0.3671
     35  OD1      -24.1190   23.7460  -32.0860 O.co2  72  ASP72      -0.2456
     36  OD2      -25.9120   22.9620  -31.0880 O.co2  72  ASP72      -0.2456
     37  N        -22.2160   23.2760  -30.2320 N.3    77  PHE77      -0.1241
     38  CA       -21.0760   22.4860  -30.6670 C.3    77  PHE77       0.1605
     39  C        -20.4910   23.0760  -31.9400 C.2    77  PHE77       0.2264
     40  O        -21.1830   23.7450  -32.7110 O.2    77  PHE77      -0.2867
     41  CB       -21.4640   21.0200  -30.9230 C.3    77  PHE77       0.0534
     42  CG       -22.3200   20.4150  -29.8460 C.ar   77  PHE77      -0.0203
     43  CD1      -21.7710   20.0480  -28.6280 C.ar   77  PHE77      -0.0042
     44  CD2      -23.6710   20.1970  -30.0600 C.ar   77  PHE77      -0.0042
     45  CE1      -22.5580   19.4840  -27.6380 C.ar   77  PHE77      -0.0003
     46  CE2      -24.4650   19.6330  -29.0740 C.ar   77  PHE77      -0.0003
     47  CZ       -23.9080   19.2760  -27.8620 C.ar   77  PHE77      -0.0000
     48  N        -17.7810   21.5230  -35.0610 N.3    79  PHE79      -0.1241
     49  CA       -16.9540   20.4250  -35.5470 C.3    79  PHE79       0.1605
     50  C        -15.4820   20.7510  -35.3400 C.2    79  PHE79       0.2264
     51  O        -15.0230   21.8490  -35.6700 O.2    79  PHE79      -0.2867
     52  CB       -17.2360   20.1540  -37.0240 C.3    79  PHE79       0.0534
     53  CG       -18.4940   19.3750  -37.2700 C.ar   79  PHE79      -0.0203
     54  CD1      -18.9690   18.4820  -36.3230 C.ar   79  PHE79      -0.0042
     55  CD2      -19.2020   19.5320  -38.4510 C.ar   79  PHE79      -0.0042
     56  CE1      -20.1270   17.7610  -36.5490 C.ar   79  PHE79      -0.0003
     57  CE2      -20.3620   18.8140  -38.6800 C.ar   79  PHE79      -0.0003
     58  CZ       -20.8250   17.9280  -37.7280 C.ar   79  PHE79      -0.0000
     59  N        -12.4390   18.8910  -36.4110 N.3    81  TYR81      -0.1241
     60  CA       -11.5660   17.9830  -37.1420 C.3    81  TYR81       0.1605
     61  C        -10.1340   18.1170  -36.6430 C.2    81  TYR81       0.2264
     62  O         -9.6050   19.2260  -36.5350 O.2    81  TYR81      -0.2867
     63  CB       -11.6120   18.2860  -38.6410 C.3    81  TYR81       0.0534
     64  CG       -12.8770   17.8670  -39.3530 C.ar   81  TYR81      -0.0201
     65  CD1      -12.9960   16.5970  -39.9050 C.ar   81  TYR81      -0.0009
     66  CD2      -13.9390   18.7500  -39.5000 C.ar   81  TYR81      -0.0009
     67  CE1      -14.1440   16.2120  -40.5680 C.ar   81  TYR81       0.0417
     68  CE2      -15.0920   18.3750  -40.1620 C.ar   81  TYR81       0.0417
     69  CZ       -15.1890   17.1030  -40.6950 C.ar   81  TYR81       0.1957
     70  OH       -16.3330   16.7180  -41.3560 O.3    81  TYR81      -0.2866
     71  N        -15.0360   19.1400  -50.2400 N.3   135  ASN135     -0.1240
     72  CA       -15.3400   19.1680  -48.8150 C.3   135  ASN135      0.1653
     73  C        -14.5500   20.2930  -48.1600 C.2   135  ASN135      0.2266
     74  O        -13.6400   20.8740  -48.7570 O.2   135  ASN135     -0.2867
     75  CB       -15.0200   17.8240  -48.1530 C.3   135  ASN135      0.1155
     76  CG       -15.9220   17.5250  -46.9720 C.2   135  ASN135      0.2627
     77  OD1      -16.5410   18.4240  -46.3970 O.2   135  ASN135     -0.2716
     78  ND2      -16.0050   16.2520  -46.6060 N.am  135  ASN135     -0.0877
     79  N        -21.5740   16.7880  -50.1410 N.3   171  THR171     -0.1203
     80  CA       -22.6790   16.7400  -49.2010 C.3   171  THR171      0.1994
     81  C        -22.7490   18.0480  -48.4260 C.2   171  THR171      0.2618
     82  O        -21.7390   18.7320  -48.2350 O.2   171  THR171     -0.2717
     83  CB       -22.5360   15.5710  -48.2170 C.3   171  THR171      0.1784
     84  OG1      -21.2850   15.6790  -47.5250 O.3   171  THR171     -0.2211
     85  CG2      -22.5960   14.2320  -48.9510 C.3   171  THR171      0.0376
     86  N        -23.9520   18.3870  -47.9770 N.am  172  ALA172     -0.1965
     87  CA       -24.1470   19.5520  -47.1300 C.3   172  ALA172      0.1728
     88  C        -25.4370   19.3650  -46.3510 C.2   172  ALA172      0.2616
     89  O        -26.3520   18.6680  -46.7990 O.2   172  ALA172     -0.2715
     90  CB       -24.1920   20.8500  -47.9460 C.3   172  ALA172      0.0334
     91  N        -25.4910   19.9820  -45.1680 N.am  173  GLY173     -0.1955
     92  CA       -26.7140   19.9800  -44.3880 C.3   173  GLY173      0.1869
     93  C        -27.7550   20.9630  -44.8720 C.2   173  GLY173      0.2309
     94  O        -28.9400   20.7980  -44.5630 O.2   173  GLY173     -0.2863
     95  N        -29.8880   11.7310  -40.2230 N.3   185  TYR185     -0.1241
     96  CA       -28.9220   11.0760  -39.3580 C.3   185  TYR185      0.1605
     97  C        -29.5820   10.6460  -38.0540 C.2   185  TYR185      0.2264
     98  O        -30.5900   11.2140  -37.6250 O.2   185  TYR185     -0.2867
     99  CB       -27.7130   11.9740  -39.0620 C.3   185  TYR185      0.0534
    100  CG       -27.9420   13.4550  -39.2600 C.ar  185  TYR185     -0.0201
    101  CD1      -28.5900   14.2140  -38.2950 C.ar  185  TYR185     -0.0009
    102  CD2      -27.4840   14.0980  -40.4020 C.ar  185  TYR185     -0.0009
    103  CE1      -28.7910   15.5710  -38.4710 C.ar  185  TYR185      0.0417
    104  CE2      -27.6800   15.4510  -40.5870 C.ar  185  TYR185      0.0417
    105  CZ       -28.3330   16.1830  -39.6190 C.ar  185  TYR185      0.1957
    106  OH       -28.5310   17.5330  -39.7990 O.3   185  TYR185     -0.2866
    107  N        -28.6640    8.8530  -33.9430 N.3   187  HIS187     -0.1241
    108  CA       -27.6560    8.8620  -32.8930 C.3   187  HIS187      0.1621
    109  C        -27.9090    7.7150  -31.9300 C.2   187  HIS187      0.2264
    110  O        -29.0320    7.5440  -31.4440 O.2   187  HIS187     -0.2867
    111  CB       -27.6610   10.1960  -32.1400 C.3   187  HIS187      0.0745
    112  CG       -27.6550   11.3930  -33.0380 C.ar  187  HIS187      0.0817
    113  ND1      -26.5330   11.8020  -33.7260 N.ar  187  HIS187     -0.2268
    114  CD2      -28.6360   12.2680  -33.3640 C.ar  187  HIS187      0.1154
    115  CE1      -26.8220   12.8780  -34.4360 C.ar  187  HIS187      0.1986
    116  NE2      -28.0920   13.1810  -34.2350 N.ar  187  HIS187     -0.2212
    117  N        -26.6980   17.5100  -25.5260 N.3   200  PHE200     -0.1241
    118  CA       -26.7900   16.8250  -26.8100 C.3   200  PHE200      0.1605
    119  C        -28.1070   16.0720  -26.9360 C.2   200  PHE200      0.2264
    120  O        -28.7330   16.0760  -28.0030 O.2   200  PHE200     -0.2867
    121  CB       -25.6060   15.8720  -26.9820 C.3   200  PHE200      0.0534
    122  CG       -25.5830   15.1620  -28.3090 C.ar  200  PHE200     -0.0203
    123  CD1      -24.9410   15.7260  -29.3980 C.ar  200  PHE200     -0.0042
    124  CD2      -26.2000   13.9300  -28.4650 C.ar  200  PHE200     -0.0042
    125  CE1      -24.9160   15.0770  -30.6190 C.ar  200  PHE200     -0.0003
    126  CE2      -26.1800   13.2780  -29.6820 C.ar  200  PHE200     -0.0003
    127  CZ       -25.5360   13.8510  -30.7610 C.ar  200  PHE200     -0.0000
    128  N        -15.2890    6.6120  -38.3630 N.3   283  TYR283     -0.1241
    129  CA       -14.2530    7.6160  -38.1820 C.3   283  TYR283      0.1605
    130  C        -14.5940    8.5520  -37.0280 C.2   283  TYR283      0.2264
    131  O        -15.7480    8.6780  -36.6090 O.2   283  TYR283     -0.2867
    132  CB       -13.9970    8.4100  -39.4740 C.3   283  TYR283      0.0534
    133  CG       -15.1610    9.1910  -40.0530 C.ar  283  TYR283     -0.0201
    134  CD1      -15.4800   10.4610  -39.5840 C.ar  283  TYR283     -0.0009
    135  CD2      -15.9010    8.6820  -41.1110 C.ar  283  TYR283     -0.0009
    136  CE1      -16.5290   11.1870  -40.1310 C.ar  283  TYR283      0.0417
    137  CE2      -16.9480    9.3990  -41.6650 C.ar  283  TYR283      0.0417
    138  CZ       -17.2580   10.6510  -41.1720 C.ar  283  TYR283      0.1957
    139  OH       -18.3010   11.3610  -41.7240 O.3   283  TYR283     -0.2866
    140  N        -14.8050   12.1520  -35.3280 N.3   285  LEU285     -0.1245
    141  CA       -14.9740   13.5890  -35.5300 C.3   285  LEU285      0.1561
    142  C        -15.4840   14.1840  -34.2260 C.2   285  LEU285      0.2260
    143  O        -16.6960   14.1980  -33.9670 O.2   285  LEU285     -0.2867
    144  CB       -15.9240   13.8890  -36.6900 C.3   285  LEU285      0.0270
    145  CG       -16.2600   15.3660  -36.9230 C.3   285  LEU285      0.0019
    146  CD1      -14.9970   16.2110  -37.0320 C.3   285  LEU285      0.0001
    147  CD2      -17.1250   15.5340  -38.1630 C.3   285  LEU285      0.0001
    148  N        -16.4660   17.1260  -31.4980 N.3   287  SER287     -0.1217
    149  CA       -17.0840   18.4420  -31.5830 C.3   287  SER287      0.1889
    150  C        -16.6980   19.2600  -30.3620 C.2   287  SER287      0.2288
    151  O        -16.8930   18.8180  -29.2250 O.2   287  SER287     -0.2866
    152  CB       -18.6070   18.3390  -31.6940 C.3   287  SER287      0.2089
    153  OG       -18.9880   17.8740  -32.9760 O.3   287  SER287     -0.2183
    154  N        -16.7390   16.6450  -27.2510 N.3   298  LEU298     -0.1245
    155  CA       -17.6560   15.5240  -27.4100 C.3   298  LEU298      0.1561
    156  C        -17.0450   14.5480  -28.4080 C.2   298  LEU298      0.2260
    157  O        -16.8610   14.8900  -29.5810 O.2   298  LEU298     -0.2867
    158  CB       -19.0260   15.9970  -27.8930 C.3   298  LEU298      0.0270
    159  CG       -19.9130   14.9170  -28.5200 C.3   298  LEU298      0.0019
    160  CD1      -20.6280   14.1030  -27.4540 C.3   298  LEU298      0.0001
    161  CD2      -20.9010   15.5230  -29.5030 C.3   298  LEU298      0.0001
    162  N        -18.5650    8.1580  -36.2190 N.3   302  TYR302     -0.1241
    163  CA       -19.4150    8.2930  -37.3950 C.3   302  TYR302      0.1605
    164  C        -19.3140    7.0270  -38.2310 C.2   302  TYR302      0.2264
    165  O        -18.2330    6.6990  -38.7300 O.2   302  TYR302     -0.2867
    166  CB       -19.0120    9.5150  -38.2240 C.3   302  TYR302      0.0534
    167  CG       -19.4640   10.8310  -37.6360 C.ar  302  TYR302     -0.0201
    168  CD1      -18.8000   11.3970  -36.5540 C.ar  302  TYR302     -0.0009
    169  CD2      -20.5530   11.5110  -38.1670 C.ar  302  TYR302     -0.0009
    170  CE1      -19.2120   12.6000  -36.0150 C.ar  302  TYR302      0.0417
    171  CE2      -20.9700   12.7140  -37.6360 C.ar  302  TYR302      0.0417
    172  CZ       -20.2960   13.2550  -36.5610 C.ar  302  TYR302      0.1957
    173  OH       -20.7110   14.4520  -36.0290 O.3   302  TYR302     -0.2866
    174  N        -22.8670    7.8520  -34.5080 N.3   333  ASN333     -0.1225
    175  CA       -23.7150    8.5030  -35.4940 C.3   333  ASN333      0.1785
    176  C        -23.7720    7.6900  -36.7820 C.2   333  ASN333      0.2597
    177  O        -22.8060    7.0260  -37.1640 O.2   333  ASN333     -0.2718
    178  CB       -23.2120    9.9150  -35.8000 C.3   333  ASN333      0.1169
    179  CG       -23.1680   10.7970  -34.5690 C.2   333  ASN333      0.2627
    180  OD1      -23.9710   10.6400  -33.6500 O.2   333  ASN333     -0.2716
    181  ND2      -22.2250   11.7320  -34.5460 N.am  333  ASN333     -0.0877
    182  N        -24.9180    7.7610  -37.4540 N.am  334  ALA334     -0.1966
    183  CA       -25.1150    7.0410  -38.7020 C.3   334  ALA334      0.1728
    184  C        -26.1640    7.7560  -39.5380 C.2   334  ALA334      0.2616
    185  O        -27.0860    8.3800  -39.0070 O.2   334  ALA334     -0.2715
    186  CB       -25.5390    5.5880  -38.4550 C.3   334  ALA334      0.0334
    187  N        -26.0060    7.6630  -40.8520 N.am  335  LEU335     -0.1977
    188  CA       -26.9830    8.1460  -41.8130 C.3   335  LEU335      0.1596
    189  C        -27.8850    6.9980  -42.2510 C.2   335  LEU335      0.2287
    190  O        -27.5240    5.8240  -42.1470 O.2   335  LEU335     -0.2864
    191  CB       -26.2840    8.7580  -43.0290 C.3   335  LEU335      0.0297
    192  CG       -25.3810    9.9600  -42.7440 C.3   335  LEU335      0.0022
    193  CD1      -24.4570   10.2290  -43.9200 C.3   335  LEU335      0.0001
    194  CD2      -26.2250   11.1880  -42.4310 C.3   335  LEU335      0.0001
    195  N        -31.7610   15.8640  -35.7510 N.3   353  ASP353     -0.1239
    196  CA       -32.4400   17.1430  -35.9010 C.3   353  ASP353      0.1674
    197  C        -32.4490   17.6490  -37.3390 C.2   353  ASP353      0.2266
    198  O        -32.9880   18.7300  -37.5950 O.2   353  ASP353     -0.2867
    199  CB       -31.7880   18.1890  -34.9900 C.3   353  ASP353      0.1410
    200  CG       -32.7740   19.2260  -34.4920 C.2   353  ASP353      0.3668
    201  OD1      -33.4780   18.9500  -33.4970 O.co2 353  ASP353     -0.2456
    202  OD2      -32.8480   20.3170  -35.0950 O.co2 353  ASP353     -0.2456
    203  N        -28.6600   15.1160  -44.1100 N.3   356  LEU356     -0.1245
    204  CA       -27.5100   15.3980  -44.9570 C.3   356  LEU356      0.1561
    205  C        -27.8910   15.1520  -46.4100 C.2   356  LEU356      0.2260
    206  O        -28.3590   14.0630  -46.7570 O.2   356  LEU356     -0.2867
    207  CB       -26.3180   14.5230  -44.5670 C.3   356  LEU356      0.0270
    208  CG       -25.0150   14.8010  -45.3150 C.3   356  LEU356      0.0019
    209  CD1      -24.4450   16.1540  -44.9150 C.3   356  LEU356      0.0001
    210  CD2      -24.0060   13.6900  -45.0650 C.3   356  LEU356      0.0001
    211  N        -19.3330   10.4700  -47.0260 N.3   377  LEU377     -0.1231
    212  CA       -18.3040   11.4930  -47.0960 C.3   377  LEU377      0.1693
    213  C        -17.8420   11.8790  -45.6930 C.2   377  LEU377      0.2591
    214  O        -18.4830   11.5660  -44.6870 O.2   377  LEU377     -0.2718
    215  CB       -18.8080   12.7190  -47.8580 C.3   377  LEU377      0.0284
    216  CG       -18.7110   12.6700  -49.3880 C.3   377  LEU377      0.0019
    217  CD1      -19.6660   11.6490  -49.9930 C.3   377  LEU377      0.0001
    218  CD2      -18.9510   14.0530  -49.9870 C.3   377  LEU377      0.0001
    219  N        -16.7070   12.5670  -45.6380 N.am  378  LEU378     -0.1980
    220  CA       -16.0920   12.9340  -44.3690 C.3   378  LEU378      0.1596
    221  C        -16.6550   14.2410  -43.8280 C.2   378  LEU378      0.2287
    222  O        -17.4310   14.9260  -44.4980 O.2   378  LEU378     -0.2864
    223  CB       -14.5790   13.0400  -44.5330 C.3   378  LEU378      0.0297
    224  CG       -13.9480   11.7970  -45.1560 C.3   378  LEU378      0.0022
    225  CD1      -12.4810   12.0240  -45.4270 C.3   378  LEU378      0.0001
    226  CD2      -14.1510   10.5930  -44.2510 C.3   378  LEU378      0.0001
@<TRIPOS>BOND
     1    71    72    1
     2    79    80    1
     3   217   216    1
     4   218   216    1
     5   216   215    1
     6    80    81    1
     7    80    83    1
     8    85    83    1
     9    72    73    1
    10    72    75    1
    11    74    73    2
    12    81    82    2
    13    81    86   am
    14    83    84    1
    15    75    76    1
    16    86    87    1
    17    90    87    1
    18   215   212    1
    19    87    88    1
    20   212   211    1
    21   212   213    1
    22    76    78   am
    23    76    77    2
    24    89    88    2
    25   206   205    2
    26   205   204    1
    27    88    91   am
    28   213   219   am
    29   213   214    2
    30   219   220    1
    31   225   224    1
    32   208   210    1
    33   208   209    1
    34   208   207    1
    35    91    92    1
    36   224   223    1
    37   224   226    1
    38   204   207    1
    39   204   203    1
    40    93    94    2
    41    93    92    1
    42   223   220    1
    43   222   221    2
    44   220   221    1
    45    12    11    1
    46   193   192    1
    47     9    11   ar
    48     9     7   ar
    49   191   192    1
    50   191   188    1
    51    11    10   ar
    52   192   194    1
    53   189   190    2
    54   189   188    1
    55     7     6   ar
    56   188   187    1
    57   139   138    1
    58   137   138   ar
    59   137   135   ar
    60    10     8   ar
    61    70    69    1
    62   138   136   ar
    63   135   133   ar
    64    19    17    1
    65   187   184   am
    66    69    67   ar
    67    69    68   ar
    68     6     8   ar
    69     6     5    1
    70   104   102   ar
    71   104   105   ar
    72    67    65   ar
    73   102   100   ar
    74    95    96    1
    75    68    66   ar
    76   136   134   ar
    77   133   134   ar
    78   133   132    1
    79    65    64   ar
    80   106   105    1
    81    17    18    1
    82    17    14    1
    83   105   103   ar
    84   184   185    2
    85   184   183    1
    86    66    64   ar
    87   132   129    1
    88     5     2    1
    89     2     3    1
    90     2     1    1
    91    96    99    1
    92    96    97    1
    93    64    63    1
    94   100    99    1
    95   100   101   ar
    96    13    14    1
    97    13     3   am
    98    14    15    1
    99     3     4    2
   100   165   164    2
   101   183   186    1
   102   183   182    1
   103    57    55   ar
   104    57    58   ar
   105    63    60    1
   106   103   101   ar
   107    55    53   ar
   108   128   129    1
   109   164   163    1
   110   166   167    1
   111   166   163    1
   112   129   130    1
   113   169   167   ar
   114   169   171   ar
   115   147   145    1
   116    97    98    2
   117    58    56   ar
   118   167   168   ar
   119   171   172   ar
   120   198   197    2
   121    15    20   am
   122    15    16    2
   123   182   176   am
   124   163   162    1
   125   197   196    1
   126    53    52    1
   127    53    54   ar
   128   177   176    2
   129    60    61    1
   130    60    59    1
   131    20    21    1
   132   146   145    1
   133   130   131    2
   134    52    49    1
   135   145   144    1
   136    23    22    2
   137   176   175    1
   138   144   141    1
   139    61    62    2
   140   172   173    1
   141   172   170   ar
   142   168   170   ar
   143    56    54   ar
   144   196   195    1
   145   196   199    1
   146   178   175    1
   147   178   179    1
   148    22    21    1
   149    22    29   am
   150    21    24    1
   151    51    50    2
   152    49    50    1
   153    49    48    1
   154   141   140    1
   155   141   142    1
   156   175   174    1
   157   202   200   ar
   158    24    25    1
   159   199   200    1
   160    25    26    1
   161    29    30    1
   162    31    30    1
   163    31    32    2
   164    30    33    1
   165   179   181   am
   166   179   180    2
   167   200   201   ar
   168   115   116   ar
   169   115   113   ar
   170   116   114   ar
   171   142   143    2
   172    26    28   ar
   173    26    27   ar
   174   107   108    1
   175   113   112   ar
   176   114   112   ar
   177    33    34    1
   178   112   111    1
   179   153   152    1
   180   108   111    1
   181   108   109    1
   182    40    39    2
   183    34    35   ar
   184    34    36   ar
   185    39    38    1
   186   109   110    2
   187   152   149    1
   188   149   148    1
   189   149   150    1
   190    41    38    1
   191    41    42    1
   192   127   125   ar
   193   127   126   ar
   194    38    37    1
   195   125   123   ar
   196   150   151    2
   197    44    42   ar
   198    44    46   ar
   199    42    43   ar
   200   126   124   ar
   201   157   156    2
   202   161   159    1
   203   123   122   ar
   204    46    47   ar
   205    43    45   ar
   206   159   158    1
   207   159   160    1
   208   124   122   ar
   209   156   155    1
   210   122   121    1
   211   120   119    2
   212   158   155    1
   213    47    45   ar
   214   155   154    1
   215   121   118    1
   216   119   118    1
   217   118   117    1
