@<TRIPOS>MOLECULE
tmp/6b1uC00.pdb
 154 144 0 0 0
SMALL
GASTEIGER

@<TRIPOS>ATOM
      1  N        -52.4820   18.3420  -68.5670 N.3    14  LEU14      -0.1231
      2  CA       -52.6670   16.9310  -68.2210 C.3    14  LEU14       0.1693
      3  C        -53.1590   16.7810  -66.7800 C.2    14  LEU14       0.2593
      4  O        -53.9820   15.9100  -66.4890 O.2    14  LEU14      -0.2718
      5  CB       -51.3680   16.1390  -68.4320 C.3    14  LEU14       0.0284
      6  CG       -50.9290   15.9360  -69.8770 C.3    14  LEU14       0.0019
      7  CD1      -49.4980   15.4290  -69.9440 C.3    14  LEU14       0.0001
      8  CD2      -51.8790   15.0030  -70.6230 C.3    14  LEU14       0.0001
      9  N        -52.6550   17.6400  -65.9050 N.am   15  GLY15      -0.1942
     10  CA       -53.0130   17.6710  -64.4960 C.3    15  GLY15       0.2014
     11  C        -52.1270   18.5830  -63.6750 C.2    15  GLY15       0.2639
     12  O        -51.1400   19.1320  -64.1780 O.2    15  GLY15      -0.2714
     13  N        -52.4900   18.7530  -62.3980 N.am   16  VAL16      -0.1963
     14  CA       -51.7320   19.5640  -61.4530 C.3    16  VAL16       0.1727
     15  C        -51.1410   18.6000  -60.4330 C.2    16  VAL16       0.2616
     16  O        -51.8810   17.8730  -59.7590 O.2    16  VAL16      -0.2715
     17  CB       -52.5760   20.6900  -60.7920 C.3    16  VAL16       0.0290
     18  CG1      -51.7220   21.5340  -59.8480 C.3    16  VAL16       0.0023
     19  CG2      -53.2390   21.5780  -61.8420 C.3    16  VAL16       0.0023
     20  N        -49.8130   18.5690  -60.3670 N.am   17  GLY17      -0.1955
     21  CA       -49.0900   17.7040  -59.4440 C.3    17  GLY17       0.1869
     22  C        -48.9910   18.2740  -58.0460 C.2    17  GLY17       0.2309
     23  O        -49.6890   19.2390  -57.7150 O.2    17  GLY17      -0.2863
     24  N        -48.6250   20.3400  -65.1790 N.3    22  VAL22      -0.1245
     25  CA       -48.1740   19.4610  -66.2640 C.3    22  VAL22       0.1561
     26  C        -49.0490   19.6740  -67.5000 C.2    22  VAL22       0.2260
     27  O        -50.2710   19.5480  -67.4250 O.2    22  VAL22      -0.2867
     28  CB       -48.0250   17.9710  -65.8400 C.3    22  VAL22       0.0252
     29  CG1      -47.6620   17.0770  -67.0260 C.3    22  VAL22       0.0019
     30  CG2      -46.9790   17.8300  -64.7440 C.3    22  VAL22       0.0019
     31  N        -44.6180   15.2430  -72.0940 N.3    35  ALA35      -0.1245
     32  CA       -45.3290   15.8350  -70.9680 C.3    35  ALA35       0.1562
     33  C        -44.3910   16.8850  -70.3730 C.2    35  ALA35       0.2260
     34  O        -43.2640   16.5650  -69.9970 O.2    35  ALA35      -0.2867
     35  CB       -45.6790   14.7760  -69.9400 C.3    35  ALA35       0.0290
     36  N        -43.6190   19.5720  -67.4890 N.3    37  LYS37      -0.1245
     37  CA       -43.8600   19.9890  -66.1060 C.3    37  LYS37       0.1561
     38  C        -43.2960   21.4070  -65.9400 C.2    37  LYS37       0.2260
     39  O        -42.1000   21.6290  -66.1500 O.2    37  LYS37      -0.2867
     40  CB       -43.2000   19.0070  -65.1150 C.3    37  LYS37       0.0271
     41  CG       -43.5800   19.2290  -63.6540 C.3    37  LYS37       0.0035
     42  CD       -42.5850   18.5520  -62.7390 C.3    37  LYS37       0.0206
     43  CE       -43.0470   18.5340  -61.3070 C.3    37  LYS37       0.1093
     44  NZ       -42.1310   17.7530  -60.4310 N.3    37  LYS37      -0.1314
     45  N        -41.0240    7.4980  -65.2400 N.3    69  ILE69      -0.1245
     46  CA       -41.1420    8.4930  -66.3140 C.3    69  ILE69       0.1561
     47  C        -39.7790    9.1440  -66.5330 C.2    69  ILE69       0.2260
     48  O        -39.1750    9.6450  -65.5800 O.2    69  ILE69      -0.2867
     49  CB       -42.2890    9.5140  -66.0330 C.3    69  ILE69       0.0252
     50  CG1      -43.6970    8.8570  -66.1680 C.3    69  ILE69       0.0019
     51  CG2      -42.1650   10.8050  -66.8750 C.3    69  ILE69       0.0019
     52  CD1      -44.1810    8.4460  -67.6100 C.3    69  ILE69       0.0001
     53  N        -40.6190   15.6860  -70.2360 N.3    85  MET85      -0.1230
     54  CA       -40.6420   14.2860  -69.8170 C.3    85  MET85       0.1702
     55  C        -41.3230   13.3670  -70.8300 C.2    85  MET85       0.2592
     56  O        -41.9530   13.8390  -71.7740 O.2    85  MET85      -0.2718
     57  CB       -41.3270   14.1620  -68.4480 C.3    85  MET85       0.0401
     58  CG       -40.7700   15.1000  -67.4160 C.3    85  MET85       0.0596
     59  SD       -41.6610   15.0370  -65.8630 S.3    85  MET85      -0.1393
     60  CE       -40.6590   13.8290  -64.9900 C.3    85  MET85       0.0692
     61  N        -41.1970   12.0540  -70.6220 N.am   86  GLU86      -0.1966
     62  CA       -41.7790   11.0130  -71.4610 C.3    86  GLU86       0.1733
     63  C        -43.3050   11.0410  -71.3400 C.2    86  GLU86       0.2616
     64  O        -43.8220   11.0030  -70.2200 O.2    86  GLU86      -0.2715
     65  CB       -41.2210    9.6470  -71.0110 C.3    86  GLU86       0.0429
     66  CG       -41.7270    8.4420  -71.7860 C.3    86  GLU86       0.1163
     67  CD       -41.6650    7.1070  -71.0650 C.2    86  GLU86       0.3649
     68  OE1      -42.3010    6.1490  -71.5620 O.co2  86  GLU86      -0.2457
     69  OE2      -40.9930    7.0090  -70.0120 O.co2  86  GLU86      -0.2457
     70  N        -44.0240   11.1190  -72.4840 N.am   87  TYR87      -0.1960
     71  CA       -45.4900   11.0840  -72.4850 C.3    87  TYR87       0.1771
     72  C        -45.9650    9.6420  -72.5280 C.2    87  TYR87       0.2619
     73  O        -45.4280    8.8240  -73.2810 O.2    87  TYR87      -0.2715
     74  CB       -46.1170   11.9050  -73.6280 C.3    87  TYR87       0.0574
     75  CG       -47.6260   11.7830  -73.7060 C.ar   87  TYR87      -0.0198
     76  CD1      -48.4410   12.2900  -72.6970 C.ar   87  TYR87      -0.0009
     77  CD2      -48.2380   11.1290  -74.7710 C.ar   87  TYR87      -0.0009
     78  CE1      -49.8270   12.1520  -72.7480 C.ar   87  TYR87       0.0417
     79  CE2      -49.6240   10.9940  -74.8380 C.ar   87  TYR87       0.0417
     80  CZ       -50.4140   11.5050  -73.8220 C.ar   87  TYR87       0.1957
     81  OH       -51.7800   11.3790  -73.8840 O.3    87  TYR87      -0.2866
     82  N        -46.9810    9.3470  -71.7140 N.am   88  VAL88      -0.1963
     83  CA       -47.5880    8.0320  -71.5540 C.3    88  VAL88       0.1727
     84  C        -49.1140    8.1710  -71.7870 C.2    88  VAL88       0.2616
     85  O        -49.8110    8.8540  -71.0320 O.2    88  VAL88      -0.2715
     86  CB       -47.1180    7.4570  -70.1870 C.3    88  VAL88       0.0290
     87  CG1      -47.7670    6.1380  -69.8280 C.3    88  VAL88       0.0023
     88  CG2      -45.6010    7.3590  -70.1310 C.3    88  VAL88       0.0023
     89  N        -49.5930    7.5810  -72.9010 N.am   89  SER89      -0.1950
     90  CA       -50.9590    7.6810  -73.4350 C.3    89  SER89       0.1924
     91  C        -52.0910    6.9890  -72.6520 C.2    89  SER89       0.2314
     92  O        -53.2260    7.4660  -72.7140 O.2    89  SER89      -0.2863
     93  CB       -50.9940    7.1830  -74.8760 C.3    89  SER89       0.2116
     94  OG       -50.5880    5.8270  -74.9610 O.3    89  SER89      -0.2180
     95  N        -52.9160    6.8750  -69.5760 N.3    91  GLY91      -0.1210
     96  CA       -53.3840    7.5830  -68.3870 C.3    91  GLY91       0.1956
     97  C        -53.0780    6.9040  -67.0650 C.2    91  GLY91       0.2611
     98  O        -52.2080    6.0320  -66.9950 O.2    91  GLY91      -0.2717
     99  N        -53.8060    7.3080  -66.0060 N.am   92  GLU92      -0.1979
    100  CA       -53.6810    6.8090  -64.6320 C.3    92  GLU92       0.1602
    101  C        -54.0820    5.3460  -64.4810 C.2    92  GLU92       0.2287
    102  O        -54.9620    4.8710  -65.2010 O.2    92  GLU92      -0.2864
    103  CB       -54.5800    7.6300  -63.6950 C.3    92  GLU92       0.0415
    104  CG       -54.0820    9.0220  -63.3560 C.3    92  GLU92       0.1163
    105  CD       -55.0370    9.8440  -62.5090 C.2    92  GLU92       0.3649
    106  OE1      -55.8250    9.2530  -61.7340 O.co2  92  GLU92      -0.2457
    107  OE2      -54.9940   11.0900  -62.6190 O.co2  92  GLU92      -0.2457
    108  N        -49.4750    5.9560  -55.2020 N.3   133  LYS133     -0.1245
    109  CA       -50.9210    5.7280  -55.3090 C.3   133  LYS133      0.1561
    110  C        -51.2700    5.4480  -56.7790 C.2   133  LYS133      0.2260
    111  O        -50.5410    5.9420  -57.6460 O.2   133  LYS133     -0.2867
    112  CB       -51.7300    6.9330  -54.7590 C.3   133  LYS133      0.0271
    113  CG       -51.3450    8.2960  -55.3220 C.3   133  LYS133      0.0035
    114  CD       -52.1300    9.4020  -54.6620 C.3   133  LYS133      0.0206
    115  CE       -51.7410   10.7510  -55.2050 C.3   133  LYS133      0.1093
    116  NZ       -52.6980   11.8060  -54.7890 N.3   133  LYS133     -0.1314
    117  N        -53.0790    6.8800  -58.7790 N.3   135  GLU135     -0.1231
    118  CA       -53.1820    8.1710  -59.4770 C.3   135  GLU135      0.1699
    119  C        -51.8040    8.6240  -59.9810 C.2   135  GLU135      0.2592
    120  O        -51.7220    9.3060  -61.0010 O.2   135  GLU135     -0.2718
    121  CB       -53.7940    9.2570  -58.5710 C.3   135  GLU135      0.0402
    122  CG       -55.2170    8.9780  -58.1200 C.3   135  GLU135      0.1161
    123  CD       -55.3360    8.3300  -56.7540 C.2   135  GLU135      0.3649
    124  OE1      -54.8500    7.1880  -56.5890 O.co2 135  GLU135     -0.2457
    125  OE2      -55.9420    8.9540  -55.8540 O.co2 135  GLU135     -0.2457
    126  N        -50.7280    8.2420  -59.2600 N.am  136  ASN136     -0.1974
    127  CA       -49.3400    8.5670  -59.6020 C.3   136  ASN136      0.1688
    128  C        -48.6400    7.4560  -60.3810 C.2   136  ASN136      0.2292
    129  O        -47.4670    7.5990  -60.7230 O.2   136  ASN136     -0.2864
    130  CB       -48.5460    8.9770  -58.3570 C.3   136  ASN136      0.1181
    131  CG       -48.7560   10.4120  -57.9320 C.2   136  ASN136      0.2629
    132  OD1      -49.2790   11.2510  -58.6670 O.2   136  ASN136     -0.2716
    133  ND2      -48.3190   10.7380  -56.7370 N.am  136  ASN136     -0.0877
    134  N        -48.8390    5.7610  -63.8570 N.3   138  LEU138     -0.1245
    135  CA       -49.3710    5.9360  -65.2070 C.3   138  LEU138      0.1561
    136  C        -49.1100    4.6820  -66.0400 C.2   138  LEU138      0.2260
    137  O        -48.2350    3.8970  -65.6840 O.2   138  LEU138     -0.2867
    138  CB       -48.7590    7.1820  -65.8740 C.3   138  LEU138      0.0270
    139  CG       -48.8890    8.5200  -65.1370 C.3   138  LEU138      0.0019
    140  CD1      -47.8790    9.5000  -65.6480 C.3   138  LEU138      0.0001
    141  CD2      -50.2940    9.0900  -65.2370 C.3   138  LEU138      0.0001
    142  N        -44.5720    8.6240  -61.5160 N.3   148  ALA148     -0.1231
    143  CA       -44.2270    9.9450  -62.0580 C.3   148  ALA148      0.1694
    144  C        -44.0030   11.1290  -61.0940 C.2   148  ALA148      0.2592
    145  O        -43.0370   11.8700  -61.3180 O.2   148  ALA148     -0.2718
    146  CB       -45.2730   10.3620  -63.0760 C.3   148  ALA148      0.0304
    147  N        -44.9170   11.4090  -60.1470 N.am  149  ASP149     -0.1974
    148  CA       -44.7860   12.6220  -59.3290 C.3   149  ASP149      0.1709
    149  C        -43.7770   12.5070  -58.1850 C.2   149  ASP149      0.2293
    150  O        -44.1110   11.9880  -57.1200 O.2   149  ASP149     -0.2864
    151  CB       -46.1570   13.0940  -58.8060 C.3   149  ASP149      0.1436
    152  CG       -46.2550   14.5790  -58.5050 C.2   149  ASP149      0.3671
    153  OD1      -45.3020   15.1360  -57.9160 O.co2 149  ASP149     -0.2456
    154  OD2      -47.3030   15.1690  -58.8010 O.co2 149  ASP149     -0.2456
@<TRIPOS>BOND
     1    94    93    1
     2    93    90    1
     3    79    77   ar
     4    79    80   ar
     5    77    75   ar
     6    81    80    1
     7    80    78   ar
     8    75    74    1
     9    75    76   ar
    10    74    71    1
    11    90    89    1
    12    90    91    1
    13    73    72    2
    14    89    84   am
    15    78    76   ar
    16    92    91    2
    17    72    71    1
    18    72    82   am
    19    71    70    1
    20    70    63   am
    21    31    32    1
    22    84    83    1
    23    84    85    2
    24    66    67    1
    25    66    65    1
    26    56    55    2
    27    82    83    1
    28    68    67   ar
    29    83    86    1
    30    62    63    1
    31    62    65    1
    32    62    61    1
    33    63    64    2
    34    67    69   ar
    35    32    33    1
    36    32    35    1
    37    55    61   am
    38    55    54    1
    39     8     6    1
    40    33    34    2
    41    53    54    1
    42    86    88    1
    43    86    87    1
    44     7     6    1
    45     6     5    1
    46    54    57    1
    47    95    96    1
    48     1     2    1
    49    57    58    1
    50     5     2    1
    51    96    97    1
    52     2     3    1
    53    52    50    1
    54    26    27    2
    55    26    25    1
    56    36    37    1
    57    58    59    1
    58    97    98    2
    59    97    99   am
    60    29    28    1
    61    51    49    1
    62     3     4    2
    63     3     9   am
    64    47    46    1
    65    47    48    2
    66    46    49    1
    67    46    45    1
    68    25    28    1
    69    25    24    1
    70    50    49    1
    71    39    38    2
    72    37    38    1
    73    37    40    1
    74   136   137    2
    75   136   135    1
    76    99   100    1
    77     9    10    1
    78   138   135    1
    79   138   139    1
    80    59    60    1
    81    28    30    1
    82   140   139    1
    83   141   139    1
    84   135   134    1
    85   102   101    2
    86    40    41    1
    87   100   101    1
    88   100   103    1
    89    10    11    1
    90    12    11    2
    91   103   104    1
    92    11    13   am
    93    41    42    1
    94   104   105    1
    95   146   143    1
    96    42    43    1
    97   107   105   ar
    98   105   106   ar
    99    13    14    1
   100   143   142    1
   101   143   144    1
   102    19    17    1
   103    14    17    1
   104    14    15    1
   105   145   144    2
   106    43    44    1
   107   144   147   am
   108   120   119    2
   109    17    18    1
   110   129   128    2
   111    15    20   am
   112    15    16    2
   113   128   127    1
   114    20    21    1
   115   147   148    1
   116   119   118    1
   117   119   126   am
   118   127   126    1
   119   127   130    1
   120   118   117    1
   121   118   121    1
   122    21    22    1
   123   148   151    1
   124   148   149    1
   125   151   152    1
   126   154   152   ar
   127   132   131    2
   128   121   122    1
   129   152   153   ar
   130   130   131    1
   131   149   150    2
   132   122   123    1
   133    22    23    2
   134   131   133   am
   135   111   110    2
   136   110   109    1
   137   123   124   ar
   138   123   125   ar
   139   113   112    1
   140   113   114    1
   141   109   108    1
   142   109   112    1
   143   115   116    1
   144   115   114    1
