@<TRIPOS>MOLECULE
tmp/6b1uC01.pdb
 111 102 0 0 0
SMALL
GASTEIGER

@<TRIPOS>ATOM
      1  N        -49.3700   30.5250  -81.4830 N.3     2  ARG2       -0.1231
      2  CA       -49.3200   29.3990  -80.5380 C.3     2  ARG2        0.1694
      3  C        -48.1690   29.5240  -79.5300 C.2     2  ARG2        0.2591
      4  O        -47.2340   30.2980  -79.7500 O.2     2  ARG2       -0.2718
      5  CB       -49.2340   28.0650  -81.2970 C.3     2  ARG2        0.0321
      6  CG       -50.4750   27.7820  -82.1380 C.3     2  ARG2        0.0489
      7  CD       -51.7710   27.6440  -81.3440 C.3     2  ARG2        0.2205
      8  NE       -51.6210   26.6150  -80.3030 N.pl3   2  ARG2       -0.0865
      9  CZ       -51.7840   25.3340  -80.4940 C.cat   2  ARG2        0.5346
     10  NH1      -52.1830   24.8540  -81.6670 N.pl3   2  ARG2        0.1354
     11  NH2      -51.5660   24.4650  -79.5340 N.pl3   2  ARG2        0.1354
     12  N        -48.2470   28.7630  -78.4250 N.am    3  VAL3       -0.1980
     13  CA       -47.2510   28.7740  -77.3480 C.3     3  VAL3        0.1595
     14  C        -46.2600   27.6130  -77.5480 C.2     3  VAL3        0.2287
     15  O        -46.6640   26.4510  -77.5630 O.2     3  VAL3       -0.2864
     16  CB       -47.9390   28.7660  -75.9570 C.3     3  VAL3        0.0276
     17  CG1      -46.9280   28.9420  -74.8340 C.3     3  VAL3        0.0022
     18  CG2      -49.0120   29.8470  -75.8800 C.3     3  VAL3        0.0022
     19  N        -47.1540   23.8250  -76.7290 N.3    10  LEU10      -0.1231
     20  CA       -47.8840   23.5010  -75.5060 C.3    10  LEU10       0.1693
     21  C        -49.3850   23.5150  -75.7080 C.2    10  LEU10       0.2593
     22  O        -49.9440   24.5160  -76.1630 O.2    10  LEU10      -0.2718
     23  CB       -47.4620   24.4020  -74.3290 C.3    10  LEU10       0.0284
     24  CG       -45.9820   24.3660  -73.9060 C.3    10  LEU10       0.0019
     25  CD1      -45.7240   25.3270  -72.7710 C.3    10  LEU10       0.0001
     26  CD2      -45.5400   22.9660  -73.5020 C.3    10  LEU10       0.0001
     27  N        -50.0150   22.3890  -75.3790 N.am   11  GLY11      -0.1942
     28  CA       -51.4540   22.1960  -75.4990 C.3    11  GLY11       0.2014
     29  C        -52.1740   22.1170  -74.1690 C.2    11  GLY11       0.2638
     30  O        -51.8860   22.8890  -73.2520 O.2    11  GLY11      -0.2714
     31  N        -53.1250   21.1760  -74.0640 N.am   12  ASP12      -0.1971
     32  CA       -53.9540   20.9650  -72.8760 C.3    12  ASP12       0.1709
     33  C        -53.1900   20.5140  -71.6340 C.2    12  ASP12       0.2293
     34  O        -52.2210   19.7490  -71.7260 O.2    12  ASP12      -0.2864
     35  CB       -55.0960   19.9770  -73.1820 C.3    12  ASP12       0.1436
     36  CG       -56.1720   20.4850  -74.1310 C.2    12  ASP12       0.3671
     37  OD1      -56.1820   21.7050  -74.4300 O.co2  12  ASP12      -0.2456
     38  OD2      -57.0280   19.6720  -74.5450 O.co2  12  ASP12      -0.2456
     39  N        -52.4900   18.7530  -62.3980 N.3    16  VAL16      -0.1245
     40  CA       -51.7320   19.5640  -61.4530 C.3    16  VAL16       0.1561
     41  C        -51.1410   18.6000  -60.4330 C.2    16  VAL16       0.2260
     42  O        -51.8810   17.8730  -59.7590 O.2    16  VAL16      -0.2867
     43  CB       -52.5760   20.6900  -60.7920 C.3    16  VAL16       0.0252
     44  CG1      -51.7220   21.5340  -59.8480 C.3    16  VAL16       0.0019
     45  CG2      -53.2390   21.5780  -61.8420 C.3    16  VAL16       0.0019
     46  N        -46.2250   22.1330  -59.1670 N.3    20  GLY20      -0.1210
     47  CA       -46.1650   22.4720  -60.5870 C.3    20  GLY20       0.1956
     48  C        -47.4060   22.1430  -61.3970 C.2    20  GLY20       0.2611
     49  O        -48.3740   21.5840  -60.8710 O.2    20  GLY20      -0.2717
     50  N        -47.3750   22.5000  -62.6950 N.am   21  LYS21      -0.1979
     51  CA       -48.4510   22.2680  -63.6640 C.3    21  LYS21       0.1596
     52  C        -47.8990   21.3990  -64.7920 C.2    21  LYS21       0.2287
     53  O        -46.8150   21.6830  -65.3010 O.2    21  LYS21      -0.2864
     54  CB       -48.9470   23.6130  -64.2360 C.3    21  LYS21       0.0298
     55  CG       -50.4120   23.6410  -64.6470 C.3    21  LYS21       0.0038
     56  CD       -50.7930   25.0230  -65.1820 C.3    21  LYS21       0.0206
     57  CE       -52.2570   25.1530  -65.5320 C.3    21  LYS21       0.1093
     58  NZ       -53.0930   25.4260  -64.3360 N.3    21  LYS21      -0.1314
     59  N        -48.4150   20.0410  -68.6180 N.3    23  LYS23      -0.1245
     60  CA       -49.0890   20.2910  -69.8900 C.3    23  LYS23       0.1561
     61  C        -48.5510   19.3610  -70.9590 C.2    23  LYS23       0.2260
     62  O        -47.3850   18.9760  -70.8970 O.2    23  LYS23      -0.2867
     63  CB       -48.8750   21.7500  -70.3340 C.3    23  LYS23       0.0271
     64  CG       -49.7040   22.7500  -69.5560 C.3    23  LYS23       0.0035
     65  CD       -49.5780   24.1460  -70.1200 C.3    23  LYS23       0.0206
     66  CE       -50.6590   25.0550  -69.5940 C.3    23  LYS23       0.1093
     67  NZ       -51.9640   24.8140  -70.2710 N.3    23  LYS23      -0.1314
     68  N        -44.1730   22.3630  -65.5950 N.3    38  ILE38      -0.1245
     69  CA       -43.8240   23.7730  -65.4300 C.3    38  ILE38       0.1561
     70  C        -43.6960   24.1460  -63.9540 C.2    38  ILE38       0.2260
     71  O        -44.6540   24.0190  -63.1870 O.2    38  ILE38      -0.2867
     72  CB       -44.7690   24.7380  -66.2110 C.3    38  ILE38       0.0252
     73  CG1      -45.0950   24.2070  -67.6300 C.3    38  ILE38       0.0019
     74  CG2      -44.1630   26.1470  -66.2720 C.3    38  ILE38       0.0019
     75  CD1      -46.3120   24.8580  -68.3160 C.3    38  ILE38       0.0001
     76  N        -42.6180   27.3440  -61.5230 N.3    40  ASN40      -0.1240
     77  CA       -42.4090   28.7860  -61.4420 C.3    40  ASN40       0.1653
     78  C        -41.2490   29.0700  -60.4840 C.2    40  ASN40       0.2266
     79  O        -41.2580   28.5870  -59.3490 O.2    40  ASN40      -0.2867
     80  CB       -43.6960   29.5020  -61.0120 C.3    40  ASN40       0.1155
     81  CG       -43.6090   31.0040  -61.0230 C.2    40  ASN40       0.2627
     82  OD1      -43.5510   31.6470  -59.9740 O.2    40  ASN40      -0.2716
     83  ND2      -43.6240   31.5990  -62.2070 N.am   40  ASN40      -0.0877
     84  N        -42.2730   30.9190  -57.0800 N.3    43  LYS43      -0.1245
     85  CA       -42.9550   30.0360  -56.1250 C.3    43  LYS43       0.1561
     86  C        -41.9450   29.1770  -55.3570 C.2    43  LYS43       0.2260
     87  O        -42.1370   28.9320  -54.1640 O.2    43  LYS43      -0.2867
     88  CB       -43.9970   29.1540  -56.8280 C.3    43  LYS43       0.0271
     89  CG       -45.2340   29.9350  -57.1670 C.3    43  LYS43       0.0035
     90  CD       -46.1140   29.1920  -58.1320 C.3    43  LYS43       0.0206
     91  CE       -47.2820   30.0740  -58.5480 C.3    43  LYS43       0.1093
     92  NZ       -46.8290   31.4410  -58.9660 N.3    43  LYS43      -0.1314
     93  N        -39.4930   30.7120  -65.3460 N.3    80  ASP80      -0.1239
     94  CA       -39.9380   29.3260  -65.1540 C.3    80  ASP80       0.1674
     95  C        -38.9570   28.2550  -65.6410 C.2    80  ASP80       0.2266
     96  O        -38.0440   28.5380  -66.4170 O.2    80  ASP80      -0.2867
     97  CB       -41.2980   29.1100  -65.8650 C.3    80  ASP80       0.1410
     98  CG       -42.3690   30.1390  -65.5420 C.2    80  ASP80       0.3668
     99  OD1      -43.0740   29.9600  -64.5310 O.co2  80  ASP80      -0.2456
    100  OD2      -42.4650   31.1490  -66.2760 O.co2  80  ASP80      -0.2456
    101  N        -38.9910   24.2970  -67.4600 N.3    82  PHE82      -0.1241
    102  CA       -39.8070   23.3770  -68.2530 C.3    82  PHE82       0.1605
    103  C        -39.1500   22.0070  -68.2840 C.2    82  PHE82       0.2264
    104  O        -38.0900   21.8350  -68.8830 O.2    82  PHE82      -0.2867
    105  CB       -40.0620   23.9250  -69.6700 C.3    82  PHE82       0.0534
    106  CG       -40.8560   25.2100  -69.7060 C.ar   82  PHE82      -0.0203
    107  CD1      -40.2180   26.4450  -69.6400 C.ar   82  PHE82      -0.0042
    108  CD2      -42.2410   25.1880  -69.8230 C.ar   82  PHE82      -0.0042
    109  CE1      -40.9540   27.6330  -69.6680 C.ar   82  PHE82      -0.0003
    110  CE2      -42.9770   26.3770  -69.8490 C.ar   82  PHE82      -0.0003
    111  CZ       -42.3280   27.5910  -69.7710 C.ar   82  PHE82      -0.0000
@<TRIPOS>BOND
     1     6     7    1
     2     6     5    1
     3    10     9    1
     4     1     2    1
     5     7     8    1
     6     5     2    1
     7     2     3    1
     8     9     8    2
     9     9    11    1
    10     4     3    2
    11     3    12   am
    12    12    13    1
    13    15    14    2
    14    14    13    1
    15    13    16    1
    16    19    20    1
    17    22    21    2
    18    16    18    1
    19    16    17    1
    20    21    20    1
    21    21    27   am
    22    20    23    1
    23    28    27    1
    24    28    29    1
    25    38    36   ar
    26    37    36   ar
    27    23    24    1
    28    29    31   am
    29    29    30    2
    30    36    35    1
    31    31    32    1
    32    24    26    1
    33    24    25    1
    34    35    32    1
    35    32    33    1
    36    34    33    2
    37    61    62    2
    38    61    60    1
    39    63    60    1
    40    63    64    1
    41    67    66    1
    42    65    66    1
    43    65    64    1
    44    60    59    1
    45   110   108   ar
    46   110   111   ar
    47   108   106   ar
    48   111   109   ar
    49   106   105    1
    50   106   107   ar
    51   105   102    1
    52   109   107   ar
    53   104   103    2
    54    75    73    1
    55   103   102    1
    56   102   101    1
    57    73    72    1
    58    96    95    2
    59   100    98   ar
    60    74    72    1
    61    72    69    1
    62    97    98    1
    63    97    94    1
    64    95    94    1
    65    68    69    1
    66    98    99   ar
    67    57    56    1
    68    57    58    1
    69    69    70    1
    70    93    94    1
    71    53    52    2
    72    56    55    1
    73    52    51    1
    74    55    54    1
    75    54    51    1
    76    70    71    2
    77    51    50    1
    78    50    48   am
    79    39    40    1
    80    83    81   am
    81    45    43    1
    82    76    77    1
    83    40    43    1
    84    40    41    1
    85    77    80    1
    86    77    78    1
    87    48    49    2
    88    48    47    1
    89    81    80    1
    90    81    82    2
    91    43    44    1
    92    47    46    1
    93    78    79    2
    94    41    42    2
    95    92    91    1
    96    91    90    1
    97    90    89    1
    98    89    88    1
    99    84    85    1
   100    88    85    1
   101    85    86    1
   102    86    87    2
