@<TRIPOS>MOLECULE
tmp/6b1vB02.pdb
 136 128 0 0 0
SMALL
GASTEIGER

@<TRIPOS>ATOM
      1  N        -45.8460  -48.7220   82.1970 N.3    11  ASP11      -0.1225
      2  CA       -44.4840  -48.2450   82.0090 C.3    11  ASP11       0.1805
      3  C        -43.7130  -48.6370   83.2620 C.2    11  ASP11       0.2597
      4  O        -44.0870  -48.2280   84.3520 O.2    11  ASP11      -0.2718
      5  CB       -44.5360  -46.7200   81.8170 C.3    11  ASP11       0.1424
      6  CG       -43.2090  -46.1020   81.3710 C.2    11  ASP11       0.3668
      7  OD1      -42.2060  -46.8360   81.2000 O.co2  11  ASP11      -0.2456
      8  OD2      -43.1810  -44.8500   81.2070 O.co2  11  ASP11      -0.2456
      9  N        -42.6640  -49.4490   83.0990 N.am   12  ASP12      -0.1974
     10  CA       -41.8320  -49.9700   84.2160 C.3    12  ASP12       0.1709
     11  C        -42.5850  -50.8790   85.2030 C.2    12  ASP12       0.2293
     12  O        -42.2120  -50.9500   86.3810 O.2    12  ASP12      -0.2864
     13  CB       -41.1310  -48.8340   85.0060 C.3    12  ASP12       0.1436
     14  CG       -39.9930  -48.1780   84.2430 C.2    12  ASP12       0.3671
     15  OD1      -39.7350  -48.5290   83.0730 O.co2  12  ASP12      -0.2456
     16  OD2      -39.3540  -47.2910   84.8370 O.co2  12  ASP12      -0.2456
     17  N        -35.9610  -51.4570   77.6040 N.3    50  PHE50      -0.1227
     18  CA       -36.4920  -50.1750   78.0610 C.3    50  PHE50       0.1736
     19  C        -37.3410  -49.4800   76.9880 C.2    50  PHE50       0.2596
     20  O        -37.4300  -49.9570   75.8530 O.2    50  PHE50      -0.2718
     21  CB       -35.3970  -49.2780   78.6590 C.3    50  PHE50       0.0547
     22  CG       -34.2960  -48.8970   77.7090 C.ar   50  PHE50      -0.0202
     23  CD1      -34.4940  -47.9310   76.7380 C.ar   50  PHE50      -0.0042
     24  CD2      -33.0310  -49.4540   77.8370 C.ar   50  PHE50      -0.0042
     25  CE1      -33.4770  -47.5610   75.8800 C.ar   50  PHE50      -0.0003
     26  CE2      -31.9960  -49.0810   76.9900 C.ar   50  PHE50      -0.0003
     27  CZ       -32.2240  -48.1380   76.0050 C.ar   50  PHE50      -0.0000
     28  N        -37.9200  -48.3370   77.3720 N.am   51  SER51      -0.1952
     29  CA       -39.1300  -47.7530   76.7650 C.3    51  SER51       0.1924
     30  C        -39.1460  -47.4840   75.2650 C.2    51  SER51       0.2314
     31  O        -39.8930  -48.1360   74.5260 O.2    51  SER51      -0.2863
     32  CB       -39.4710  -46.4520   77.5000 C.3    51  SER51       0.2116
     33  OG       -40.5330  -45.7520   76.8870 O.3    51  SER51      -0.2180
     34  N        -33.4150  -44.4930   73.6800 N.3    72  ASN72      -0.1240
     35  CA       -34.4370  -43.5090   74.0180 C.3    72  ASN72       0.1653
     36  C        -34.0610  -42.2090   73.3520 C.2    72  ASN72       0.2266
     37  O        -32.8680  -41.9260   73.1850 O.2    72  ASN72      -0.2867
     38  CB       -34.5090  -43.2690   75.5390 C.3    72  ASN72       0.1155
     39  CG       -35.2720  -44.3380   76.2940 C.2    72  ASN72       0.2627
     40  OD1      -35.8640  -45.2330   75.7100 O.2    72  ASN72      -0.2716
     41  ND2      -35.2850  -44.2240   77.6080 N.am   72  ASN72      -0.0877
     42  N        -33.3280  -36.7260   76.1570 N.3    75  THR75      -0.1218
     43  CA       -34.1400  -36.3610   77.3170 C.3    75  THR75       0.1862
     44  C        -34.5770  -34.9120   77.3150 C.2    75  THR75       0.2287
     45  O        -35.6570  -34.6030   77.8090 O.2    75  THR75      -0.2866
     46  CB       -33.3780  -36.6110   78.6440 C.3    75  THR75       0.1770
     47  OG1      -32.0550  -36.0600   78.5580 O.3    75  THR75      -0.2211
     48  CG2      -33.2930  -38.1320   78.9360 C.3    75  THR75       0.0375
     49  N        -48.4550  -41.7840   77.1250 N.3   105  LYS105     -0.1245
     50  CA       -47.0500  -41.6800   76.7550 C.3   105  LYS105      0.1561
     51  C        -46.8420  -42.0480   75.2890 C.2   105  LYS105      0.2260
     52  O        -47.4310  -43.0100   74.7840 O.2   105  LYS105     -0.2867
     53  CB       -46.2090  -42.5970   77.6430 C.3   105  LYS105      0.0271
     54  CG       -44.7100  -42.5110   77.4310 C.3   105  LYS105      0.0035
     55  CD       -43.9520  -43.3260   78.4700 C.3   105  LYS105      0.0206
     56  CE       -42.5190  -43.5720   78.0090 C.3   105  LYS105      0.1093
     57  NZ       -41.6170  -44.1370   79.0540 N.3   105  LYS105     -0.1314
     58  N        -43.2150  -41.1160   73.4180 N.3   107  HIS107     -0.1241
     59  CA       -41.7680  -41.4220   73.4540 C.3   107  HIS107      0.1621
     60  C        -41.1730  -41.8940   72.1210 C.2   107  HIS107      0.2264
     61  O        -40.1670  -42.5930   72.1040 O.2   107  HIS107     -0.2867
     62  CB       -41.4730  -42.4230   74.5770 C.3   107  HIS107      0.0745
     63  CG       -40.1230  -42.2620   75.2140 C.ar  107  HIS107      0.0817
     64  ND1      -39.5360  -43.2600   75.9620 N.ar  107  HIS107     -0.2268
     65  CD2      -39.2520  -41.2280   75.2240 C.ar  107  HIS107      0.1154
     66  CE1      -38.3700  -42.8420   76.4130 C.ar  107  HIS107      0.1986
     67  NE2      -38.1700  -41.6140   75.9750 N.ar  107  HIS107     -0.2212
     68  N        -40.8400  -38.8410   77.6030 N.3   130  GLY130     -0.1225
     69  CA       -40.5510  -40.1000   78.3300 C.3   130  GLY130      0.1811
     70  C        -41.3710  -40.4100   79.5790 C.2   130  GLY130      0.2280
     71  O        -41.3930  -41.5480   80.0630 O.2   130  GLY130     -0.2866
     72  N        -41.5340  -33.3290   81.7400 N.3   157  TYR157     -0.1241
     73  CA       -42.4210  -33.8900   82.7730 C.3   157  TYR157      0.1605
     74  C        -43.4170  -32.8960   83.3810 C.2   157  TYR157      0.2264
     75  O        -44.3960  -33.3250   84.0010 O.2   157  TYR157     -0.2867
     76  CB       -41.6130  -34.5440   83.9180 C.3   157  TYR157      0.0534
     77  CG       -41.1300  -35.9550   83.6190 C.ar  157  TYR157     -0.0201
     78  CD1      -41.4220  -37.0130   84.4810 C.ar  157  TYR157     -0.0009
     79  CD2      -40.3830  -36.2380   82.4620 C.ar  157  TYR157     -0.0009
     80  CE1      -40.9810  -38.3080   84.2120 C.ar  157  TYR157      0.0417
     81  CE2      -39.9400  -37.5220   82.1880 C.ar  157  TYR157      0.0417
     82  CZ       -40.2390  -38.5510   83.0660 C.ar  157  TYR157      0.1957
     83  OH       -39.8050  -39.8220   82.7800 O.3   157  TYR157     -0.2866
     84  N        -44.0650  -45.7120   86.4440 N.3   206  HIS206     -0.1226
     85  CA       -42.7570  -45.1070   86.1610 C.3   206  HIS206      0.1752
     86  C        -42.5800  -43.9070   87.0620 C.2   206  HIS206      0.2596
     87  O        -43.5570  -43.2950   87.4920 O.2   206  HIS206     -0.2718
     88  CB       -42.7070  -44.6680   84.6920 C.3   206  HIS206      0.0759
     89  CG       -41.3710  -44.2060   84.2150 C.ar  206  HIS206      0.0818
     90  ND1      -40.8490  -42.9730   84.5440 N.ar  206  HIS206     -0.2268
     91  CD2      -40.4890  -44.7730   83.3630 C.ar  206  HIS206      0.1154
     92  CE1      -39.6860  -42.8170   83.9430 C.ar  206  HIS206      0.1986
     93  NE2      -39.4410  -43.8940   83.2190 N.ar  206  HIS206     -0.2212
     94  N        -41.3220  -43.5760   87.3240 N.am  207  THR207     -0.1953
     95  CA       -40.9760  -42.4220   88.1380 C.3   207  THR207      0.1897
     96  C        -41.5370  -41.1450   87.4930 C.2   207  THR207      0.2313
     97  O        -41.7800  -41.1300   86.2810 O.2   207  THR207     -0.2863
     98  CB       -39.4450  -42.3090   88.3170 C.3   207  THR207      0.1794
     99  OG1      -38.7820  -42.4010   87.0390 O.3   207  THR207     -0.2208
    100  CG2      -38.9470  -43.4110   89.2530 C.3   207  THR207      0.0378
    101  N        -41.3990  -52.6940   79.5740 N.3   265  ASN265     -0.1240
    102  CA       -40.1420  -53.3180   79.9670 C.3   265  ASN265      0.1653
    103  C        -40.2630  -53.8470   81.4010 C.2   265  ASN265      0.2266
    104  O        -41.3130  -53.7410   82.0150 O.2   265  ASN265     -0.2867
    105  CB       -38.9790  -52.3150   79.8170 C.3   265  ASN265      0.1155
    106  CG       -39.1910  -51.0330   80.6030 C.2   265  ASN265      0.2627
    107  OD1      -39.3030  -49.9480   80.0230 O.2   265  ASN265     -0.2716
    108  ND2      -39.2360  -51.1430   81.9200 N.am  265  ASN265     -0.0877
    109  N        -38.0850  -51.5300   87.6440 N.3   268  LYS268     -0.1245
    110  CA       -36.8170  -51.0340   88.1880 C.3   268  LYS268      0.1561
    111  C        -36.8100  -51.2050   89.7080 C.2   268  LYS268      0.2260
    112  O        -37.5810  -50.5440   90.4050 O.2   268  LYS268     -0.2867
    113  CB       -36.5770  -49.5670   87.8090 C.3   268  LYS268      0.0271
    114  CG       -35.1630  -49.1060   88.1340 C.3   268  LYS268      0.0035
    115  CD       -34.7880  -47.7800   87.4910 C.3   268  LYS268      0.0206
    116  CE       -33.2930  -47.5030   87.6330 C.3   268  LYS268      0.1093
    117  NZ       -32.9240  -46.1730   87.0860 N.3   268  LYS268     -0.1314
    118  N        -35.2440  -53.6370   84.9740 N.3   282  LYS282     -0.1245
    119  CA       -35.2640  -52.7150   83.8330 C.3   282  LYS282      0.1561
    120  C        -33.9030  -52.5600   83.1610 C.2   282  LYS282      0.2260
    121  O        -32.9000  -52.3650   83.8310 O.2   282  LYS282     -0.2867
    122  CB       -35.7620  -51.3370   84.2880 C.3   282  LYS282      0.0271
    123  CG       -35.9820  -50.3180   83.1840 C.3   282  LYS282      0.0035
    124  CD       -36.2660  -48.9400   83.7450 C.3   282  LYS282      0.0206
    125  CE       -36.5350  -47.9410   82.6370 C.3   282  LYS282      0.1093
    126  NZ       -36.7970  -46.5880   83.2070 N.3   282  LYS282     -0.1314
    127  N        -29.8380  -41.0570   73.8990 N.3   429  HIS429     -0.1241
    128  CA       -30.6470  -40.3820   74.9390 C.3   429  HIS429      0.1621
    129  C        -29.9440  -39.1390   75.5580 C.2   429  HIS429      0.2264
    130  O        -30.5990  -38.3100   76.1850 O.2   429  HIS429     -0.2867
    131  CB       -31.1170  -41.3770   76.0140 C.3   429  HIS429      0.0745
    132  CG       -30.2130  -41.4810   77.2040 C.ar  429  HIS429      0.0817
    133  ND1      -28.9830  -42.1010   77.1550 N.ar  429  HIS429     -0.2268
    134  CD2      -30.3720  -41.0620   78.4840 C.ar  429  HIS429      0.1154
    135  CE1      -28.4170  -42.0430   78.3470 C.ar  429  HIS429      0.1986
    136  NE2      -29.2390  -41.4190   79.1720 N.ar  429  HIS429     -0.2212
@<TRIPOS>BOND
     1    61    60    2
     2    60    59    1
     3    37    36    2
     4    36    35    1
     5    58    59    1
     6    59    62    1
     7    34    35    1
     8   127   128    1
     9    35    38    1
    10    31    30    2
    11    62    63    1
    12    52    51    2
    13   128   129    1
    14   128   131    1
    15    63    65   ar
    16    63    64   ar
    17    65    67   ar
    18    30    29    1
    19    51    50    1
    20    38    39    1
    21   129   130    2
    22    40    39    2
    23    20    19    2
    24    25    27   ar
    25    25    23   ar
    26    64    66   ar
    27    67    66   ar
    28    27    26   ar
    29   131   132    1
    30    42    43    1
    31    39    41   am
    32    23    22   ar
    33    50    49    1
    34    50    53    1
    35    29    28    1
    36    29    32    1
    37    33    32    1
    38    19    28   am
    39    19    18    1
    40    26    24   ar
    41   133   132   ar
    42   133   135   ar
    43   132   134   ar
    44    44    43    1
    45    44    45    2
    46    43    46    1
    47    54    53    1
    48    54    55    1
    49    68    69    1
    50    17    18    1
    51    22    24   ar
    52    22    21    1
    53    56    55    1
    54    56    57    1
    55    18    21    1
    56    69    70    1
    57   135   136   ar
    58   134   136   ar
    59    47    46    1
    60    46    48    1
    61   101   102    1
    62    70    71    2
    63   105   102    1
    64   105   106    1
    65   102   103    1
    66   107   106    2
    67   106   108   am
    68     7     6   ar
    69     8     6   ar
    70     6     5    1
    71   103   104    2
    72    72    73    1
    73     5     2    1
    74     2     1    1
    75     2     3    1
    76    81    79   ar
    77    81    82   ar
    78    79    77   ar
    79   125   126    1
    80   125   124    1
    81    73    74    1
    82    73    76    1
    83    83    82    1
    84    82    80   ar
    85    15    14   ar
    86     9     3   am
    87     9    10    1
    88   120   121    2
    89   120   119    1
    90   123   124    1
    91   123   122    1
    92    93    91   ar
    93    93    92   ar
    94     3     4    2
    95    91    89   ar
    96    74    75    2
    97    77    76    1
    98    77    78   ar
    99   119   122    1
   100   119   118    1
   101    92    90   ar
   102    80    78   ar
   103    89    90   ar
   104    89    88    1
   105    10    13    1
   106    10    11    1
   107    14    16   ar
   108    14    13    1
   109    88    85    1
   110    11    12    2
   111    85    84    1
   112    85    86    1
   113    97    96    2
   114    99    98    1
   115    86    94   am
   116    86    87    2
   117   117   116    1
   118    94    95    1
   119   115   116    1
   120   115   114    1
   121    96    95    1
   122   109   110    1
   123   113   114    1
   124   113   110    1
   125    95    98    1
   126   110   111    1
   127    98   100    1
   128   111   112    2
