@<TRIPOS>MOLECULE
tmp/6b1vB03.pdb
 93 88 0 0 0
SMALL
GASTEIGER

@<TRIPOS>ATOM
      1  N        -35.9610  -51.4570   77.6040 N.3    50  PHE50      -0.1241
      2  CA       -36.4920  -50.1750   78.0610 C.3    50  PHE50       0.1605
      3  C        -37.3410  -49.4800   76.9880 C.2    50  PHE50       0.2264
      4  O        -37.4300  -49.9570   75.8530 O.2    50  PHE50      -0.2867
      5  CB       -35.3970  -49.2780   78.6590 C.3    50  PHE50       0.0534
      6  CG       -34.2960  -48.8970   77.7090 C.ar   50  PHE50      -0.0203
      7  CD1      -34.4940  -47.9310   76.7380 C.ar   50  PHE50      -0.0042
      8  CD2      -33.0310  -49.4540   77.8370 C.ar   50  PHE50      -0.0042
      9  CE1      -33.4770  -47.5610   75.8800 C.ar   50  PHE50      -0.0003
     10  CE2      -31.9960  -49.0810   76.9900 C.ar   50  PHE50      -0.0003
     11  CZ       -32.2240  -48.1380   76.0050 C.ar   50  PHE50      -0.0000
     12  N        -32.0680  -46.5770   71.0230 N.3    71  PHE71      -0.1227
     13  CA       -31.9610  -45.7800   72.2320 C.3    71  PHE71       0.1736
     14  C        -33.2110  -44.9210   72.4330 C.2    71  PHE71       0.2595
     15  O        -33.9760  -44.6760   71.4980 O.2    71  PHE71      -0.2718
     16  CB       -30.7280  -44.8830   72.1660 C.3    71  PHE71       0.0547
     17  CG       -29.4140  -45.6290   72.1840 C.ar   71  PHE71      -0.0202
     18  CD1      -28.7400  -45.8650   73.3920 C.ar   71  PHE71      -0.0042
     19  CD2      -28.8250  -46.0690   70.9940 C.ar   71  PHE71      -0.0042
     20  CE1      -27.5190  -46.5340   73.4150 C.ar   71  PHE71      -0.0003
     21  CE2      -27.6120  -46.7350   71.0090 C.ar   71  PHE71      -0.0003
     22  CZ       -26.9480  -46.9690   72.2190 C.ar   71  PHE71      -0.0000
     23  N        -33.4150  -44.4930   73.6800 N.am   72  ASN72      -0.1974
     24  CA       -34.4370  -43.5090   74.0180 C.3    72  ASN72       0.1688
     25  C        -34.0610  -42.2090   73.3520 C.2    72  ASN72       0.2292
     26  O        -32.8680  -41.9260   73.1850 O.2    72  ASN72      -0.2864
     27  CB       -34.5090  -43.2690   75.5390 C.3    72  ASN72       0.1181
     28  CG       -35.2720  -44.3380   76.2940 C.2    72  ASN72       0.2629
     29  OD1      -35.8640  -45.2330   75.7100 O.2    72  ASN72      -0.2716
     30  ND2      -35.2850  -44.2240   77.6080 N.am   72  ASN72      -0.0877
     31  N        -38.0850  -51.5300   87.6440 N.3   268  LYS268     -0.1245
     32  CA       -36.8170  -51.0340   88.1880 C.3   268  LYS268      0.1561
     33  C        -36.8100  -51.2050   89.7080 C.2   268  LYS268      0.2260
     34  O        -37.5810  -50.5440   90.4050 O.2   268  LYS268     -0.2867
     35  CB       -36.5770  -49.5670   87.8090 C.3   268  LYS268      0.0271
     36  CG       -35.1630  -49.1060   88.1340 C.3   268  LYS268      0.0035
     37  CD       -34.7880  -47.7800   87.4910 C.3   268  LYS268      0.0206
     38  CE       -33.2930  -47.5030   87.6330 C.3   268  LYS268      0.1093
     39  NZ       -32.9240  -46.1730   87.0860 N.3   268  LYS268     -0.1314
     40  N        -35.2440  -53.6370   84.9740 N.3   282  LYS282     -0.1231
     41  CA       -35.2640  -52.7150   83.8330 C.3   282  LYS282      0.1693
     42  C        -33.9030  -52.5600   83.1610 C.2   282  LYS282      0.2592
     43  O        -32.9000  -52.3650   83.8310 O.2   282  LYS282     -0.2718
     44  CB       -35.7620  -51.3370   84.2880 C.3   282  LYS282      0.0285
     45  CG       -35.9820  -50.3180   83.1840 C.3   282  LYS282      0.0035
     46  CD       -36.2660  -48.9400   83.7450 C.3   282  LYS282      0.0206
     47  CE       -36.5350  -47.9410   82.6370 C.3   282  LYS282      0.1093
     48  NZ       -36.7970  -46.5880   83.2070 N.3   282  LYS282     -0.1314
     49  N        -33.8760  -52.6510   81.8350 N.am  283  GLY283     -0.1957
     50  CA       -32.6630  -52.3990   81.0590 C.3   283  GLY283      0.1869
     51  C        -31.7160  -53.5750   80.8780 C.2   283  GLY283      0.2309
     52  O        -30.8170  -53.4920   80.0630 O.2   283  GLY283     -0.2863
     53  N        -28.9360  -54.7490   74.0220 N.3   360  ARG360     -0.1245
     54  CA       -28.9410  -53.4370   74.6840 C.3   360  ARG360      0.1563
     55  C        -27.5190  -52.9690   74.8580 C.2   360  ARG360      0.2260
     56  O        -26.6840  -53.6930   75.3820 O.2   360  ARG360     -0.2867
     57  CB       -29.6450  -53.5060   76.0440 C.3   360  ARG360      0.0307
     58  CG       -29.6570  -52.2010   76.8360 C.3   360  ARG360      0.0489
     59  CD       -28.5650  -52.1400   77.9000 C.3   360  ARG360      0.2205
     60  NE       -28.3270  -50.7620   78.3030 N.pl3 360  ARG360     -0.0865
     61  CZ       -29.0620  -50.0690   79.1790 C.cat 360  ARG360      0.5346
     62  NH1      -28.7440  -48.8050   79.4270 N.pl3 360  ARG360      0.1354
     63  NH2      -30.0980  -50.6080   79.8200 N.pl3 360  ARG360      0.1354
     64  N        -24.1990  -50.6290   75.9740 N.3   362  ARG362     -0.1245
     65  CA       -23.5970  -50.0670   77.1790 C.3   362  ARG362      0.1563
     66  C        -22.3060  -49.3420   76.8150 C.2   362  ARG362      0.2260
     67  O        -22.0710  -49.1220   75.6280 O.2   362  ARG362     -0.2867
     68  CB       -23.3700  -51.1850   78.1970 C.3   362  ARG362      0.0307
     69  CG       -24.6760  -51.8480   78.6160 C.3   362  ARG362      0.0489
     70  CD       -24.6400  -52.3110   80.0540 C.3   362  ARG362      0.2205
     71  NE       -25.9060  -52.9280   80.4770 N.pl3 362  ARG362     -0.0865
     72  CZ       -26.9330  -52.2960   81.0450 C.cat 362  ARG362      0.5346
     73  NH1      -26.9100  -50.9820   81.2680 N.pl3 362  ARG362      0.1354
     74  NH2      -28.0050  -52.9980   81.3910 N.pl3 362  ARG362      0.1354
     75  N        -29.8380  -41.0570   73.8990 N.3   429  HIS429     -0.1241
     76  CA       -30.6470  -40.3820   74.9390 C.3   429  HIS429      0.1621
     77  C        -29.9440  -39.1390   75.5580 C.2   429  HIS429      0.2264
     78  O        -30.5990  -38.3100   76.1850 O.2   429  HIS429     -0.2867
     79  CB       -31.1170  -41.3770   76.0140 C.3   429  HIS429      0.0745
     80  CG       -30.2130  -41.4810   77.2040 C.ar  429  HIS429      0.0817
     81  ND1      -28.9830  -42.1010   77.1550 N.ar  429  HIS429     -0.2268
     82  CD2      -30.3720  -41.0620   78.4840 C.ar  429  HIS429      0.1154
     83  CE1      -28.4170  -42.0430   78.3470 C.ar  429  HIS429      0.1986
     84  NE2      -29.2390  -41.4190   79.1720 N.ar  429  HIS429     -0.2212
     85  N        -23.4770  -39.9420   75.2600 N.3   433  GLU433     -0.1245
     86  CA       -23.6740  -41.3380   74.8820 C.3   433  GLU433      0.1567
     87  C        -23.3110  -41.5800   73.4140 C.2   433  GLU433      0.2260
     88  O        -22.7210  -42.6030   73.0670 O.2   433  GLU433     -0.2867
     89  CB       -25.1170  -41.7650   75.1680 C.3   433  GLU433      0.0388
     90  CG       -25.3120  -43.2720   75.2260 C.3   433  GLU433      0.1160
     91  CD       -26.7360  -43.6920   75.5400 C.2   433  GLU433      0.3649
     92  OE1      -27.6830  -42.9840   75.1210 O.co2 433  GLU433     -0.2457
     93  OE2      -26.9020  -44.7470   76.1920 O.co2 433  GLU433     -0.2457
@<TRIPOS>BOND
     1    19    21   ar
     2    19    17   ar
     3    21    22   ar
     4    12    13    1
     5    15    14    2
     6    16    17    1
     7    16    13    1
     8    17    18   ar
     9    22    20   ar
    10    13    14    1
    11    14    23   am
    12    88    87    2
    13    26    25    2
    14    25    24    1
    15    18    20   ar
    16    87    86    1
    17    23    24    1
    18    75    76    1
    19    24    27    1
    20    53    54    1
    21    54    55    1
    22    54    57    1
    23    55    56    2
    24    86    89    1
    25    86    85    1
    26    76    77    1
    27    76    79    1
    28    92    91   ar
    29    89    90    1
    30    90    91    1
    31    27    28    1
    32    91    93   ar
    33    77    78    2
    34    67    66    2
    35    29    28    2
    36     4     3    2
    37     9    11   ar
    38     9     7   ar
    39    64    65    1
    40    11    10   ar
    41    79    80    1
    42    57    58    1
    43    28    30   am
    44     7     6   ar
    45    66    65    1
    46    58    59    1
    47     3     2    1
    48    10     8   ar
    49    81    80   ar
    50    81    83   ar
    51    65    68    1
    52    80    82   ar
    53     1     2    1
    54     6     8   ar
    55     6     5    1
    56    59    60    1
    57     2     5    1
    58    68    69    1
    59    60    61    2
    60    83    84   ar
    61    82    84   ar
    62    69    70    1
    63    61    62    1
    64    61    63    1
    65    70    71    1
    66    52    51    2
    67    71    72    2
    68    51    50    1
    69    72    73    1
    70    72    74    1
    71    50    49    1
    72    49    42   am
    73    47    48    1
    74    47    46    1
    75    42    43    2
    76    42    41    1
    77    45    46    1
    78    45    44    1
    79    41    44    1
    80    41    40    1
    81    39    38    1
    82    37    38    1
    83    37    36    1
    84    31    32    1
    85    35    36    1
    86    35    32    1
    87    32    33    1
    88    33    34    2
