@<TRIPOS>MOLECULE
tmp/6b1wA00.pdb
 130 125 0 0 0
SMALL
GASTEIGER

@<TRIPOS>ATOM
      1  N          5.2190    5.3680   -3.3650 N.3    47  CYS47      -0.1221
      2  CA         6.3600    4.4510   -3.3500 C.3    47  CYS47       0.1808
      3  C          5.8600    3.0300   -3.7240 C.2    47  CYS47       0.2601
      4  O          4.9270    2.9240   -4.5130 O.2    47  CYS47      -0.2717
      5  CB         7.1200    4.5210   -2.0070 C.3    47  CYS47       0.0970
      6  SG         7.4010    6.1930   -1.3890 S.3    47  CYS47      -0.0800
      7  N          6.3840    1.9700   -3.1010 N.am   48  SER48      -0.1952
      8  CA         5.9280    0.6260   -3.3790 C.3    48  SER48       0.1924
      9  C          4.5090    0.3010   -2.9310 C.2    48  SER48       0.2314
     10  O          3.9990   -0.7450   -3.3230 O.2    48  SER48      -0.2863
     11  CB         6.8010   -0.4190   -2.6890 C.3    48  SER48       0.2116
     12  OG         8.1010   -0.5000   -3.2040 O.3    48  SER48      -0.2180
     13  N          1.5180   -1.2880   -4.9600 N.3    51  LYS51      -0.1245
     14  CA         1.5120   -2.6970   -5.3460 C.3    51  LYS51       0.1561
     15  C          0.3580   -3.4930   -4.7390 C.2    51  LYS51       0.2260
     16  O         -0.0690   -4.4790   -5.3230 O.2    51  LYS51      -0.2867
     17  CB         2.8580   -3.3430   -4.9870 C.3    51  LYS51       0.0271
     18  CG         3.9710   -2.8270   -5.8840 C.3    51  LYS51       0.0035
     19  CD         5.3500   -3.1780   -5.3640 C.3    51  LYS51       0.0206
     20  CE         6.3670   -2.5140   -6.2750 C.3    51  LYS51       0.1093
     21  NZ         7.7230   -2.3990   -5.6890 N.3    51  LYS51      -0.1314
     22  N         15.7730   -4.2890   -6.8840 N.3    83  TRP83      -0.1241
     23  CA        14.7060   -4.6460   -5.9160 C.3    83  TRP83       0.1605
     24  C         13.6000   -5.4840   -6.5660 C.2    83  TRP83       0.2264
     25  O         12.4110   -5.1930   -6.4560 O.2    83  TRP83      -0.2867
     26  CB        14.1220   -3.4400   -5.1600 C.3    83  TRP83       0.0550
     27  CG        15.0850   -2.6810   -4.2920 C.ar   83  TRP83       0.0003
     28  CD1       15.3990   -2.9470   -3.0100 C.ar   83  TRP83       0.0946
     29  CD2       15.8590   -1.5190   -4.6660 C.ar   83  TRP83       0.0152
     30  NE1       16.3100   -2.0250   -2.5360 N.ar   83  TRP83      -0.2442
     31  CE2       16.6210   -1.1480   -3.5420 C.ar   83  TRP83       0.0810
     32  CE3       15.9930   -0.7820   -5.8490 C.ar   83  TRP83       0.0012
     33  CZ2       17.4740   -0.0430   -3.5350 C.ar   83  TRP83       0.0191
     34  CZ3       16.8400    0.3450   -5.8330 C.ar   83  TRP83       0.0001
     35  CH2       17.5810    0.6750   -4.6850 C.ar   83  TRP83       0.0015
     36  N         13.7340   -9.2700   -6.2670 N.3    85  PRO85      -0.2116
     37  CA        14.4200  -10.5000   -5.8490 C.3    85  PRO85       0.1372
     38  C         13.7340  -11.7780   -6.3830 C.2    85  PRO85       0.2244
     39  O         14.4350  -12.7500   -6.7490 O.2    85  PRO85      -0.2868
     40  CB        14.3640  -10.4240   -4.3300 C.3    85  PRO85       0.0268
     41  CG        13.1760   -9.5710   -4.0360 C.3    85  PRO85       0.0207
     42  CD        13.2090   -8.5290   -5.1170 C.3    85  PRO85       0.0892
     43  N          6.9860   -9.2870   -1.2680 N.3   107  TYR107     -0.1227
     44  CA         8.4020   -8.9420   -1.3820 C.3   107  TYR107      0.1736
     45  C          8.6300   -7.5590   -2.0220 C.2   107  TYR107      0.2596
     46  O          9.7600   -7.1590   -2.1800 O.2   107  TYR107     -0.2718
     47  CB         9.1400  -10.0530   -2.1580 C.3   107  TYR107      0.0548
     48  CG         9.2020  -11.2960   -1.2900 C.ar  107  TYR107     -0.0200
     49  CD1       10.1990  -11.4360   -0.3240 C.ar  107  TYR107     -0.0009
     50  CD2        8.2020  -12.2510   -1.3660 C.ar  107  TYR107     -0.0009
     51  CE1       10.2390  -12.5380    0.5160 C.ar  107  TYR107      0.0417
     52  CE2        8.2270  -13.3610   -0.5190 C.ar  107  TYR107      0.0417
     53  CZ         9.2390  -13.5000    0.3970 C.ar  107  TYR107      0.1957
     54  OH         9.2150  -14.5640    1.2620 O.3   107  TYR107     -0.2866
     55  N          7.5620   -6.8510   -2.3700 N.am  108  SER108     -0.1952
     56  CA         7.6670   -5.5460   -2.9970 C.3   108  SER108      0.1924
     57  C          8.4840   -5.5730   -4.2770 C.2   108  SER108      0.2314
     58  O          9.1870   -4.6140   -4.6050 O.2   108  SER108     -0.2863
     59  CB         8.2480   -4.5680   -1.9740 C.3   108  SER108      0.2116
     60  OG         7.7050   -3.2970   -2.1560 O.3   108  SER108     -0.2180
     61  N          9.8490   -5.0690   -7.6910 N.3   110  ASN110     -0.1240
     62  CA         9.6280   -3.9860   -8.6880 C.3   110  ASN110      0.1653
     63  C          9.2680   -4.4590  -10.1080 C.2   110  ASN110      0.2266
     64  O          8.2760   -4.0000  -10.6930 O.2   110  ASN110     -0.2867
     65  CB        10.8650   -3.0610   -8.7380 C.3   110  ASN110      0.1155
     66  CG        10.9020   -2.0460   -7.5840 C.2   110  ASN110      0.2627
     67  OD1        9.8830   -1.7220   -7.0190 O.2   110  ASN110     -0.2716
     68  ND2       12.0880   -1.5350   -7.2520 N.am  110  ASN110     -0.0877
     69  N          7.9840    1.6020  -12.1140 N.3   144  GLU144     -0.1231
     70  CA         9.2190    1.3920  -11.3480 C.3   144  GLU144      0.1699
     71  C         10.4480    1.6190  -12.2530 C.2   144  GLU144      0.2592
     72  O         10.4780    1.0880  -13.3710 O.2   144  GLU144     -0.2718
     73  CB         9.2390   -0.0180  -10.7360 C.3   144  GLU144      0.0402
     74  CG         8.1870   -0.2480   -9.6540 C.3   144  GLU144      0.1161
     75  CD         8.4990    0.5150   -8.3890 C.2   144  GLU144      0.3649
     76  OE1        9.5300    1.2310   -8.3780 O.co2 144  GLU144     -0.2457
     77  OE2        7.7510    0.3690   -7.3820 O.co2 144  GLU144     -0.2457
     78  N         11.4680    2.3660  -11.8400 N.am  145  LEU145     -0.1980
     79  CA        11.7030    2.9620  -10.5210 C.3   145  LEU145      0.1596
     80  C         11.3720    4.4460  -10.4320 C.2   145  LEU145      0.2287
     81  O         11.4450    5.0460   -9.3360 O.2   145  LEU145     -0.2864
     82  CB        13.1990    2.8360  -10.1950 C.3   145  LEU145      0.0297
     83  CG        13.7720    1.4290  -10.0590 C.3   145  LEU145      0.0022
     84  CD1       15.2540    1.4120  -10.4220 C.3   145  LEU145      0.0001
     85  CD2       13.6020    0.9830   -8.6400 C.3   145  LEU145      0.0001
     86  N          9.2470    6.5040   -7.6940 N.3   148  ASN148     -0.1225
     87  CA         9.7520    6.7410   -6.3320 C.3   148  ASN148      0.1785
     88  C         10.4260    8.0850   -6.1020 C.2   148  ASN148      0.2597
     89  O         10.9340    8.2940   -5.0210 O.2   148  ASN148     -0.2718
     90  CB        10.7820    5.6500   -5.9820 C.3   148  ASN148      0.1169
     91  CG        10.1710    4.2830   -5.9400 C.2   148  ASN148      0.2627
     92  OD1        9.3240    4.0060   -5.0860 O.2   148  ASN148     -0.2716
     93  ND2       10.5480    3.4240   -6.8870 N.am  148  ASN148     -0.0877
     94  N         10.4580    8.9920   -7.0890 N.am  149  SER149     -0.1952
     95  CA        11.2770   10.1980   -6.9630 C.3   149  SER149      0.1924
     96  C         10.8890   11.0560   -5.7760 C.2   149  SER149      0.2314
     97  O         11.7520   11.6890   -5.1820 O.2   149  SER149     -0.2863
     98  CB        11.2830   11.0340   -8.2570 C.3   149  SER149      0.2116
     99  OG         9.9660   11.2080   -8.7430 O.3   149  SER149     -0.2180
    100  N          7.6190   -7.6620    4.3880 N.3   194  THR194     -0.1218
    101  CA         8.4050   -6.4190    4.5130 C.3   194  THR194      0.1862
    102  C          7.9530   -5.4320    5.5770 C.2   194  THR194      0.2287
    103  O          8.5710   -4.3650    5.7350 O.2   194  THR194     -0.2866
    104  CB         8.4100   -5.6640    3.1900 C.3   194  THR194      0.1770
    105  OG1        7.0950   -5.1660    2.9160 O.3   194  THR194     -0.2211
    106  CG2        8.8760   -6.5800    2.0930 C.3   194  THR194      0.0375
    107  N          8.7990    2.4440    0.5020 N.3   215  THR215     -0.1203
    108  CA         9.9690    3.1740    0.9360 C.3   215  THR215      0.1994
    109  C         10.6290    3.8070   -0.2680 C.2   215  THR215      0.2618
    110  O         11.3500    3.1210   -0.9910 O.2   215  THR215     -0.2717
    111  CB        10.9810    2.2190    1.6040 C.3   215  THR215      0.1784
    112  OG1       10.3200    1.4010    2.5500 O.3   215  THR215     -0.2211
    113  CG2       12.0520    2.9810    2.3530 C.3   215  THR215      0.0376
    114  N         10.4200    5.0990   -0.4970 N.am  216  CYS216     -0.1955
    115  CA        10.9650    5.7470   -1.7120 C.3   216  CYS216      0.1843
    116  C         12.4860    5.9240   -1.7230 C.2   216  CYS216      0.2626
    117  O         13.0800    6.1200   -2.8010 O.2   216  CYS216     -0.2714
    118  CB        10.3230    7.1100   -1.9630 C.3   216  CYS216      0.0997
    119  SG         8.6810    7.0550   -2.7410 S.3   216  CYS216     -0.0797
    120  N         13.0880    5.8980   -0.5420 N.am  217  GLY217     -0.1940
    121  CA        14.5620    5.9980   -0.3720 C.3   217  GLY217      0.2014
    122  C         15.0910    7.4230   -0.3490 C.2   217  GLY217      0.2638
    123  O         16.3100    7.6170   -0.3280 O.2   217  GLY217     -0.2714
    124  N         14.1890    8.4140   -0.3690 N.am  218  VAL218     -0.1977
    125  CA        14.5350    9.8410   -0.4440 C.3   218  VAL218      0.1596
    126  C         13.4450   10.6710    0.2150 C.2   218  VAL218      0.2287
    127  O         12.3310   10.2090    0.3900 O.2   218  VAL218     -0.2864
    128  CB        14.6270   10.3360   -1.9070 C.3   218  VAL218      0.0276
    129  CG1       15.9350    9.8930   -2.5350 C.3   218  VAL218      0.0022
    130  CG2       13.4100    9.8910   -2.7440 C.3   218  VAL218      0.0022
@<TRIPOS>BOND
     1    72    71    2
     2    71    78   am
     3    71    70    1
     4    69    70    1
     5    78    79    1
     6    70    73    1
     7    73    74    1
     8    64    63    2
     9    79    80    1
    10    79    82    1
    11    80    81    2
    12    84    83    1
    13    82    83    1
    14    63    62    1
    15    83    85    1
    16    74    75    1
    17    99    98    1
    18    65    62    1
    19    65    66    1
    20    62    61    1
    21    75    76   ar
    22    75    77   ar
    23    98    95    1
    24    86    87    1
    25    66    68   am
    26    66    67    2
    27    94    95    1
    28    94    88   am
    29    95    96    1
    30    93    91   am
    31    22    23    1
    32    39    38    2
    33    24    25    2
    34    24    23    1
    35    38    37    1
    36    87    88    1
    37    87    90    1
    38    20    21    1
    39    20    19    1
    40    36    37    1
    41    36    42    1
    42    88    89    2
    43    90    91    1
    44    91    92    2
    45    23    26    1
    46    18    19    1
    47    18    17    1
    48    37    40    1
    49    32    34   ar
    50    32    29   ar
    51    34    35   ar
    52    96    97    2
    53    14    17    1
    54    14    13    1
    55    14    15    1
    56    16    15    2
    57    26    27    1
    58    42    41    1
    59    35    33   ar
    60    29    27   ar
    61    29    31   ar
    62    58    57    2
    63     4     3    2
    64    40    41    1
    65    27    28   ar
    66    57    56    1
    67     3     2    1
    68     3     7   am
    69    31    33   ar
    70    31    30   ar
    71     8     7    1
    72     8     9    1
    73     8    11    1
    74     1     2    1
    75     2     5    1
    76    10     9    2
    77    12    11    1
    78    28    30   ar
    79    56    55    1
    80    56    59    1
    81   117   116    2
    82   130   128    1
    83   119   118    1
    84   119     6    1
    85   129   128    1
    86    55    45   am
    87    46    45    2
    88    47    44    1
    89    47    48    1
    90    60    59    1
    91    45    44    1
    92     5     6    1
    93   118   115    1
    94   128   125    1
    95   116   115    1
    96   116   120   am
    97   115   114    1
    98    44    43    1
    99    50    48   ar
   100    50    52   ar
   101    48    49   ar
   102   110   109    2
   103   120   121    1
   104    52    53   ar
   105   114   109   am
   106   125   124    1
   107   125   126    1
   108   121   122    1
   109   124   122   am
   110   122   123    2
   111    49    51   ar
   112   109   108    1
   113   126   127    2
   114    53    51   ar
   115    53    54    1
   116   107   108    1
   117   108   111    1
   118   111   113    1
   119   111   112    1
   120   106   104    1
   121   105   104    1
   122   104   101    1
   123   100   101    1
   124   101   102    1
   125   102   103    2
