@<TRIPOS>MOLECULE
tmp/6b1xB01.pdb
 149 143 0 0 0
SMALL
GASTEIGER

@<TRIPOS>ATOM
      1  N        -14.3660   23.4550   36.2750 N.3    44  CYS44      -0.1221
      2  CA       -13.0720   22.7480   36.1340 C.3    44  CYS44       0.1808
      3  C        -13.3330   21.2500   35.8130 C.2    44  CYS44       0.2601
      4  O        -14.2820   20.9600   35.0770 O.2    44  CYS44      -0.2717
      5  CB       -12.1960   22.9510   37.3740 C.3    44  CYS44       0.0970
      6  SG       -12.2480   24.6120   38.1100 S.3    44  CYS44      -0.0800
      7  N        -12.5700   20.3180   36.3900 N.am   45  SER45      -0.1952
      8  CA       -12.7360   18.9050   36.0660 C.3    45  SER45       0.1924
      9  C        -14.0450   18.3230   36.5380 C.2    45  SER45       0.2314
     10  O        -14.3640   17.1880   36.2180 O.2    45  SER45      -0.2863
     11  CB       -11.6910   18.0340   36.7420 C.3    45  SER45       0.2116
     12  OG       -10.4070   18.1790   36.1550 O.3    45  SER45      -0.2180
     13  N        -16.7340   16.0920   34.6920 N.3    48  LYS48      -0.1245
     14  CA       -16.4970   14.7100   34.2420 C.3    48  LYS48       0.1561
     15  C        -17.4140   13.6770   34.8890 C.2    48  LYS48       0.2260
     16  O        -17.6930   12.6200   34.2900 O.2    48  LYS48      -0.2867
     17  CB       -15.0460   14.3370   34.4720 C.3    48  LYS48       0.0271
     18  CG       -14.0600   15.1370   33.6250 C.3    48  LYS48       0.0035
     19  CD       -12.6050   15.0260   34.0530 C.3    48  LYS48       0.0206
     20  CE       -11.7200   15.9940   33.2990 C.3    48  LYS48       0.1093
     21  NZ       -10.3440   16.1420   33.8640 N.3    48  LYS48      -0.1314
     22  N         -2.6760   17.5050   28.2500 N.3    79  PRO79      -0.2102
     23  CA        -2.0600   17.3690   29.5790 C.3    79  PRO79       0.1504
     24  C         -2.9700   16.7570   30.6350 C.2    79  PRO79       0.2575
     25  O         -4.2090   16.9170   30.5930 O.2    79  PRO79      -0.2718
     26  CB        -1.7030   18.8030   29.9190 C.3    79  PRO79       0.0282
     27  CG        -1.3320   19.3660   28.5900 C.3    79  PRO79       0.0208
     28  CD        -2.3360   18.7960   27.6430 C.3    79  PRO79       0.0893
     29  N         -2.3440   16.0190   31.5490 N.am   80  TRP80      -0.1977
     30  CA        -2.9980   15.3060   32.6610 C.3    80  TRP80       0.1640
     31  C         -3.9330   14.1910   32.1770 C.2    80  TRP80       0.2290
     32  O         -5.1130   14.1560   32.5480 O.2    80  TRP80      -0.2864
     33  CB        -3.7120   16.2720   33.6300 C.3    80  TRP80       0.0576
     34  CG        -3.8170   15.7490   35.0720 C.ar   80  TRP80       0.0006
     35  CD1       -4.4770   14.6310   35.4960 C.ar   80  TRP80       0.0946
     36  CD2       -3.2200   16.3220   36.2470 C.ar   80  TRP80       0.0152
     37  NE1       -4.3620   14.4920   36.8610 N.ar   80  TRP80      -0.2442
     38  CE2       -3.5870   15.5090   37.3430 C.ar   80  TRP80       0.0810
     39  CE3       -2.4400   17.4580   36.4830 C.ar   80  TRP80       0.0012
     40  CZ2       -3.1980   15.7920   38.6450 C.ar   80  TRP80       0.0191
     41  CZ3       -2.0540   17.7280   37.7890 C.ar   80  TRP80       0.0001
     42  CH2       -2.4310   16.8920   38.8440 C.ar   80  TRP80       0.0015
     43  N         -9.5280   11.7740   36.8690 N.3   105  SER105     -0.1217
     44  CA        -9.7390   13.0550   36.2450 C.3   105  SER105      0.1889
     45  C         -8.9410   13.1770   34.9340 C.2   105  SER105      0.2288
     46  O         -8.4390   14.2600   34.5820 O.2   105  SER105     -0.2866
     47  CB        -9.4100   14.1760   37.2080 C.3   105  SER105      0.2089
     48  OG       -10.2680   15.2780   36.9260 O.3   105  SER105     -0.2183
     49  N         -7.8780   13.9270   31.4240 N.3   107  ASN107     -0.1240
     50  CA        -8.3650   14.9630   30.5080 C.3   107  ASN107      0.1653
     51  C         -8.6590   14.4400   29.1270 C.2   107  ASN107      0.2266
     52  O         -9.7070   14.7810   28.5650 O.2   107  ASN107     -0.2867
     53  CB        -7.4110   16.1760   30.4380 C.3   107  ASN107      0.1155
     54  CG        -7.5770   17.1310   31.6190 C.2   107  ASN107      0.2627
     55  OD1       -8.6670   17.2850   32.1650 O.2   107  ASN107     -0.2716
     56  ND2       -6.5070   17.8280   31.9510 N.am  107  ASN107     -0.0877
     57  N        -11.3080   20.3250   27.2360 N.3   141  GLU141     -0.1231
     58  CA       -10.0390   20.3400   27.9630 C.3   141  GLU141      0.1699
     59  C         -8.9290   20.7880   27.0180 C.2   141  GLU141      0.2592
     60  O         -8.8530   20.2460   25.9270 O.2   141  GLU141     -0.2718
     61  CB        -9.7350   18.9530   28.5160 C.3   141  GLU141      0.0402
     62  CG       -10.5970   18.5260   29.6620 C.3   141  GLU141      0.1161
     63  CD       -10.4120   19.3010   30.9220 C.2   141  GLU141      0.3649
     64  OE1       -9.4980   20.1420   31.0160 O.co2 141  GLU141     -0.2457
     65  OE2      -11.1620   19.0280   31.8640 O.co2 141  GLU141     -0.2457
     66  N         -8.0520   21.7230   27.3800 N.am  142  LEU142     -0.1980
     67  CA        -7.8900   22.3270   28.7100 C.3   142  LEU142      0.1596
     68  C         -8.4970   23.7210   28.8850 C.2   142  LEU142      0.2287
     69  O         -8.4910   24.2870   29.9980 O.2   142  LEU142     -0.2864
     70  CB        -6.3910   22.5290   28.9200 C.3   142  LEU142      0.0297
     71  CG        -5.4330   21.3700   28.7010 C.3   142  LEU142      0.0022
     72  CD1       -3.9830   21.8510   28.8460 C.3   142  LEU142      0.0001
     73  CD2       -5.8160   20.2940   29.7090 C.3   142  LEU142      0.0001
     74  N        -10.8170   25.2720   31.7910 N.3   145  ASN145     -0.1225
     75  CA       -10.2870   25.5640   33.1370 C.3   145  ASN145      0.1785
     76  C         -9.8200   26.9920   33.3850 C.2   145  ASN145      0.2597
     77  O         -9.2910   27.2620   34.4580 O.2   145  ASN145     -0.2718
     78  CB        -9.0950   24.6750   33.4290 C.3   145  ASN145      0.1169
     79  CG        -9.4420   23.2310   33.3670 C.2   145  ASN145      0.2627
     80  OD1      -10.1500   22.7430   34.2350 O.2   145  ASN145     -0.2716
     81  ND2       -8.9920   22.5510   32.3300 N.am  145  ASN145     -0.0877
     82  N        -10.0020   27.8840   32.4070 N.am  146  SER146     -0.1952
     83  CA        -9.4350   29.2230   32.4900 C.3   146  SER146      0.1924
     84  C         -9.9090   29.9930   33.7210 C.2   146  SER146      0.2314
     85  O         -9.1180   30.7120   34.3280 O.2   146  SER146     -0.2863
     86  CB        -9.6890   30.0100   31.1990 C.3   146  SER146      0.2116
     87  OG       -11.0680   30.1620   30.8960 O.3   146  SER146     -0.2180
     88  N         -9.0710   11.0660   43.8600 N.3   191  THR191     -0.1218
     89  CA        -8.5580   12.4280   43.9450 C.3   191  THR191      0.1862
     90  C         -9.1560   13.2830   45.0590 C.2   191  THR191      0.2287
     91  O         -8.7470   14.4260   45.2190 O.2   191  THR191     -0.2866
     92  CB        -8.8090   13.1780   42.6250 C.3   191  THR191      0.1770
     93  OG1      -10.2110   13.4140   42.4650 O.3   191  THR191     -0.2211
     94  CG2       -8.2530   12.4230   41.4350 C.3   191  THR191      0.0375
     95  N        -10.8990   16.4590   50.5520 N.3   195  ARG195     -0.1245
     96  CA       -12.0220   17.3860   50.3550 C.3   195  ARG195      0.1563
     97  C        -13.2590   16.9020   51.1150 C.2   195  ARG195      0.2260
     98  O        -13.1880   16.7190   52.3260 O.2   195  ARG195     -0.2867
     99  CB       -12.2250   17.6460   48.8550 C.3   195  ARG195      0.0307
    100  CG       -11.0150   18.3840   48.2920 C.3   195  ARG195      0.0489
    101  CD       -11.1030   18.7550   46.8420 C.3   195  ARG195      0.2205
    102  NE        -9.8060   19.1390   46.3310 N.pl3 195  ARG195     -0.0865
    103  CZ        -9.5780   19.7030   45.1500 C.cat 195  ARG195      0.5346
    104  NH1      -10.5930   20.0340   44.3270 N.pl3 195  ARG195      0.1354
    105  NH2       -8.3380   19.9800   44.8090 N.pl3 195  ARG195      0.1354
    106  N        -16.6070   13.7130   42.9930 N.3   209  LYS209     -0.1231
    107  CA       -15.7680   14.1770   41.8740 C.3   209  LYS209      0.1693
    108  C        -15.2400   15.5560   42.1850 C.2   209  LYS209      0.2593
    109  O        -16.0200   16.4450   42.5390 O.2   209  LYS209     -0.2718
    110  CB       -16.5200   14.2410   40.5420 C.3   209  LYS209      0.0285
    111  CG       -15.6950   14.7220   39.3530 C.3   209  LYS209      0.0035
    112  CD       -14.6990   13.6780   38.8430 C.3   209  LYS209      0.0206
    113  CE       -13.5930   14.2930   37.9760 C.3   209  LYS209      0.1093
    114  NZ       -12.4690   14.9000   38.7430 N.3   209  LYS209     -0.1314
    115  N        -13.9300   15.7040   42.0160 N.am  210  THR210     -0.1939
    116  CA       -13.2310   16.9770   42.3190 C.3   210  THR210      0.2028
    117  C        -12.9750   17.7830   41.0400 C.2   210  THR210      0.2643
    118  O        -13.1150   17.2870   39.9050 O.2   210  THR210     -0.2714
    119  CB       -11.8760   16.6770   42.9510 C.3   210  THR210      0.1808
    120  OG1      -11.1300   15.8760   42.0510 O.3   210  THR210     -0.2208
    121  CG2      -12.0310   15.9450   44.2450 C.3   210  THR210      0.0379
    122  N        -12.6270   19.0400   41.2290 N.am  211  GLY211     -0.1939
    123  CA       -12.1220   19.8960   40.1610 C.3   211  GLY211      0.2014
    124  C        -11.1490   20.9110   40.7250 C.2   211  GLY211      0.2640
    125  O        -11.3260   21.3800   41.8430 O.2   211  GLY211     -0.2714
    126  N        -10.0800   21.1940   39.9860 N.am  212  THR212     -0.1936
    127  CA        -9.0540   22.1380   40.4120 C.3   212  THR212      0.2028
    128  C         -8.5130   22.8970   39.2100 C.2   212  THR212      0.2642
    129  O         -7.6600   22.3880   38.4870 O.2   212  THR212     -0.2714
    130  CB        -7.8760   21.4020   41.0860 C.3   212  THR212      0.1808
    131  OG1       -8.3800   20.4490   42.0280 O.3   212  THR212     -0.2208
    132  CG2       -6.9540   22.4060   41.8030 C.3   212  THR212      0.0379
    133  N         -9.0240   24.0960   38.9800 N.am  213  CYS213     -0.1953
    134  CA        -8.6490   24.8770   37.7920 C.3   213  CYS213      0.1843
    135  C         -7.1560   25.2880   37.8320 C.2   213  CYS213      0.2626
    136  O         -6.5480   25.4610   36.7730 O.2   213  CYS213     -0.2714
    137  CB        -9.5710   26.1010   37.5890 C.3   213  CYS213      0.0997
    138  SG       -11.1250   25.7490   36.7410 S.3   213  CYS213     -0.0797
    139  N         -6.5700   25.4330   39.0040 N.am  214  GLY214     -0.1940
    140  CA        -5.1220   25.7700   39.0870 C.3   214  GLY214      0.2014
    141  C         -4.8280   27.2610   38.9320 C.2   214  GLY214      0.2638
    142  O         -3.6570   27.6750   38.8520 O.2   214  GLY214     -0.2714
    143  N         -5.8870   28.0600   38.9680 N.am  215  VAL215     -0.1977
    144  CA        -5.8310   29.5170   38.9120 C.3   215  VAL215      0.1596
    145  C         -7.0230   30.0860   39.6600 C.2   215  VAL215      0.2287
    146  O         -8.0290   29.3960   39.8870 O.2   215  VAL215     -0.2864
    147  CB        -5.8480   30.0570   37.4740 C.3   215  VAL215      0.0276
    148  CG1       -4.5140   29.7860   36.7930 C.3   215  VAL215      0.0022
    149  CG2       -7.0380   29.5200   36.6720 C.3   215  VAL215      0.0022
@<TRIPOS>BOND
     1    60    59    2
     2    59    66   am
     3    59    58    1
     4    57    58    1
     5    66    67    1
     6    28    22    1
     7    28    27    1
     8    58    61    1
     9    22    23    1
    10    61    62    1
    11    52    51    2
    12    27    26    1
    13    71    72    1
    14    71    70    1
    15    71    73    1
    16    67    68    1
    17    67    70    1
    18    68    69    2
    19    51    50    1
    20    23    26    1
    21    23    24    1
    22    62    63    1
    23    53    50    1
    24    53    54    1
    25    50    49    1
    26    25    24    2
    27    24    29   am
    28    87    86    1
    29    63    64   ar
    30    63    65   ar
    31    86    83    1
    32    29    30    1
    33    54    56   am
    34    54    55    2
    35    74    75    1
    36    31    32    2
    37    31    30    1
    38    81    79   am
    39    82    83    1
    40    82    76   am
    41    83    84    1
    42    30    33    1
    43    75    76    1
    44    75    78    1
    45    20    21    1
    46    20    19    1
    47    79    78    1
    48    79    80    2
    49    76    77    2
    50    18    19    1
    51    18    17    1
    52    33    34    1
    53    84    85    2
    54    14    17    1
    55    14    13    1
    56    14    15    1
    57    16    15    2
    58    46    45    2
    59    45    44    1
    60    34    35   ar
    61    34    36   ar
    62     4     3    2
    63    35    37   ar
    64     3     2    1
    65     3     7   am
    66     8     7    1
    67     8     9    1
    68     8    11    1
    69     2     1    1
    70     2     5    1
    71    12    11    1
    72    10     9    2
    73    44    43    1
    74    44    47    1
    75    36    39   ar
    76    36    38   ar
    77    39    41   ar
    78   149   147    1
    79   138   137    1
    80   138     6    1
    81   136   135    2
    82   148   147    1
    83    37    38   ar
    84    48    47    1
    85    38    40   ar
    86     5     6    1
    87   147   144    1
    88   137   134    1
    89    41    42   ar
    90   134   135    1
    91   134   133    1
    92   135   139   am
    93   113   114    1
    94   113   112    1
    95   129   128    2
    96    40    42   ar
    97   112   111    1
    98   142   141    2
    99   144   143    1
   100   144   145    1
   101   141   143   am
   102   141   140    1
   103   133   128   am
   104   139   140    1
   105   128   127    1
   106   111   110    1
   107   145   146    2
   108   118   117    2
   109   126   127    1
   110   126   124   am
   111   123   124    1
   112   123   122    1
   113   127   130    1
   114   110   107    1
   115   124   125    2
   116   117   122   am
   117   117   116    1
   118   130   132    1
   119   130   131    1
   120    94    92    1
   121   107   108    1
   122   107   106    1
   123   115   108   am
   124   115   116    1
   125   120   119    1
   126   108   109    2
   127   116   119    1
   128    93    92    1
   129    92    89    1
   130   119   121    1
   131    88    89    1
   132    89    90    1
   133   104   103    1
   134   105   103    1
   135    90    91    2
   136   103   102    2
   137   102   101    1
   138   101   100    1
   139   100    99    1
   140    99    96    1
   141    96    95    1
   142    96    97    1
   143    97    98    2
