@<TRIPOS>MOLECULE
tmp/6b1yB00.pdb
 137 133 0 0 0
SMALL
GASTEIGER

@<TRIPOS>ATOM
      1  N         10.7720  -13.6770  -35.8660 N.3    44  CYS44      -0.1221
      2  CA         9.4790  -14.3450  -35.7050 C.3    44  CYS44       0.1808
      3  C          9.7150  -15.8510  -35.4470 C.2    44  CYS44       0.2601
      4  O         10.6570  -16.1980  -34.7760 O.2    44  CYS44      -0.2717
      5  CB         8.6120  -14.1140  -36.9700 C.3    44  CYS44       0.0970
      6  SG         8.6460  -12.4760  -37.7020 S.3    44  CYS44      -0.0800
      7  N          8.9380  -16.7460  -36.0420 N.am   45  SER45      -0.1952
      8  CA         9.0810  -18.1620  -35.7650 C.3    45  SER45       0.1924
      9  C         10.3760  -18.7700  -36.2550 C.2    45  SER45       0.2314
     10  O         10.6790  -19.8860  -35.8420 O.2    45  SER45      -0.2863
     11  CB         7.9970  -18.9760  -36.4400 C.3    45  SER45       0.2116
     12  OG         6.7500  -18.8630  -35.7450 O.3    45  SER45      -0.2180
     13  N         13.0750  -20.9470  -34.3270 N.3    48  LYS48      -0.1245
     14  CA        12.8670  -22.3110  -33.8760 C.3    48  LYS48       0.1561
     15  C         13.7950  -23.3400  -34.5440 C.2    48  LYS48       0.2260
     16  O         14.0680  -24.3670  -33.9480 O.2    48  LYS48      -0.2867
     17  CB        11.4030  -22.7150  -34.0600 C.3    48  LYS48       0.0271
     18  CG        10.4480  -21.9090  -33.1800 C.3    48  LYS48       0.0035
     19  CD         8.9980  -22.0500  -33.6690 C.3    48  LYS48       0.0206
     20  CE         8.0870  -21.2110  -32.7790 C.3    48  LYS48       0.1093
     21  NZ         6.8090  -20.8200  -33.4160 N.3    48  LYS48      -0.1314
     22  N         -0.9990  -19.5710  -27.8600 N.3    79  PRO79      -0.2102
     23  CA        -1.5260  -19.6410  -29.2010 C.3    79  PRO79       0.1504
     24  C         -0.5910  -20.2160  -30.2670 C.2    79  PRO79       0.2575
     25  O          0.6340  -20.0600  -30.1710 O.2    79  PRO79      -0.2718
     26  CB        -1.9080  -18.1810  -29.5030 C.3    79  PRO79       0.0282
     27  CG        -2.2920  -17.6080  -28.1790 C.3    79  PRO79       0.0208
     28  CD        -1.3550  -18.2970  -27.1930 C.3    79  PRO79       0.0893
     29  N         -1.1840  -20.9000  -31.2450 N.am   80  TRP80      -0.1977
     30  CA        -0.4890  -21.6330  -32.3190 C.3    80  TRP80       0.1640
     31  C          0.4040  -22.7680  -31.7570 C.2    80  TRP80       0.2290
     32  O          1.6220  -22.8220  -32.0780 O.2    80  TRP80      -0.2864
     33  CB         0.4130  -20.7680  -33.2000 C.3    80  TRP80       0.0576
     34  CG        -0.1350  -19.5460  -33.9020 C.ar   80  TRP80       0.0006
     35  CD1       -0.1410  -18.2400  -33.4250 C.ar   80  TRP80       0.0946
     36  CD2       -0.6230  -19.4840  -35.2400 C.ar   80  TRP80       0.0152
     37  NE1       -0.6460  -17.3970  -34.3850 N.ar   80  TRP80      -0.2442
     38  CE2       -0.9470  -18.1220  -35.5090 C.ar   80  TRP80       0.0810
     39  CE3       -0.8330  -20.4470  -36.2470 C.ar   80  TRP80       0.0012
     40  CZ2       -1.4900  -17.6920  -36.7630 C.ar   80  TRP80       0.0191
     41  CZ3       -1.3590  -20.0210  -37.5030 C.ar   80  TRP80       0.0001
     42  CH2       -1.6820  -18.6640  -37.7410 C.ar   80  TRP80       0.0015
     43  N         -0.5010  -26.3460  -32.0700 N.3    82  PRO82      -0.2116
     44  CA        -1.3660  -27.4590  -32.4870 C.3    82  PRO82       0.1372
     45  C         -0.8770  -28.8470  -32.0970 C.2    82  PRO82       0.2244
     46  O         -1.6830  -29.7140  -31.7180 O.2    82  PRO82      -0.2868
     47  CB        -1.3350  -27.3540  -34.0030 C.3    82  PRO82       0.0268
     48  CG        -0.0550  -26.7080  -34.3120 C.3    82  PRO82       0.0207
     49  CD         0.0670  -25.6730  -33.2390 C.3    82  PRO82       0.0892
     50  N          6.0300  -27.7400  -37.5850 N.3   104  TYR104     -0.1227
     51  CA         4.7200  -27.0930  -37.4540 C.3   104  TYR104      0.1736
     52  C          4.7730  -25.7450  -36.7600 C.2   104  TYR104      0.2596
     53  O          3.7470  -25.1510  -36.5320 O.2   104  TYR104     -0.2718
     54  CB         3.7570  -28.0230  -36.6730 C.3   104  TYR104      0.0548
     55  CG         3.3790  -29.2300  -37.4790 C.ar  104  TYR104     -0.0200
     56  CD1        2.3270  -29.1740  -38.3700 C.ar  104  TYR104     -0.0009
     57  CD2        4.1470  -30.4050  -37.4060 C.ar  104  TYR104     -0.0009
     58  CE1        1.9880  -30.2620  -39.1470 C.ar  104  TYR104      0.0417
     59  CE2        3.8300  -31.5050  -38.1700 C.ar  104  TYR104      0.0417
     60  CZ         2.7670  -31.4260  -39.0510 C.ar  104  TYR104      0.1957
     61  OH         2.4590  -32.4890  -39.8000 O.3   104  TYR104     -0.2866
     62  N          5.9580  -25.2490  -36.4350 N.am  105  SER105     -0.1952
     63  CA         6.0930  -23.9600  -35.8290 C.3   105  SER105      0.1924
     64  C          5.3620  -23.8350  -34.4790 C.2   105  SER105      0.2314
     65  O          4.9850  -22.7490  -34.0240 O.2   105  SER105     -0.2863
     66  CB         5.7360  -22.8470  -36.8240 C.3   105  SER105      0.2116
     67  OG         6.6040  -21.7460  -36.6590 O.3   105  SER105     -0.2180
     68  N          4.3160  -23.1710  -30.9710 N.3   107  ASN107     -0.1240
     69  CA         4.8330  -22.1650  -30.0400 C.3   107  ASN107      0.1653
     70  C          5.1070  -22.6800  -28.6240 C.2   107  ASN107      0.2266
     71  O          6.1580  -22.3560  -28.0400 O.2   107  ASN107     -0.2867
     72  CB         3.8760  -20.9530  -29.9590 C.3   107  ASN107      0.1155
     73  CG         4.0780  -19.9600  -31.0960 C.2   107  ASN107      0.2627
     74  OD1        5.1810  -19.7950  -31.6470 O.2   107  ASN107     -0.2716
     75  ND2        3.0120  -19.2830  -31.4450 N.am  107  ASN107     -0.0877
     76  N          7.8770  -16.8950  -26.7660 N.3   141  GLU141     -0.1231
     77  CA         6.6220  -16.8410  -27.4800 C.3   141  GLU141      0.1699
     78  C          5.5210  -16.3330  -26.5160 C.2   141  GLU141      0.2592
     79  O          5.4300  -16.8360  -25.3910 O.2   141  GLU141     -0.2718
     80  CB         6.2770  -18.2290  -28.0520 C.3   141  GLU141      0.0402
     81  CG         7.1510  -18.6720  -29.1960 C.3   141  GLU141      0.1161
     82  CD         6.9230  -17.8700  -30.4590 C.2   141  GLU141      0.3649
     83  OE1        6.0000  -17.0030  -30.4840 O.co2 141  GLU141     -0.2457
     84  OE2        7.6450  -18.1140  -31.4720 O.co2 141  GLU141     -0.2457
     85  N          4.6380  -15.4130  -26.9070 N.am  142  LEU142     -0.1980
     86  CA         4.5100  -14.8190  -28.2500 C.3   142  LEU142      0.1596
     87  C          5.0720  -13.4010  -28.3670 C.2   142  LEU142      0.2287
     88  O          5.0740  -12.8290  -29.4440 O.2   142  LEU142     -0.2864
     89  CB         3.0360  -14.7740  -28.6490 C.3   142  LEU142      0.0297
     90  CG         2.2810  -16.1100  -28.8650 C.3   142  LEU142      0.0022
     91  CD1        0.8720  -15.8910  -28.3150 C.3   142  LEU142      0.0001
     92  CD2        2.1710  -16.4300  -30.3190 C.3   142  LEU142      0.0001
     93  N          7.2240  -11.8130  -31.3040 N.3   145  ASN145     -0.1225
     94  CA         6.6960  -11.4910  -32.6300 C.3   145  ASN145      0.1785
     95  C          6.2570  -10.0510  -32.8180 C.2   145  ASN145      0.2597
     96  O          5.6170   -9.7560  -33.8370 O.2   145  ASN145     -0.2718
     97  CB         5.5090  -12.3720  -32.9460 C.3   145  ASN145      0.1169
     98  CG         5.8600  -13.8330  -32.8980 C.2   145  ASN145      0.2627
     99  OD1        6.6100  -14.3130  -33.7270 O.2   145  ASN145     -0.2716
    100  ND2        5.3430  -14.5300  -31.9070 N.am  145  ASN145     -0.0877
    101  N          6.5460   -9.1510  -31.8640 N.am  146  SER146     -0.1952
    102  CA         5.9170   -7.8470  -31.8790 C.3   146  SER146      0.1924
    103  C          6.4090   -7.0590  -33.0940 C.2   146  SER146      0.2314
    104  O          5.6270   -6.3750  -33.7860 O.2   146  SER146     -0.2863
    105  CB         6.0950   -7.1260  -30.5060 C.3   146  SER146      0.2116
    106  OG         7.4750   -6.9530  -30.2280 O.3   146  SER146     -0.2180
    107  N          5.4690  -26.0290  -43.3340 N.3   191  THR191     -0.1218
    108  CA         4.9210  -24.6790  -43.4230 C.3   191  THR191      0.1862
    109  C          5.5160  -23.8270  -44.5490 C.2   191  THR191      0.2287
    110  O          5.1210  -22.6630  -44.6760 O.2   191  THR191     -0.2866
    111  CB         5.1590  -23.8970  -42.1020 C.3   191  THR191      0.1770
    112  OG1        6.5670  -23.7080  -41.9270 O.3   191  THR191     -0.2211
    113  CG2        4.6020  -24.6450  -40.8810 C.3   191  THR191      0.0375
    114  N          6.4880  -15.9770  -39.5020 N.3   212  THR212     -0.1203
    115  CA         5.4150  -15.0140  -39.8900 C.3   212  THR212      0.1994
    116  C          4.9260  -14.2320  -38.6560 C.2   212  THR212      0.2618
    117  O          4.0580  -14.6900  -37.9260 O.2   212  THR212     -0.2717
    118  CB         4.2510  -15.7810  -40.5770 C.3   212  THR212      0.1784
    119  OG1        4.7910  -16.5990  -41.6050 O.3   212  THR212     -0.2211
    120  CG2        3.2210  -14.8370  -41.2040 C.3   212  THR212      0.0376
    121  N          5.4930  -13.0580  -38.4050 N.am  213  CYS213     -0.1955
    122  CA         5.1350  -12.2920  -37.2070 C.3   213  CYS213      0.1843
    123  C          3.6560  -11.9190  -37.1650 C.2   213  CYS213      0.2626
    124  O          3.0600  -11.8620  -36.0750 O.2   213  CYS213     -0.2714
    125  CB         5.9960  -11.0510  -37.0450 C.3   213  CYS213      0.0997
    126  SG         7.6070  -11.3530  -36.3090 S.3   213  CYS213     -0.0797
    127  N          3.0630  -11.7340  -38.3340 N.am  214  GLY214     -0.1940
    128  CA         1.6460  -11.4290  -38.4250 C.3   214  GLY214      0.2014
    129  C          1.3550   -9.9230  -38.3530 C.2   214  GLY214      0.2638
    130  O          0.1950   -9.5150  -38.3200 O.2   214  GLY214     -0.2714
    131  N          2.3940   -9.0960  -38.3630 N.am  215  VAL215     -0.1977
    132  CA         2.2860   -7.6310  -38.3330 C.3   215  VAL215      0.1596
    133  C          3.4810   -7.0340  -39.0610 C.2   215  VAL215      0.2287
    134  O          4.4940   -7.7100  -39.2520 O.2   215  VAL215     -0.2864
    135  CB         2.3370   -7.0790  -36.8790 C.3   215  VAL215      0.0276
    136  CG1        1.0750   -7.3940  -36.1220 C.3   215  VAL215      0.0022
    137  CG2        3.5410   -7.6280  -36.0930 C.3   215  VAL215      0.0022
@<TRIPOS>BOND
     1   110   109    2
     2   109   108    1
     3   108   107    1
     4   108   111    1
     5   111   112    1
     6   111   113    1
     7   119   118    1
     8   120   118    1
     9   118   115    1
    10   115   114    1
    11   115   116    1
    12    61    60    1
    13   134   133    2
    14    58    60   ar
    15    58    56   ar
    16   133   132    1
    17    60    59   ar
    18   116   121   am
    19   116   117    2
    20   128   129    1
    21   128   127    1
    22   121   122    1
    23    56    55   ar
    24   131   129   am
    25   131   132    1
    26   129   130    2
    27   127   123   am
    28   132   135    1
    29    59    57   ar
    30    42    41   ar
    31    42    40   ar
    32     6     5    1
    33     6   126    1
    34    50    51    1
    35    41    39   ar
    36    55    57   ar
    37    55    54    1
    38    51    52    1
    39    51    54    1
    40   122   123    1
    41   122   125    1
    42   123   124    2
    43   125   126    1
    44     5     2    1
    45   135   136    1
    46   135   137    1
    47    66    67    1
    48    66    63    1
    49    40    38   ar
    50    52    53    2
    51    52    62   am
    52    11     8    1
    53    11    12    1
    54    62    63    1
    55     9    10    2
    56     9     8    1
    57    39    36   ar
    58     7     8    1
    59     7     3   am
    60     1     2    1
    61    63    64    1
    62     2     3    1
    63    38    36   ar
    64    38    37   ar
    65     3     4    2
    66    36    34   ar
    67    15    16    2
    68    15    14    1
    69    64    65    2
    70    37    35   ar
    71    13    14    1
    72    48    47    1
    73    48    49    1
    74    17    14    1
    75    17    18    1
    76    47    44    1
    77    34    35   ar
    78    34    33    1
    79    96    95    2
    80   104   103    2
    81    99    98    2
    82    19    18    1
    83    19    20    1
    84    21    20    1
    85    49    43    1
    86    33    30    1
    87   103   102    1
    88    97    98    1
    89    97    94    1
    90    98   100   am
    91    95    94    1
    92    95   101   am
    93    94    93    1
    94    44    45    1
    95    44    43    1
    96    30    31    1
    97    30    29    1
    98    45    46    2
    99    32    31    2
   100   102   101    1
   101   102   105    1
   102    74    73    2
   103    84    82   ar
   104    75    73   am
   105    29    24   am
   106    73    72    1
   107    68    69    1
   108   105   106    1
   109    83    82   ar
   110    82    81    1
   111    92    90    1
   112    24    25    2
   113    24    23    1
   114    69    72    1
   115    69    70    1
   116    26    23    1
   117    26    27    1
   118    88    87    2
   119    23    22    1
   120    81    80    1
   121    90    89    1
   122    90    91    1
   123    89    86    1
   124    70    71    2
   125    87    86    1
   126    86    85    1
   127    27    28    1
   128    80    77    1
   129    22    28    1
   130    77    76    1
   131    77    78    1
   132    85    78   am
   133    78    79    2
