@<TRIPOS>MOLECULE
tmp/6b22A00.pdb
 118 114 0 0 0
SMALL
GASTEIGER

@<TRIPOS>ATOM
      1  N          3.4590  -26.2450  -17.1220 N.3    49  ALA49      -0.1231
      2  CA         2.4670  -27.0970  -16.4170 C.3    49  ALA49       0.1694
      3  C          2.1710  -26.5040  -15.0430 C.2    49  ALA49       0.2592
      4  O          2.0780  -25.2840  -14.9400 O.2    49  ALA49      -0.2718
      5  CB         2.9340  -28.5460  -16.3610 C.3    49  ALA49       0.0304
      6  N          2.0910  -27.3040  -13.9870 N.am   50  SER50      -0.1952
      7  CA         1.6550  -26.7470  -12.6950 C.3    50  SER50       0.1924
      8  C          2.6240  -25.7690  -12.0510 C.2    50  SER50       0.2314
      9  O          2.2430  -25.1150  -11.0690 O.2    50  SER50      -0.2863
     10  CB         1.3510  -27.8320  -11.6720 C.3    50  SER50       0.2116
     11  OG         0.2000  -28.5650  -12.0820 O.3    50  SER50      -0.2180
     12  N         -8.6900  -36.4830   -9.6060 N.3    81  TYR81      -0.1241
     13  CA        -8.2370  -37.0320   -8.3130 C.3    81  TYR81       0.1605
     14  C         -9.2830  -36.7720   -7.2350 C.2    81  TYR81       0.2264
     15  O         -9.7910  -35.6430   -7.1470 O.2    81  TYR81      -0.2867
     16  CB        -6.9040  -36.4090   -7.8830 C.3    81  TYR81       0.0534
     17  CG        -5.8470  -36.5750   -8.9450 C.ar   81  TYR81      -0.0201
     18  CD1       -5.6650  -35.6060   -9.9110 C.ar   81  TYR81      -0.0009
     19  CD2       -5.0910  -37.7640   -9.0410 C.ar   81  TYR81      -0.0009
     20  CE1       -4.7370  -35.7700  -10.9400 C.ar   81  TYR81       0.0417
     21  CE2       -4.1570  -37.9380  -10.0650 C.ar   81  TYR81       0.0417
     22  CZ        -3.9790  -36.9340  -11.0060 C.ar   81  TYR81       0.1957
     23  OH        -3.0650  -37.0820  -12.0290 O.3    81  TYR81      -0.2866
     24  N         -9.1250  -33.6820   -5.0260 N.3    84  TRP84      -0.1241
     25  CA        -9.5500  -32.3910   -5.5540 C.3    84  TRP84       0.1605
     26  C        -11.0440  -32.1660   -5.3580 C.2    84  TRP84       0.2264
     27  O        -11.5160  -31.0800   -5.6320 O.2    84  TRP84      -0.2867
     28  CB        -9.2230  -32.2530   -7.0350 C.3    84  TRP84       0.0550
     29  CG        -7.7510  -32.2670   -7.3850 C.ar   84  TRP84       0.0003
     30  CD1       -6.6950  -32.1800   -6.5280 C.ar   84  TRP84       0.0946
     31  CD2       -7.1980  -32.2920   -8.7160 C.ar   84  TRP84       0.0152
     32  NE1       -5.5130  -32.1710   -7.2460 N.ar   84  TRP84      -0.2442
     33  CE2       -5.8010  -32.2600   -8.5870 C.ar   84  TRP84       0.0810
     34  CE3       -7.7630  -32.3430  -10.0020 C.ar   84  TRP84       0.0012
     35  CZ2       -4.9470  -32.2670   -9.6820 C.ar   84  TRP84       0.0191
     36  CZ3       -6.9060  -32.3890  -11.1070 C.ar   84  TRP84       0.0001
     37  CH2       -5.5020  -32.3380  -10.9290 C.ar   84  TRP84       0.0015
     38  N         -1.9710  -29.4050   -3.1190 N.3    96  LEU96      -0.1231
     39  CA        -2.5860  -30.5090   -3.8210 C.3    96  LEU96       0.1693
     40  C         -2.4820  -30.4130   -5.3200 C.2    96  LEU96       0.2592
     41  O         -2.9480  -31.3130   -6.0080 O.2    96  LEU96      -0.2718
     42  CB        -4.0600  -30.6230   -3.4110 C.3    96  LEU96       0.0284
     43  CG        -4.2460  -31.0320   -1.9530 C.3    96  LEU96       0.0019
     44  CD1       -5.7100  -30.9030   -1.5270 C.3    96  LEU96       0.0001
     45  CD2       -3.7580  -32.4500   -1.7540 C.3    96  LEU96       0.0001
     46  N         -1.8960  -29.3290   -5.8240 N.am   97  SER97      -0.1952
     47  CA        -1.8160  -29.0200   -7.2480 C.3    97  SER97       0.1924
     48  C         -3.2010  -29.1570   -7.9590 C.2    97  SER97       0.2314
     49  O         -3.3500  -29.7350   -9.0580 O.2    97  SER97      -0.2863
     50  CB        -0.6940  -29.8340   -7.9050 C.3    97  SER97       0.2116
     51  OG        -0.2260  -29.1850   -9.0760 O.3    97  SER97      -0.2180
     52  N         -5.6790  -28.2400  -10.1230 N.3    99  VAL99      -0.1245
     53  CA        -5.8310  -27.4920  -11.3670 C.3    99  VAL99       0.1561
     54  C         -7.1730  -26.7440  -11.4610 C.2    99  VAL99       0.2260
     55  O         -7.1960  -25.5790  -11.8730 O.2    99  VAL99      -0.2867
     56  CB        -5.7100  -28.4200  -12.6240 C.3    99  VAL99       0.0252
     57  CG1       -5.8480  -27.6190  -13.9280 C.3    99  VAL99       0.0019
     58  CG2       -4.3810  -29.1210  -12.6110 C.3    99  VAL99       0.0019
     59  N         -0.7320  -25.5700  -19.6770 N.3   137  LEU137     -0.1245
     60  CA        -0.7980  -27.0130  -19.6650 C.3   137  LEU137      0.1561
     61  C         -0.4960  -27.6170  -21.0260 C.2   137  LEU137      0.2260
     62  O          0.1640  -28.6500  -21.1050 O.2   137  LEU137     -0.2867
     63  CB        -2.1870  -27.4800  -19.1920 C.3   137  LEU137      0.0270
     64  CG        -2.5920  -27.0130  -17.7800 C.3   137  LEU137      0.0019
     65  CD1       -4.0710  -27.2130  -17.5390 C.3   137  LEU137      0.0001
     66  CD2       -1.7840  -27.7220  -16.7030 C.3   137  LEU137      0.0001
     67  N          7.5160  -25.7870   -6.3360 N.3   187  LYS187     -0.1231
     68  CA         6.3210  -26.2510   -6.9840 C.3   187  LYS187      0.1693
     69  C          6.6530  -27.3000   -8.0420 C.2   187  LYS187      0.2593
     70  O          7.5140  -27.0750   -8.8790 O.2   187  LYS187     -0.2718
     71  CB         5.5910  -25.0780   -7.6370 C.3   187  LYS187      0.0285
     72  CG         4.2610  -25.4520   -8.2630 C.3   187  LYS187      0.0035
     73  CD         3.2690  -25.9390   -7.2230 C.3   187  LYS187      0.0206
     74  CE         2.0810  -26.6450   -7.8270 C.3   187  LYS187      0.1093
     75  NZ         2.3880  -28.0480   -8.2040 N.3   187  LYS187     -0.1314
     76  N          5.9480  -28.4230   -8.0150 N.am  188  SER188     -0.1938
     77  CA         6.1040  -29.4590   -9.0040 C.3   188  SER188      0.2055
     78  C          5.2320  -29.1920  -10.2230 C.2   188  SER188      0.2644
     79  O          4.3090  -28.3580  -10.1930 O.2   188  SER188     -0.2714
     80  CB         5.7510  -30.8100   -8.4190 C.3   188  SER188      0.2130
     81  OG         4.4370  -30.7890   -7.8530 O.3   188  SER188     -0.2179
     82  N          5.5520  -29.8980  -11.3110 N.am  189  GLY189     -0.1939
     83  CA         4.8010  -29.7930  -12.5690 C.3   189  GLY189      0.2014
     84  C          4.9280  -31.0830  -13.3630 C.2   189  GLY189      0.2638
     85  O          5.9350  -31.8120  -13.2490 O.2   189  GLY189     -0.2714
     86  N          3.8570  -31.4280  -14.0750 N.am  190  TRP190     -0.1973
     87  CA         3.8320  -32.5950  -14.9410 C.3   190  TRP190      0.1640
     88  C          2.9030  -32.3000  -16.0950 C.2   190  TRP190      0.2290
     89  O          1.6980  -32.2630  -15.9190 O.2   190  TRP190     -0.2864
     90  CB         3.4150  -33.8060  -14.1470 C.3   190  TRP190      0.0576
     91  CG         3.4940  -35.1470  -14.8430 C.ar  190  TRP190      0.0006
     92  CD1        3.5790  -35.3990  -16.1840 C.ar  190  TRP190      0.0946
     93  CD2        3.4080  -36.4080  -14.2020 C.ar  190  TRP190      0.0152
     94  NE1        3.5840  -36.7500  -16.3970 N.ar  190  TRP190     -0.2442
     95  CE2        3.4720  -37.3910  -15.1980 C.ar  190  TRP190      0.0810
     96  CE3        3.3140  -36.8060  -12.8610 C.ar  190  TRP190      0.0012
     97  CZ2        3.4230  -38.7540  -14.9090 C.ar  190  TRP190      0.0191
     98  CZ3        3.2590  -38.1680  -12.5670 C.ar  190  TRP190      0.0001
     99  CH2        3.3260  -39.1210  -13.5840 C.ar  190  TRP190      0.0015
    100  N          1.0960  -33.5210  -18.5940 N.3   192  MET192     -0.1245
    101  CA         0.5300  -34.7890  -19.0980 C.3   192  MET192      0.1570
    102  C         -0.1240  -34.6860  -20.4560 C.2   192  MET192      0.2261
    103  O         -0.2000  -35.6840  -21.1610 O.2   192  MET192     -0.2867
    104  CB        -0.4810  -35.3340  -18.1300 C.3   192  MET192      0.0387
    105  CG         0.1840  -35.8220  -16.8630 C.3   192  MET192      0.0595
    106  SD        -1.0580  -36.1830  -15.6220 S.3   192  MET192     -0.1393
    107  CE        -0.1380  -37.1250  -14.4180 C.3   192  MET192      0.0692
    108  N         10.5760  -36.8160   -9.0340 N.3   230  ARG230     -0.1245
    109  CA        10.9960  -35.4320   -9.1410 C.3   230  ARG230      0.1563
    110  C         11.5760  -34.9440   -7.8190 C.2   230  ARG230      0.2260
    111  O         12.6750  -34.4210   -7.7730 O.2   230  ARG230     -0.2867
    112  CB         9.8240  -34.5530   -9.5760 C.3   230  ARG230      0.0307
    113  CG         9.2990  -34.8600  -10.9820 C.3   230  ARG230      0.0489
    114  CD         7.9590  -34.2010  -11.2260 C.3   230  ARG230      0.2205
    115  NE         6.9570  -34.6260  -10.2610 N.pl3 230  ARG230     -0.0865
    116  CZ         5.6930  -34.2070  -10.2360 C.cat 230  ARG230      0.5346
    117  NH1        4.8690  -34.6730   -9.3170 N.pl3 230  ARG230      0.1354
    118  NH2        5.2490  -33.3610  -11.1350 N.pl3 230  ARG230      0.1354
@<TRIPOS>BOND
     1   103   102    2
     2    62    61    2
     3    61    60    1
     4   102   101    1
     5    59    60    1
     6    60    63    1
     7    63    64    1
     8   101   100    1
     9   101   104    1
    10   104   105    1
    11    64    65    1
    12    64    66    1
    13     1     2    1
    14   105   106    1
    15     2     5    1
    16     2     3    1
    17    94    92   ar
    18    94    95   ar
    19    92    91   ar
    20    88    89    2
    21    88    87    1
    22   106   107    1
    23    95    97   ar
    24    95    93   ar
    25     3     4    2
    26     3     6   am
    27    87    90    1
    28    87    86    1
    29    97    99   ar
    30    91    93   ar
    31    91    90    1
    32    93    96   ar
    33    86    84   am
    34     6     7    1
    35    57    56    1
    36    99    98   ar
    37    84    85    2
    38    84    83    1
    39    96    98   ar
    40     7     8    1
    41     7    10    1
    42    56    58    1
    43    56    53    1
    44    83    82    1
    45    11    10    1
    46     8     9    2
    47    23    22    1
    48    55    54    2
    49    54    53    1
    50    53    52    1
    51    82    78   am
    52   114   113    1
    53   114   115    1
    54   118   116    1
    55    36    37   ar
    56    36    34   ar
    57    22    20   ar
    58    22    21   ar
    59   113   112    1
    60    20    18   ar
    61    37    35   ar
    62   115   116    2
    63   116   117    1
    64    78    79    2
    65    78    77    1
    66    21    19   ar
    67    34    31   ar
    68    18    17   ar
    69    35    33   ar
    70    12    13    1
    71   112   109    1
    72   109   108    1
    73   109   110    1
    74    51    50    1
    75    49    48    2
    76    19    17   ar
    77    77    80    1
    78    77    76    1
    79    17    16    1
    80    70    69    2
    81    31    33   ar
    82    31    29   ar
    83    33    32   ar
    84    80    81    1
    85    13    16    1
    86    13    14    1
    87    72    71    1
    88    72    73    1
    89    75    74    1
    90    69    76   am
    91    69    68    1
    92    48    47    1
    93    50    47    1
    94    74    73    1
    95   110   111    2
    96    71    68    1
    97    29    28    1
    98    29    30   ar
    99    47    46    1
   100    32    30   ar
   101    14    15    2
   102    28    25    1
   103    68    67    1
   104    41    40    2
   105    46    40   am
   106    27    26    2
   107    25    26    1
   108    25    24    1
   109    40    39    1
   110    39    42    1
   111    39    38    1
   112    42    43    1
   113    43    45    1
   114    43    44    1
