@<TRIPOS>MOLECULE
tmp/6b2bA01.pdb
 72 68 0 0 0
SMALL
GASTEIGER

@<TRIPOS>ATOM
      1  N         32.4050   89.3400   11.0670 N.3    86  VAL86      -0.1245
      2  CA        32.7570   89.4380    9.6510 C.3    86  VAL86       0.1561
      3  C         31.7840   88.6420    8.7660 C.2    86  VAL86       0.2260
      4  O         31.3540   89.1350    7.7230 O.2    86  VAL86      -0.2867
      5  CB        34.2250   89.0060    9.4110 C.3    86  VAL86       0.0252
      6  CG1       34.5430   88.8590    7.9210 C.3    86  VAL86       0.0019
      7  CG2       35.1700   90.0230   10.0430 C.3    86  VAL86       0.0019
      8  N         29.4030   90.0260    5.7640 N.3    90  LEU90      -0.1245
      9  CA        29.4060   89.4300    4.4230 C.3    90  LEU90       0.1561
     10  C         28.0010   89.0370    3.9920 C.2    90  LEU90       0.2260
     11  O         27.6070   89.3100    2.8580 O.2    90  LEU90      -0.2867
     12  CB        30.3220   88.2020    4.3490 C.3    90  LEU90       0.0270
     13  CG        31.8360   88.4120    4.4350 C.3    90  LEU90       0.0019
     14  CD1       32.5200   87.0570    4.3490 C.3    90  LEU90       0.0001
     15  CD2       32.3530   89.3370    3.3480 C.3    90  LEU90       0.0001
     16  N         25.2460   90.3380    5.1580 N.3    92  ALA92      -0.1231
     17  CA        24.5210   91.6140    5.0270 C.3    92  ALA92       0.1694
     18  C         24.8780   92.4300    3.7750 C.2    92  ALA92       0.2593
     19  O         24.3340   93.5210    3.5760 O.2    92  ALA92      -0.2718
     20  CB        24.7620   92.4660    6.2660 C.3    92  ALA92       0.0304
     21  N         25.7980   91.9260    2.9500 N.am   93  GLY93      -0.1942
     22  CA        26.2760   92.6480    1.7750 C.3    93  GLY93       0.2014
     23  C         27.1850   93.8270    2.0800 C.2    93  GLY93       0.2639
     24  O         27.4410   94.6430    1.1940 O.2    93  GLY93      -0.2714
     25  N         27.6880   93.9090    3.3140 N.am   94  ASN94      -0.1958
     26  CA        28.5350   95.0120    3.7550 C.3    94  ASN94       0.1819
     27  C         29.9940   94.5690    3.6390 C.2    94  ASN94       0.2621
     28  O         30.6590   94.3060    4.6340 O.2    94  ASN94      -0.2715
     29  CB        28.1710   95.4130    5.1920 C.3    94  ASN94       0.1195
     30  CG        28.7720   96.7470    5.6040 C.2    94  ASN94       0.2630
     31  OD1       29.6620   97.2820    4.9410 O.2    94  ASN94      -0.2716
     32  ND2       28.2800   97.2950    6.7050 N.am   94  ASN94      -0.0877
     33  N         30.4730   94.4960    2.3990 N.am   95  TYR95      -0.1960
     34  CA        31.7930   93.9420    2.0910 C.3    95  TYR95       0.1771
     35  C         32.9460   94.8460    2.5150 C.2    95  TYR95       0.2619
     36  O         33.9880   94.3540    2.9460 O.2    95  TYR95      -0.2715
     37  CB        31.9160   93.6390    0.5940 C.3    95  TYR95       0.0574
     38  CG        30.8860   92.6580    0.0720 C.ar   95  TYR95      -0.0198
     39  CD1       30.7650   91.3840    0.6280 C.ar   95  TYR95      -0.0009
     40  CD2       30.0460   92.9950   -0.9900 C.ar   95  TYR95      -0.0009
     41  CE1       29.8310   90.4770    0.1480 C.ar   95  TYR95       0.0417
     42  CE2       29.1050   92.0970   -1.4710 C.ar   95  TYR95       0.0417
     43  CZ        29.0040   90.8390   -0.9010 C.ar   95  TYR95       0.1957
     44  OH        28.0780   89.9410   -1.3750 O.3    95  TYR95      -0.2866
     45  N         32.7610   96.1570    2.3880 N.am   96  ILE96      -0.1977
     46  CA        33.8050   97.1200    2.7430 C.3    96  ILE96       0.1596
     47  C         34.1510   97.0590    4.2390 C.2    96  ILE96       0.2287
     48  O         35.3280   97.0820    4.5940 O.2    96  ILE96      -0.2864
     49  CB        33.4570   98.5660    2.2660 C.3    96  ILE96       0.0276
     50  CG1       34.7030   99.4660    2.2650 C.3    96  ILE96       0.0022
     51  CG2       32.3380   99.1910    3.0940 C.3    96  ILE96       0.0022
     52  CD1       35.7040   99.1570    1.1650 C.3    96  ILE96       0.0001
     53  N         33.4440   94.4030    6.1920 N.3    98  ALA98      -0.1231
     54  CA        33.9530   93.0400    6.3960 C.3    98  ALA98       0.1694
     55  C         35.4660   92.9840    6.1930 C.2    98  ALA98       0.2591
     56  O         36.1760   92.3690    6.9900 O.2    98  ALA98      -0.2718
     57  CB        33.2620   92.0560    5.4610 C.3    98  ALA98       0.0304
     58  N         35.9440   93.6310    5.1300 N.am   99  LEU99      -0.1980
     59  CA        37.3780   93.7290    4.8380 C.3    99  LEU99       0.1596
     60  C         38.0930   94.6040    5.8650 C.2    99  LEU99       0.2287
     61  O         39.1310   94.2110    6.3900 O.2    99  LEU99      -0.2864
     62  CB        37.6020   94.2850    3.4220 C.3    99  LEU99       0.0297
     63  CG        39.0380   94.3720    2.8890 C.3    99  LEU99       0.0022
     64  CD1       39.6860   92.9970    2.8320 C.3    99  LEU99       0.0001
     65  CD2       39.0560   95.0290    1.5180 C.3    99  LEU99       0.0001
     66  N         38.5750   92.7830    9.2190 N.3   102  VAL102     -0.1245
     67  CA        39.6710   91.8120    9.1120 C.3   102  VAL102      0.1561
     68  C         41.0410   92.4950    9.1500 C.2   102  VAL102      0.2260
     69  O         41.9180   92.0760    9.9010 O.2   102  VAL102     -0.2867
     70  CB        39.5260   90.9470    7.8320 C.3   102  VAL102      0.0252
     71  CG1       40.8170   90.2190    7.4700 C.3   102  VAL102      0.0019
     72  CG2       38.4060   89.9450    8.0200 C.3   102  VAL102      0.0019
@<TRIPOS>BOND
     1    42    40   ar
     2    42    43   ar
     3    44    43    1
     4    40    38   ar
     5    43    41   ar
     6    38    37    1
     7    38    39   ar
     8    41    39   ar
     9    37    34    1
    10    52    50    1
    11    24    23    2
    12    65    63    1
    13    22    23    1
    14    22    21    1
    15    23    25   am
    16    34    33    1
    17    34    35    1
    18    50    49    1
    19    49    46    1
    20    49    51    1
    21    45    35   am
    22    45    46    1
    23    33    27   am
    24    35    36    2
    25    46    47    1
    26    64    63    1
    27    11    10    2
    28    63    62    1
    29    21    18   am
    30    25    26    1
    31    15    13    1
    32    62    59    1
    33    19    18    2
    34    27    26    1
    35    27    28    2
    36    26    29    1
    37    18    17    1
    38    10     9    1
    39    47    48    2
    40    14    13    1
    41    12     9    1
    42    12    13    1
    43     9     8    1
    44    59    58    1
    45    59    60    1
    46    31    30    2
    47    17    16    1
    48    17    20    1
    49    58    55   am
    50    29    30    1
    51    57    54    1
    52    30    32   am
    53    60    61    2
    54    53    54    1
    55    55    54    1
    56    55    56    2
    57    71    70    1
    58     4     3    2
    59    70    72    1
    60    70    67    1
    61     6     5    1
    62     3     2    1
    63    67    68    1
    64    67    66    1
    65    68    69    2
    66     5     2    1
    67     5     7    1
    68     2     1    1
