@<TRIPOS>MOLECULE
tmp/6b2cB00.pdb
 111 107 0 0 0
SMALL
GASTEIGER

@<TRIPOS>ATOM
      1  N        -24.6840   42.6650  -14.2590 N.3     1  PRO1       -0.2102
      2  CA       -25.4930   41.4510  -14.0990 C.3     1  PRO1        0.1504
      3  C        -24.9110   40.4560  -13.1000 C.2     1  PRO1        0.2575
      4  O        -23.7360   40.5530  -12.7400 O.2     1  PRO1       -0.2718
      5  CB       -25.5000   40.8480  -15.5080 C.3     1  PRO1        0.0282
      6  CG       -25.3260   42.0110  -16.4070 C.3     1  PRO1        0.0208
      7  CD       -24.4020   42.9460  -15.6780 C.3     1  PRO1        0.0893
      8  N        -25.7420   39.4930  -12.6960 N.am    2  MET2       -0.1980
      9  CA       -25.4040   38.5010  -11.6870 C.3     2  MET2        0.1605
     10  C        -25.9790   37.1600  -12.1230 C.2     2  MET2        0.2287
     11  O        -27.1870   37.0670  -12.3620 O.2     2  MET2       -0.2864
     12  CB       -25.9770   38.9170  -10.3210 C.3     2  MET2        0.0413
     13  CG       -25.7130   37.9310   -9.2290 C.3     2  MET2        0.0598
     14  SD       -26.5300   38.3000   -7.6590 S.3     2  MET2       -0.1393
     15  CE       -25.9180   36.9370   -6.7280 C.3     2  MET2        0.0692
     16  N        -24.2500   42.1410  -23.8850 N.3    31  GLY31      -0.1210
     17  CA       -23.6710   43.4090  -24.2740 C.3    31  GLY31       0.1956
     18  C        -23.2450   44.2940  -23.1250 C.2    31  GLY31       0.2612
     19  O        -22.8210   45.4290  -23.3720 O.2    31  GLY31      -0.2717
     20  N        -23.3540   43.8120  -21.8570 N.am   32  LYS32      -0.1966
     21  CA       -22.9110   44.5200  -20.6600 C.3    32  LYS32       0.1713
     22  C        -21.3920   44.4190  -20.5110 C.2    32  LYS32       0.2458
     23  O        -20.7870   43.4250  -20.9270 O.2    32  LYS32      -0.2730
     24  CB       -23.5770   43.9340  -19.4150 C.3    32  LYS32       0.0311
     25  CG       -25.1000   43.9880  -19.3990 C.3    32  LYS32       0.0038
     26  CD       -25.6080   45.3690  -19.0230 C.3    32  LYS32       0.0206
     27  CE       -27.1190   45.3720  -18.8350 C.3    32  LYS32       0.1093
     28  NZ       -27.5760   46.6310  -18.1810 N.3    32  LYS32      -0.1314
     29  N        -20.7540   45.4190  -19.9030 N.am   33  PRO33      -0.2727
     30  CA       -19.2910   45.3820  -19.7540 C.3    33  PRO33       0.1402
     31  C        -18.8800   44.2810  -18.7930 C.2    33  PRO33       0.2269
     32  O        -19.4840   44.1240  -17.7210 O.2    33  PRO33      -0.2865
     33  CB       -18.9480   46.7750  -19.1920 C.3    33  PRO33       0.0296
     34  CG       -20.1780   47.6110  -19.4070 C.3    33  PRO33       0.0237
     35  CD       -21.3280   46.6480  -19.3300 C.3    33  PRO33       0.0939
     36  N        -18.5850   44.4760  -14.8620 N.3    36  TYR36      -0.1241
     37  CA       -19.7400   44.5120  -13.9730 C.3    36  TYR36       0.1605
     38  C        -20.5110   43.1910  -13.9310 C.2    36  TYR36       0.2264
     39  O        -21.6320   43.1600  -13.4090 O.2    36  TYR36      -0.2867
     40  CB       -20.6720   45.6560  -14.3780 C.3    36  TYR36       0.0534
     41  CG       -20.1280   47.0450  -14.0630 C.ar   36  TYR36      -0.0201
     42  CD1      -20.1450   47.5340  -12.7560 C.ar   36  TYR36      -0.0009
     43  CD2      -19.6150   47.8700  -15.0680 C.ar   36  TYR36      -0.0009
     44  CE1      -19.6640   48.7940  -12.4460 C.ar   36  TYR36       0.0417
     45  CE2      -19.1230   49.1480  -14.7650 C.ar   36  TYR36       0.0417
     46  CZ       -19.1540   49.6000  -13.4460 C.ar   36  TYR36       0.1957
     47  OH       -18.6830   50.8530  -13.1090 O.3    36  TYR36      -0.2866
     48  N        -20.9590   39.4430  -12.4580 N.3    38  ALA38      -0.1245
     49  CA       -20.6380   38.5630  -11.3390 C.3    38  ALA38       0.1562
     50  C        -21.2000   37.1700  -11.5930 C.2    38  ALA38       0.2260
     51  O        -22.3330   37.0340  -12.0670 O.2    38  ALA38      -0.2867
     52  CB       -21.2110   39.1040  -10.0200 C.3    38  ALA38       0.0290
     53  N        -29.9320   37.9420  -12.9800 N.3    62  HIS62      -0.1226
     54  CA       -30.4610   39.2720  -12.6890 C.3    62  HIS62       0.1752
     55  C        -29.7530   40.3100  -13.5580 C.2    62  HIS62       0.2597
     56  O        -28.5300   40.2460  -13.7370 O.2    62  HIS62      -0.2718
     57  CB       -30.2690   39.6530  -11.2050 C.3    62  HIS62       0.0759
     58  CG       -30.9420   38.7350  -10.2270 C.ar   62  HIS62       0.0818
     59  ND1      -30.4710   37.4710   -9.9420 N.ar   62  HIS62      -0.2268
     60  CD2      -32.0210   38.9210   -9.4270 C.ar   62  HIS62       0.1154
     61  CE1      -31.2470   36.9080   -9.0320 C.ar   62  HIS62       0.1986
     62  NE2      -32.1980   37.7660   -8.7090 N.ar   62  HIS62      -0.2212
     63  N        -30.5090   41.2810  -14.0770 N.am   63  SER63      -0.1938
     64  CA       -29.9320   42.3060  -14.9480 C.3    63  SER63       0.2055
     65  C        -30.8440   43.5260  -14.9590 C.2    63  SER63       0.2642
     66  O        -32.0640   43.3990  -14.8340 O.2    63  SER63      -0.2714
     67  CB       -29.7280   41.7880  -16.3830 C.3    63  SER63       0.2130
     68  OG       -29.1360   42.7670  -17.2370 O.3    63  SER63      -0.2179
     69  N        -30.2370   44.7090  -15.0800 N.am   64  ILE64      -0.1977
     70  CA       -30.9750   45.9470  -15.3350 C.3    64  ILE64       0.1596
     71  C        -31.1540   46.0560  -16.8510 C.2    64  ILE64       0.2287
     72  O        -30.2270   46.4210  -17.5840 O.2    64  ILE64      -0.2864
     73  CB       -30.2580   47.1720  -14.7540 C.3    64  ILE64       0.0276
     74  CG1      -30.1030   47.0460  -13.2350 C.3    64  ILE64       0.0022
     75  CG2      -31.0240   48.4510  -15.0830 C.3    64  ILE64       0.0022
     76  CD1      -29.1650   48.0910  -12.6270 C.3    64  ILE64       0.0001
     77  N        -32.1250   44.3300  -20.6950 N.3    66  LYS66      -0.1245
     78  CA       -31.6490   43.1930  -21.4810 C.3    66  LYS66       0.1561
     79  C        -32.3550   41.8860  -21.1130 C.2    66  LYS66       0.2260
     80  O        -31.8010   40.8000  -21.3240 O.2    66  LYS66      -0.2867
     81  CB       -30.1300   43.0300  -21.3550 C.3    66  LYS66       0.0271
     82  CG       -29.3370   44.2590  -21.7600 C.3    66  LYS66       0.0035
     83  CD       -29.6590   44.7150  -23.1540 C.3    66  LYS66       0.0206
     84  CE       -28.6370   45.7520  -23.6240 C.3    66  LYS66       0.1093
     85  NZ       -28.7900   47.0800  -22.9730 N.3    66  LYS66      -0.1314
     86  N        -34.3370   43.7780  -13.1190 N.3   101  MET101     -0.1245
     87  CA       -34.2440   44.5790  -11.9020 C.3   101  MET101      0.1570
     88  C        -34.3000   46.0740  -12.1980 C.2   101  MET101      0.2261
     89  O        -33.7110   46.5560  -13.1720 O.2   101  MET101     -0.2867
     90  CB       -32.9470   44.2660  -11.1490 C.3   101  MET101      0.0387
     91  CG       -32.8380   42.8230  -10.6880 C.3   101  MET101      0.0595
     92  SD       -34.0490   42.4380   -9.4150 S.3   101  MET101     -0.1393
     93  CE       -33.4700   43.5010   -8.0850 C.3   101  MET101      0.0692
     94  N        -30.8340   47.9360   -7.1550 N.3   106  VAL106     -0.1245
     95  CA       -29.5400   47.2550   -7.2540 C.3   106  VAL106      0.1561
     96  C        -28.4800   48.1450   -6.5970 C.2   106  VAL106      0.2260
     97  O        -28.1210   49.1960   -7.1420 O.2   106  VAL106     -0.2867
     98  CB       -29.1640   46.9260   -8.7110 C.3   106  VAL106      0.0252
     99  CG1      -27.8440   46.1630   -8.7640 C.3   106  VAL106      0.0019
    100  CG2      -30.2730   46.0930   -9.3960 C.3   106  VAL106      0.0019
    101  N        -27.6860   52.1120   -8.7700 N.3   113  PHE113     -0.1241
    102  CA       -27.4800   52.4440  -10.1720 C.3   113  PHE113      0.1605
    103  C        -28.5160   53.4210  -10.7150 C.2   113  PHE113      0.2264
    104  O        -28.4400   53.7790  -11.8940 O.2   113  PHE113     -0.2867
    105  CB       -27.4760   51.1660  -11.0400 C.3   113  PHE113      0.0534
    106  CG       -26.2000   50.3790  -10.9420 C.ar  113  PHE113     -0.0203
    107  CD1      -24.9930   50.9490  -11.3330 C.ar  113  PHE113     -0.0042
    108  CD2      -26.1960   49.0880  -10.4360 C.ar  113  PHE113     -0.0042
    109  CE1      -23.8030   50.2440  -11.2250 C.ar  113  PHE113     -0.0003
    110  CE2      -25.0150   48.3700  -10.3320 C.ar  113  PHE113     -0.0003
    111  CZ       -23.8120   48.9520  -10.7250 C.ar  113  PHE113     -0.0000
@<TRIPOS>BOND
     1    17    16    1
     2    17    18    1
     3    84    83    1
     4    84    85    1
     5    19    18    2
     6    83    82    1
     7    18    20   am
     8    20    21    1
     9    82    81    1
    10    78    81    1
    11    78    79    1
    12    78    77    1
    13    80    79    2
    14    23    22    2
    15    21    22    1
    16    21    24    1
    17    22    29   am
    18    29    30    1
    19    29    35    1
    20    30    33    1
    21    30    31    1
    22    24    25    1
    23    34    35    1
    24    34    33    1
    25    25    26    1
    26    26    27    1
    27    27    28    1
    28    31    32    2
    29    72    71    2
    30    68    67    1
    31    71    70    1
    32     6     7    1
    33     6     5    1
    34    67    64    1
    35     7     1    1
    36     5     2    1
    37    70    69    1
    38    70    73    1
    39    75    73    1
    40    69    65   am
    41    43    45   ar
    42    43    41   ar
    43    65    64    1
    44    65    66    2
    45    64    63    1
    46    36    37    1
    47    45    46   ar
    48    73    74    1
    49    40    41    1
    50    40    37    1
    51     1     2    1
    52     2     3    1
    53    63    55   am
    54    41    42   ar
    55    37    38    1
    56    38    39    2
    57    56    55    2
    58    55    54    1
    59    46    47    1
    60    46    44   ar
    61    74    76    1
    62    89    88    2
    63    86    87    1
    64     3     4    2
    65     3     8   am
    66    53    54    1
    67    42    44   ar
    68     8     9    1
    69    54    57    1
    70    48    49    1
    71    11    10    2
    72    88    87    1
    73    10     9    1
    74    51    50    2
    75    87    90    1
    76   104   103    2
    77     9    12    1
    78    50    49    1
    79    49    52    1
    80   107   109   ar
    81   107   106   ar
    82   109   111   ar
    83    57    58    1
    84    90    91    1
    85   105   106    1
    86   105   102    1
    87   106   108   ar
    88   111   110   ar
    89   103   102    1
    90    91    92    1
    91   108   110   ar
    92    12    13    1
    93    58    59   ar
    94    58    60   ar
    95   102   101    1
    96    59    61   ar
    97    60    62   ar
    98    92    93    1
    99   100    98    1
   100    13    14    1
   101    61    62   ar
   102    99    98    1
   103    98    95    1
   104    14    15    1
   105    95    94    1
   106    95    96    1
   107    97    96    2
