@<TRIPOS>MOLECULE
tmp/6b2lA00.pdb
 91 85 0 0 0
SMALL
GASTEIGER

@<TRIPOS>ATOM
      1  N          0.9010   22.8660   49.9970 N.3   113  LEU113     -0.1231
      2  CA        -0.4470   23.3930   50.2230 C.3   113  LEU113      0.1693
      3  C         -0.3650   24.8430   50.6990 C.2   113  LEU113      0.2592
      4  O          0.4650   25.1910   51.5500 O.2   113  LEU113     -0.2718
      5  CB        -1.1860   22.5450   51.2520 C.3   113  LEU113      0.0284
      6  CG        -1.6360   21.1680   50.7460 C.3   113  LEU113      0.0019
      7  CD1       -1.6140   20.1790   51.8860 C.3   113  LEU113      0.0001
      8  CD2       -3.0230   21.2630   50.1440 C.3   113  LEU113      0.0001
      9  N         -1.2130   25.7050   50.1360 N.am  114  ALA114     -0.1966
     10  CA        -1.1230   27.1340   50.4160 C.3   114  ALA114      0.1728
     11  C         -2.5080   27.7520   50.5810 C.2   114  ALA114      0.2616
     12  O         -3.5220   27.2310   50.0910 O.2   114  ALA114     -0.2715
     13  CB        -0.3790   27.8680   49.3030 C.3   114  ALA114      0.0334
     14  N         -2.5370   28.8940   51.2670 N.am  115  GLY115     -0.1955
     15  CA        -3.7200   29.7400   51.2680 C.3   115  GLY115      0.1869
     16  C         -3.7100   30.6990   50.0870 C.2   115  GLY115      0.2309
     17  O         -2.6690   31.2480   49.7060 O.2   115  GLY115     -0.2863
     18  N         -1.9040   29.4040   61.2090 N.3   197  TYR197     -0.1227
     19  CA        -2.3740   29.9160   59.9360 C.3   197  TYR197      0.1736
     20  C         -2.3250   31.4350   59.9630 C.2   197  TYR197      0.2595
     21  O         -2.4170   32.0590   61.0340 O.2   197  TYR197     -0.2718
     22  CB        -3.7960   29.3970   59.6410 C.3   197  TYR197      0.0548
     23  CG        -3.8880   27.8800   59.4000 C.ar  197  TYR197     -0.0200
     24  CD1       -3.1760   27.2790   58.3910 C.ar  197  TYR197     -0.0009
     25  CD2       -4.6540   27.0780   60.2220 C.ar  197  TYR197     -0.0009
     26  CE1       -3.2510   25.9050   58.1720 C.ar  197  TYR197      0.0417
     27  CE2       -4.7450   25.7140   60.0170 C.ar  197  TYR197      0.0417
     28  CZ        -4.0280   25.1360   58.9900 C.ar  197  TYR197      0.1957
     29  OH        -4.1000   23.7700   58.7930 O.3   197  TYR197     -0.2866
     30  N         -2.1150   32.0310   58.7830 N.am  198  GLU198     -0.1979
     31  CA        -2.2200   33.4800   58.6390 C.3   198  GLU198      0.1602
     32  C         -3.5210   34.0100   59.2350 C.2   198  GLU198      0.2287
     33  O         -4.6020   33.4560   58.9970 O.2   198  GLU198     -0.2864
     34  CB        -2.1010   33.8370   57.1380 C.3   198  GLU198      0.0415
     35  CG        -3.2610   33.3240   56.1980 C.3   198  GLU198      0.1163
     36  CD        -3.0750   31.9290   55.6030 C.2   198  GLU198      0.3649
     37  OE1       -2.1890   31.1780   56.0510 O.co2 198  GLU198     -0.2457
     38  OE2       -3.8470   31.5820   54.6690 O.co2 198  GLU198     -0.2457
     39  N          0.1050   32.1190   50.1820 N.3   214  VAL214     -0.1231
     40  CA         0.9050   32.1290   51.4240 C.3   214  VAL214      0.1692
     41  C          1.0370   30.7010   51.9540 C.2   214  VAL214      0.2593
     42  O          0.0890   29.9100   51.9200 O.2   214  VAL214     -0.2718
     43  CB         0.2870   33.0670   52.4980 C.3   214  VAL214      0.0266
     44  CG1       -1.1250   32.7000   52.8330 C.3   214  VAL214      0.0020
     45  CG2        1.1930   33.1010   53.7690 C.3   214  VAL214      0.0020
     46  N          2.2340   30.3480   52.4140 N.am  215  GLY215     -0.1942
     47  CA         2.4360   29.0580   53.0540 C.3   215  GLY215      0.2014
     48  C          3.6510   29.0560   53.9700 C.2   215  GLY215      0.2638
     49  O          4.3440   30.0690   54.1120 O.2   215  GLY215     -0.2714
     50  N          3.9330   27.8640   54.5480 N.am  216  MET216     -0.1976
     51  CA         4.9280   27.7100   55.6130 C.3   216  MET216      0.1605
     52  C          6.1170   26.8380   55.2210 C.2   216  MET216      0.2287
     53  O          6.7860   26.3000   56.1110 O.2   216  MET216     -0.2864
     54  CB         4.2700   27.1110   56.8640 C.3   216  MET216      0.0413
     55  CG         3.0260   27.8170   57.3300 C.3   216  MET216      0.0598
     56  SD         2.2530   26.8750   58.7020 S.3   216  MET216     -0.1393
     57  CE         0.6980   27.7360   58.7590 C.3   216  MET216      0.0692
     58  N         -5.7140   25.5140   49.1880 N.3   239  ALA239     -0.1231
     59  CA        -6.6520   24.8550   50.0930 C.3   239  ALA239      0.1694
     60  C         -7.9170   25.6720   50.3360 C.2   239  ALA239      0.2592
     61  O         -8.9760   25.0970   50.5880 O.2   239  ALA239     -0.2718
     62  CB        -5.9750   24.5500   51.4290 C.3   239  ALA239      0.0304
     63  N         -7.8320   27.0000   50.2340 N.am  240  ASN240     -0.1974
     64  CA        -8.8940   27.9250   50.6480 C.3   240  ASN240      0.1688
     65  C         -8.4870   29.2970   50.1340 C.2   240  ASN240      0.2292
     66  O         -7.3120   29.5090   49.8150 O.2   240  ASN240     -0.2864
     67  CB        -9.0630   27.9430   52.1690 C.3   240  ASN240      0.1181
     68  CG        -7.8900   28.6380   52.8780 C.2   240  ASN240      0.2629
     69  OD1       -6.7750   28.1210   52.9120 O.2   240  ASN240     -0.2716
     70  ND2       -8.1410   29.8170   53.4270 N.am  240  ASN240     -0.0877
     71  N         -8.1280   32.8000   51.6880 N.3   242  SER242     -0.1217
     72  CA        -8.1160   33.3850   53.0200 C.3   242  SER242      0.1889
     73  C         -8.7840   34.7570   53.0640 C.2   242  SER242      0.2288
     74  O         -9.2520   35.1770   54.1290 O.2   242  SER242     -0.2866
     75  CB        -6.6660   33.4740   53.5180 C.3   242  SER242      0.2089
     76  OG        -6.1360   32.1680   53.6470 O.3   242  SER242     -0.2183
     77  N        -10.2400   28.2380   59.1490 N.3   252  ILE252     -0.1245
     78  CA        -9.2440   27.4340   58.4430 C.3   252  ILE252      0.1561
     79  C         -8.8230   26.3150   59.3850 C.2   252  ILE252      0.2260
     80  O         -8.5820   26.5760   60.5690 O.2   252  ILE252     -0.2867
     81  CB        -8.0150   28.2880   58.0540 C.3   252  ILE252      0.0252
     82  CG1       -8.4260   29.6050   57.3760 C.3   252  ILE252      0.0019
     83  CG2       -7.0590   27.4900   57.1810 C.3   252  ILE252      0.0019
     84  CD1       -7.2840   30.6310   57.2660 C.3   252  ILE252      0.0001
     85  N         -7.8900   21.2660   55.0310 N.3   257  VAL257     -0.1245
     86  CA        -6.7510   21.3320   54.1320 C.3   257  VAL257      0.1561
     87  C         -6.4590   19.9630   53.5400 C.2   257  VAL257      0.2260
     88  O         -6.2890   19.8220   52.3230 O.2   257  VAL257     -0.2867
     89  CB        -5.5320   21.8860   54.8830 C.3   257  VAL257      0.0252
     90  CG1       -4.2740   21.7800   54.0230 C.3   257  VAL257      0.0019
     91  CG2       -5.7780   23.3350   55.2610 C.3   257  VAL257      0.0019
@<TRIPOS>BOND
     1    58    59    1
     2    13    10    1
     3    17    16    2
     4    66    65    2
     5     1     2    1
     6    16    15    1
     7    12    11    2
     8    59    60    1
     9    59    62    1
    10    65    64    1
    11     9    10    1
    12     9     3   am
    13     8     6    1
    14    39    40    1
    15     2     3    1
    16     2     5    1
    17    63    60   am
    18    63    64    1
    19    60    61    2
    20    10    11    1
    21    11    14   am
    22    64    67    1
    23     3     4    2
    24     6     5    1
    25     6     7    1
    26    14    15    1
    27    40    41    1
    28    40    43    1
    29    71    72    1
    30    42    41    2
    31    41    46   am
    32    67    68    1
    33    88    87    2
    34    46    47    1
    35    43    44    1
    36    43    45    1
    37    68    69    2
    38    68    70   am
    39    72    73    1
    40    72    75    1
    41    47    48    1
    42    73    74    2
    43    75    76    1
    44    87    86    1
    45    48    49    2
    46    48    50   am
    47    90    89    1
    48    86    89    1
    49    86    85    1
    50    50    51    1
    51    38    36   ar
    52    89    91    1
    53    52    51    1
    54    52    53    2
    55    36    37   ar
    56    36    35    1
    57    51    54    1
    58    35    34    1
    59    54    55    1
    60    34    31    1
    61    83    81    1
    62    84    82    1
    63    55    56    1
    64    82    81    1
    65    81    78    1
    66    26    24   ar
    67    26    28   ar
    68    24    23   ar
    69    78    77    1
    70    78    79    1
    71    31    30    1
    72    31    32    1
    73    56    57    1
    74    30    20   am
    75    29    28    1
    76    28    27   ar
    77    33    32    2
    78    79    80    2
    79    23    22    1
    80    23    25   ar
    81    22    19    1
    82    19    20    1
    83    19    18    1
    84    20    21    2
    85    27    25   ar
