@<TRIPOS>MOLECULE
tmp/6b2mA00.pdb
 182 176 0 0 0
SMALL
GASTEIGER

@<TRIPOS>ATOM
      1  N         34.3130  -52.3290  -19.1030 N.3    23  ALA23      -0.1231
      2  CA        34.5920  -50.9520  -18.6830 C.3    23  ALA23       0.1694
      3  C         34.3810  -50.8270  -17.1800 C.2    23  ALA23       0.2592
      4  O         33.2410  -50.8280  -16.7070 O.2    23  ALA23      -0.2718
      5  CB        33.7030  -49.9710  -19.4540 C.3    23  ALA23       0.0304
      6  N         35.4690  -50.7350  -16.4120 N.am   24  PHE24      -0.1962
      7  CA        35.3890  -50.8420  -14.9530 C.3    24  PHE24       0.1771
      8  C         35.7400  -49.5220  -14.2710 C.2    24  PHE24       0.2620
      9  O         36.8790  -49.0550  -14.3580 O.2    24  PHE24      -0.2715
     10  CB        36.3120  -51.9400  -14.4250 C.3    24  PHE24       0.0574
     11  CG        36.2280  -52.1230  -12.9320 C.ar   24  PHE24      -0.0200
     12  CD1       35.0810  -52.6460  -12.3410 C.ar   24  PHE24      -0.0042
     13  CD2       37.2870  -51.7570  -12.1100 C.ar   24  PHE24      -0.0042
     14  CE1       34.9980  -52.8200  -10.9590 C.ar   24  PHE24      -0.0003
     15  CE2       37.2080  -51.9280  -10.7200 C.ar   24  PHE24      -0.0003
     16  CZ        36.0640  -52.4560  -10.1490 C.ar   24  PHE24      -0.0000
     17  N         34.7870  -48.9780  -13.5290 N.am   25  SER25      -0.1950
     18  CA        34.9280  -47.7280  -12.7930 C.3    25  SER25       0.1924
     19  C         35.1180  -47.9340  -11.2990 C.2    25  SER25       0.2314
     20  O         35.4230  -46.9710  -10.5880 O.2    25  SER25      -0.2863
     21  CB        33.6750  -46.8640  -12.9860 C.3    25  SER25       0.2116
     22  OG        32.6010  -47.4440  -12.2280 O.3    25  SER25      -0.2180
     23  N         32.5440  -48.6250   -9.3520 N.3    27  GLY27      -0.1225
     24  CA        31.2250  -48.5590   -8.7540 C.3    27  GLY27       0.1811
     25  C         30.6430  -49.9550   -8.5770 C.2    27  GLY27       0.2280
     26  O         31.1460  -50.9460   -9.1070 O.2    27  GLY27      -0.2866
     27  N         27.9630  -51.2330   -9.7820 N.3    29  ASP29      -0.1225
     28  CA        27.3870  -51.8430  -10.9800 C.3    29  ASP29       0.1805
     29  C         28.4600  -52.5310  -11.8150 C.2    29  ASP29       0.2598
     30  O         28.3480  -53.7180  -12.1310 O.2    29  ASP29      -0.2718
     31  CB        26.6690  -50.7980  -11.8410 C.3    29  ASP29       0.1424
     32  CG        25.4330  -50.2090  -11.1720 C.2    29  ASP29       0.3668
     33  OD1       24.9930  -49.1290  -11.6030 O.co2  29  ASP29      -0.2456
     34  OD2       24.8820  -50.8230  -10.2430 O.co2  29  ASP29      -0.2456
     35  N         29.5170  -51.7980  -12.1770 N.am   30  SER30      -0.1952
     36  CA        30.5690  -52.4120  -12.9710 C.3    30  SER30       0.1924
     37  C         31.3400  -53.4420  -12.1520 C.2    30  SER30       0.2314
     38  O         31.8710  -54.3910  -12.7280 O.2    30  SER30      -0.2863
     39  CB        31.5020  -51.3340  -13.5500 C.3    30  SER30       0.2116
     40  OG        32.2360  -50.6490  -12.5560 O.3    30  SER30      -0.2180
     41  N         39.0810  -52.7750  -18.0810 N.3    49  VAL49      -0.1231
     42  CA        39.7230  -51.5500  -18.5480 C.3    49  VAL49       0.1692
     43  C         39.3050  -50.4250  -17.6160 C.2    49  VAL49       0.2592
     44  O         38.1110  -50.2480  -17.3500 O.2    49  VAL49      -0.2718
     45  CB        39.3510  -51.2210  -20.0070 C.3    49  VAL49       0.0266
     46  CG1       39.8930  -49.8450  -20.4040 C.3    49  VAL49       0.0020
     47  CG2       39.9040  -52.2860  -20.9780 C.3    49  VAL49       0.0020
     48  N         40.2910  -49.7160  -17.0640 N.am   50  VAL50      -0.1966
     49  CA        40.0460  -48.5280  -16.2440 C.3    50  VAL50       0.1727
     50  C         40.6450  -47.3390  -16.9740 C.2    50  VAL50       0.2616
     51  O         41.8590  -47.3090  -17.2220 O.2    50  VAL50      -0.2715
     52  CB        40.6500  -48.6650  -14.8310 C.3    50  VAL50       0.0290
     53  CG1       40.2220  -47.5020  -13.9320 C.3    50  VAL50       0.0023
     54  CG2       40.2990  -50.0150  -14.2120 C.3    50  VAL50       0.0023
     55  N         39.8030  -46.3660  -17.3190 N.am   51  ALA51      -0.1977
     56  CA        40.2420  -45.1910  -18.0710 C.3    51  ALA51       0.1597
     57  C         40.6250  -44.0570  -17.1270 C.2    51  ALA51       0.2287
     58  O         39.8200  -43.6420  -16.2840 O.2    51  ALA51      -0.2864
     59  CB        39.1500  -44.7220  -19.0280 C.3    51  ALA51       0.0319
     60  N         39.5720  -35.3220  -16.7110 N.3    55  LEU55      -0.1231
     61  CA        38.3020  -34.9220  -16.1310 C.3    55  LEU55       0.1693
     62  C         38.0250  -35.6420  -14.8190 C.2    55  LEU55       0.2592
     63  O         36.9720  -35.4140  -14.2130 O.2    55  LEU55      -0.2718
     64  CB        37.1610  -35.1930  -17.1160 C.3    55  LEU55       0.0284
     65  CG        37.2610  -34.5200  -18.4960 C.3    55  LEU55       0.0019
     66  CD1       36.0800  -34.9240  -19.3970 C.3    55  LEU55       0.0001
     67  CD2       37.3220  -32.9800  -18.3460 C.3    55  LEU55       0.0001
     68  N         38.9030  -36.5610  -14.4130 N.am   56  PHE56      -0.1976
     69  CA        38.7200  -37.3060  -13.1740 C.3    56  PHE56       0.1639
     70  C         40.0390  -37.4030  -12.4220 C.2    56  PHE56       0.2290
     71  O         41.1230  -37.2830  -13.0060 O.2    56  PHE56      -0.2864
     72  CB        38.1210  -38.6850  -13.4380 C.3    56  PHE56       0.0560
     73  CG        36.7290  -38.6210  -13.9770 C.ar   56  PHE56      -0.0200
     74  CD1       35.6370  -38.5500  -13.1140 C.ar   56  PHE56      -0.0042
     75  CD2       36.5060  -38.5930  -15.3500 C.ar   56  PHE56      -0.0042
     76  CE1       34.3340  -38.4810  -13.6100 C.ar   56  PHE56      -0.0003
     77  CE2       35.2130  -38.5250  -15.8600 C.ar   56  PHE56      -0.0003
     78  CZ        34.1210  -38.4720  -14.9840 C.ar   56  PHE56      -0.0000
     79  N         40.7320  -41.4070   -7.8370 N.3    60  GLU60      -0.1245
     80  CA        39.6340  -42.2770   -8.2430 C.3    60  GLU60       0.1567
     81  C         40.1110  -43.3550   -9.2100 C.2    60  GLU60       0.2260
     82  O         39.6790  -44.5140   -9.1320 O.2    60  GLU60      -0.2867
     83  CB        38.5270  -41.4360   -8.8780 C.3    60  GLU60       0.0388
     84  CG        37.3950  -42.2750   -9.3760 C.3    60  GLU60       0.1160
     85  CD        36.3170  -41.4860  -10.0740 C.2    60  GLU60       0.3649
     86  OE1       36.5120  -40.3410  -10.5480 O.co2  60  GLU60      -0.2457
     87  OE2       35.1750  -41.9280  -10.1540 O.co2  60  GLU60      -0.2457
     88  N         40.6420  -36.2420  -23.2960 N.3    82  TYR82      -0.1241
     89  CA        39.3310  -35.6710  -23.6070 C.3    82  TYR82       0.1605
     90  C         39.4320  -34.2740  -24.1980 C.2    82  TYR82       0.2264
     91  O         38.6110  -33.9100  -25.0470 O.2    82  TYR82      -0.2867
     92  CB        38.4610  -35.6440  -22.3550 C.3    82  TYR82       0.0534
     93  CG        37.8430  -36.9710  -22.0350 C.ar   82  TYR82      -0.0201
     94  CD1       37.2110  -37.7270  -23.0210 C.ar   82  TYR82      -0.0009
     95  CD2       37.9030  -37.4840  -20.7570 C.ar   82  TYR82      -0.0009
     96  CE1       36.6200  -38.9630  -22.7160 C.ar   82  TYR82       0.0417
     97  CE2       37.3280  -38.7050  -20.4440 C.ar   82  TYR82       0.0417
     98  CZ        36.6910  -39.4350  -21.4220 C.ar   82  TYR82       0.1957
     99  OH        36.1300  -40.6270  -21.0770 O.3    82  TYR82      -0.2866
    100  N         29.3880  -33.9590  -22.9560 N.3    96  TRP96      -0.1241
    101  CA        29.2550  -35.3040  -22.3920 C.3    96  TRP96       0.1605
    102  C         29.1840  -36.3840  -23.4760 C.2    96  TRP96       0.2264
    103  O         29.7370  -37.4790  -23.3170 O.2    96  TRP96      -0.2867
    104  CB        27.9970  -35.3610  -21.5210 C.3    96  TRP96       0.0550
    105  CG        26.7460  -35.2160  -22.3690 C.ar   96  TRP96       0.0003
    106  CD1       26.1680  -34.0440  -22.7770 C.ar   96  TRP96       0.0946
    107  CD2       25.9720  -36.2760  -22.9740 C.ar   96  TRP96       0.0152
    108  NE1       25.0700  -34.3070  -23.5710 N.ar   96  TRP96      -0.2442
    109  CE2       24.9290  -35.6660  -23.7080 C.ar   96  TRP96       0.0810
    110  CE3       26.0520  -37.6750  -22.9540 C.ar   96  TRP96       0.0012
    111  CZ2       23.9740  -36.4100  -24.4120 C.ar   96  TRP96       0.0191
    112  CZ3       25.0990  -38.4110  -23.6500 C.ar   96  TRP96       0.0001
    113  CH2       24.0790  -37.7760  -24.3680 C.ar   96  TRP96       0.0015
    114  N         32.5980  -37.0290  -25.0290 N.3    99  ALA99      -0.1231
    115  CA        33.4010  -37.8150  -24.1050 C.3    99  ALA99       0.1694
    116  C         33.0060  -39.2850  -24.1820 C.2    99  ALA99       0.2591
    117  O         33.8770  -40.1630  -24.2190 O.2    99  ALA99      -0.2718
    118  CB        33.2600  -37.2820  -22.6750 C.3    99  ALA99       0.0304
    119  N         31.6930  -39.5730  -24.2230 N.am  100  LYS100     -0.1980
    120  CA        31.2480  -40.9650  -24.3220 C.3   100  LYS100      0.1596
    121  C         31.7320  -41.6120  -25.6120 C.2   100  LYS100      0.2287
    122  O         32.2130  -42.7550  -25.6070 O.2   100  LYS100     -0.2864
    123  CB        29.7200  -41.0360  -24.2460 C.3   100  LYS100      0.0298
    124  CG        29.1560  -40.6680  -22.8710 C.3   100  LYS100      0.0038
    125  CD        27.6400  -40.8200  -22.8200 C.3   100  LYS100      0.0206
    126  CE        27.1990  -42.2710  -22.9120 C.3   100  LYS100      0.1093
    127  NZ        26.9220  -42.8630  -21.5770 N.3   100  LYS100     -0.1314
    128  N         35.4490  -42.3020  -25.2300 N.3   103  PHE103     -0.1227
    129  CA        35.6060  -43.4090  -24.2830 C.3   103  PHE103      0.1736
    130  C         35.3040  -44.7490  -24.9430 C.2   103  PHE103      0.2595
    131  O         36.1310  -45.6680  -24.9070 O.2   103  PHE103     -0.2718
    132  CB        34.7050  -43.1600  -23.0780 C.3   103  PHE103      0.0547
    133  CG        34.7340  -44.2480  -22.0230 C.ar  103  PHE103     -0.0202
    134  CD1       33.6620  -45.1190  -21.8780 C.ar  103  PHE103     -0.0042
    135  CD2       35.7720  -44.3190  -21.1090 C.ar  103  PHE103     -0.0042
    136  CE1       33.6480  -46.0730  -20.8730 C.ar  103  PHE103     -0.0003
    137  CE2       35.7710  -45.2920  -20.1090 C.ar  103  PHE103     -0.0003
    138  CZ        34.7040  -46.1640  -19.9960 C.ar  103  PHE103     -0.0000
    139  N         34.1200  -44.8780  -25.5630 N.am  104  TYR104     -0.1976
    140  CA        33.7530  -46.1640  -26.1490 C.3   104  TYR104      0.1639
    141  C         34.5860  -46.4740  -27.3900 C.2   104  TYR104      0.2290
    142  O         34.7760  -47.6500  -27.7260 O.2   104  TYR104     -0.2864
    143  CB        32.2560  -46.2050  -26.4690 C.3   104  TYR104      0.0560
    144  CG        31.3970  -46.4240  -25.2400 C.ar  104  TYR104     -0.0198
    145  CD1       31.3790  -47.6560  -24.5860 C.ar  104  TYR104     -0.0009
    146  CD2       30.6500  -45.3820  -24.6980 C.ar  104  TYR104     -0.0009
    147  CE1       30.6040  -47.8500  -23.4520 C.ar  104  TYR104      0.0417
    148  CE2       29.8770  -45.5670  -23.5720 C.ar  104  TYR104      0.0417
    149  CZ        29.8570  -46.8010  -22.9540 C.ar  104  TYR104      0.1957
    150  OH        29.0840  -46.9730  -21.8420 O.3   104  TYR104     -0.2866
    151  N         29.6440  -52.5000  -20.0810 N.3   121  ASP121     -0.1225
    152  CA        29.6920  -51.4570  -19.0600 C.3   121  ASP121      0.1805
    153  C         28.6810  -51.7840  -17.9630 C.2   121  ASP121      0.2598
    154  O         27.9490  -52.7690  -18.0430 O.2   121  ASP121     -0.2718
    155  CB        29.4440  -50.0700  -19.6750 C.3   121  ASP121      0.1424
    156  CG        28.0640  -49.9260  -20.2820 C.2   121  ASP121      0.3668
    157  OD1       27.0890  -50.5210  -19.7600 O.co2 121  ASP121     -0.2456
    158  OD2       27.9520  -49.2180  -21.3210 O.co2 121  ASP121     -0.2456
    159  N         28.6420  -50.9510  -16.9270 N.am  122  GLY122     -0.1942
    160  CA        27.7660  -51.2710  -15.8170 C.3   122  GLY122      0.2014
    161  C         26.4460  -50.5290  -15.7840 C.2   122  GLY122      0.2638
    162  O         25.8360  -50.4170  -14.7160 O.2   122  GLY122     -0.2714
    163  N         25.9570  -50.0390  -16.9190 N.am  123  MET123     -0.1976
    164  CA        24.7140  -49.2740  -16.8690 C.3   123  MET123      0.1605
    165  C         23.5240  -50.1670  -16.5430 C.2   123  MET123      0.2287
    166  O         23.4560  -51.3230  -16.9680 O.2   123  MET123     -0.2864
    167  CB        24.4950  -48.5160  -18.1720 C.3   123  MET123      0.0413
    168  CG        25.6040  -47.5050  -18.4150 C.3   123  MET123      0.0598
    169  SD        25.2250  -46.3720  -19.7460 S.3   123  MET123     -0.1393
    170  CE        24.5600  -47.5020  -20.9590 C.3   123  MET123      0.0692
    171  N         32.4960  -35.8400  -13.3870 N.3   166  SER166     -0.1217
    172  CA        33.4160  -35.1360  -14.2720 C.3   166  SER166      0.1889
    173  C         33.6200  -33.6900  -13.8150 C.2   166  SER166      0.2288
    174  O         32.6590  -32.9780  -13.5220 O.2   166  SER166     -0.2866
    175  CB        32.8590  -35.1750  -15.7060 C.3   166  SER166      0.2089
    176  OG        33.5150  -34.2520  -16.5680 O.3   166  SER166     -0.2183
    177  N         34.1550  -31.3560  -15.5400 N.3   168  SER168     -0.1217
    178  CA        33.4870  -30.4770  -16.4990 C.3   168  SER168      0.1889
    179  C         32.3240  -29.7250  -15.8720 C.2   168  SER168      0.2288
    180  O         32.0670  -28.5630  -16.2170 O.2   168  SER168     -0.2866
    181  CB        32.9560  -31.2960  -17.6690 C.3   168  SER168      0.2089
    182  OG        34.0130  -31.8810  -18.4010 O.3   168  SER168     -0.2183
@<TRIPOS>BOND
     1   142   141    2
     2   141   140    1
     3   143   140    1
     4   143   144    1
     5   140   139    1
     6   121   122    2
     7   121   120    1
     8   139   130   am
     9   144   146   ar
    10   144   145   ar
    11   128   129    1
    12    91    90    2
    13   114   115    1
    14   130   131    2
    15   130   129    1
    16   146   148   ar
    17   145   147   ar
    18   111   113   ar
    19   111   109   ar
    20   113   112   ar
    21   120   123    1
    22   120   119    1
    23   129   132    1
    24   123   124    1
    25   119   116   am
    26   117   116    2
    27    90    89    1
    28   116   115    1
    29   115   118    1
    30   109   108   ar
    31   109   107   ar
    32   112   110   ar
    33    89    88    1
    34    89    92    1
    35   148   149   ar
    36   108   106   ar
    37   102   103    2
    38   102   101    1
    39   147   149   ar
    40   132   133    1
    41    94    96   ar
    42    94    93   ar
    43   107   110   ar
    44   107   105   ar
    45   100   101    1
    46   149   150    1
    47   126   125    1
    48   126   127    1
    49   124   125    1
    50   106   105   ar
    51    96    98   ar
    52   101   104    1
    53   105   104    1
    54    92    93    1
    55    93    95   ar
    56   133   134   ar
    57   133   135   ar
    58   134   136   ar
    59    98    99    1
    60    98    97   ar
    61   158   156   ar
    62   135   137   ar
    63    47    45    1
    64   170   169    1
    65   136   138   ar
    66    95    97   ar
    67    46    45    1
    68   156   157   ar
    69   156   155    1
    70   137   138   ar
    71   151   152    1
    72    45    42    1
    73   169   168    1
    74   155   152    1
    75     5     2    1
    76    66    65    1
    77     1     2    1
    78   152   153    1
    79    59    56    1
    80     2     3    1
    81    42    41    1
    82    42    43    1
    83    65    67    1
    84    65    64    1
    85   168   167    1
    86   182   181    1
    87   167   164    1
    88    56    55    1
    89    56    57    1
    90   154   153    2
    91   153   159   am
    92   181   178    1
    93    43    44    2
    94    43    48   am
    95    55    50   am
    96    51    50    2
    97     3     4    2
    98     3     6   am
    99    57    58    2
   100    64    61    1
   101    48    49    1
   102    50    49    1
   103   166   165    2
   104   159   160    1
   105   163   164    1
   106   163   161   am
   107   164   165    1
   108    60    61    1
   109   176   175    1
   110   178   179    1
   111   178   177    1
   112     6     7    1
   113    49    52    1
   114   180   179    2
   115    61    62    1
   116    77    75   ar
   117    77    78   ar
   118   160   161    1
   119   161   162    2
   120   175   172    1
   121    75    73   ar
   122    78    76   ar
   123     7    10    1
   124     7     8    1
   125    52    54    1
   126    52    53    1
   127    62    68   am
   128    62    63    2
   129    10    11    1
   130    68    69    1
   131     9     8    2
   132   172   173    1
   133   172   171    1
   134     8    17   am
   135    73    72    1
   136    73    74   ar
   137   173   174    2
   138    76    74   ar
   139    39    36    1
   140    39    40    1
   141    17    18    1
   142    72    69    1
   143    69    70    1
   144    71    70    2
   145    21    18    1
   146    21    22    1
   147    36    35    1
   148    36    37    1
   149    11    12   ar
   150    11    13   ar
   151    18    19    1
   152    38    37    2
   153    12    14   ar
   154    35    29   am
   155    30    29    2
   156    13    15   ar
   157    31    32    1
   158    31    28    1
   159    29    28    1
   160    33    32   ar
   161    19    20    2
   162    32    34   ar
   163    28    27    1
   164    14    16   ar
   165    15    16   ar
   166    86    85   ar
   167    87    85   ar
   168    85    84    1
   169    84    83    1
   170    23    24    1
   171    81    82    2
   172    81    80    1
   173    26    25    2
   174    83    80    1
   175    24    25    1
   176    80    79    1
