@<TRIPOS>MOLECULE
tmp/6b2pA00.pdb
 158 150 0 0 0
SMALL
GASTEIGER

@<TRIPOS>ATOM
      1  N         82.2690   78.9940   31.6150 N.3    14  LEU14      -0.1231
      2  CA        83.7230   78.9360   31.4570 C.3    14  LEU14       0.1693
      3  C         84.1860   80.0890   30.5430 C.2    14  LEU14       0.2593
      4  O         85.3190   80.5760   30.6580 O.2    14  LEU14      -0.2718
      5  CB        84.1520   77.5690   30.8920 C.3    14  LEU14       0.0284
      6  CG        83.6530   76.3260   31.6450 C.3    14  LEU14       0.0019
      7  CD1       83.8310   75.0680   30.8040 C.3    14  LEU14       0.0001
      8  CD2       84.3350   76.1780   33.0030 C.3    14  LEU14       0.0001
      9  N         83.2790   80.5300   29.6760 N.am   15  GLY15      -0.1942
     10  CA        83.4950   81.6250   28.7400 C.3    15  GLY15       0.2014
     11  C         82.2890   81.8680   27.8560 C.2    15  GLY15       0.2638
     12  O         81.4020   81.0120   27.7580 O.2    15  GLY15      -0.2714
     13  N         82.2400   83.0470   27.2260 N.am   16  PHE16      -0.1973
     14  CA        81.1640   83.4050   26.3100 C.3    16  PHE16       0.1639
     15  C         81.7120   84.1880   25.1210 C.2    16  PHE16       0.2290
     16  O         82.8640   84.6220   25.1520 O.2    16  PHE16      -0.2864
     17  CB        79.9830   84.1090   27.0280 C.3    16  PHE16       0.0560
     18  CG        80.2360   85.4670   27.6490 C.ar   16  PHE16      -0.0200
     19  CD1       80.7380   85.5780   28.9400 C.ar   16  PHE16      -0.0042
     20  CD2       79.9010   86.6340   26.9720 C.ar   16  PHE16      -0.0042
     21  CE1       80.9600   86.8320   29.5160 C.ar   16  PHE16      -0.0003
     22  CE2       80.1190   87.8870   27.5520 C.ar   16  PHE16      -0.0003
     23  CZ        80.6410   87.9770   28.8220 C.ar   16  PHE16      -0.0000
     24  N         79.8550   78.9830   26.4540 N.3    22  VAL22      -0.1245
     25  CA        80.4510   77.7100   26.8810 C.3    22  VAL22       0.1561
     26  C         80.2970   77.4870   28.3870 C.2    22  VAL22       0.2260
     27  O         80.8430   78.2560   29.1790 O.2    22  VAL22      -0.2867
     28  CB        81.9310   77.5800   26.4300 C.3    22  VAL22       0.0252
     29  CG1       82.4210   76.1440   26.5890 C.3    22  VAL22       0.0019
     30  CG2       82.1260   78.0640   24.9900 C.3    22  VAL22       0.0019
     31  N         82.1280   69.8640   28.6200 N.3    35  ALA35      -0.1245
     32  CA        82.0110   71.2800   28.2960 C.3    35  ALA35       0.1562
     33  C         80.8970   71.3730   27.2620 C.2    35  ALA35       0.2260
     34  O         80.9660   70.7120   26.2240 O.2    35  ALA35      -0.2867
     35  CB        83.3150   71.8100   27.7330 C.3    35  ALA35       0.0290
     36  N         78.7260   73.7270   24.7380 N.3    37  LYS37      -0.1245
     37  CA        78.6140   74.9570   23.9640 C.3    37  LYS37       0.1561
     38  C         77.1580   75.0450   23.4840 C.2    37  LYS37       0.2260
     39  O         76.6660   74.1370   22.8110 O.2    37  LYS37      -0.2867
     40  CB        79.5960   74.9490   22.7910 C.3    37  LYS37       0.0271
     41  CG        79.7790   76.2980   22.1320 C.3    37  LYS37       0.0035
     42  CD        80.5410   76.1630   20.8300 C.3    37  LYS37       0.0206
     43  CE        81.6650   77.1650   20.7360 C.3    37  LYS37       0.1093
     44  NZ        82.3000   77.1680   19.3910 N.3    37  LYS37      -0.1314
     45  N         90.6100   69.3750   21.4190 N.3    69  VAL69      -0.1245
     46  CA        89.4390   69.2110   22.2900 C.3    69  VAL69       0.1561
     47  C         88.3650   68.4510   21.4780 C.2    69  VAL69       0.2260
     48  O         87.9950   68.8910   20.3860 O.2    69  VAL69      -0.2867
     49  CB        88.9250   70.5980   22.8130 C.3    69  VAL69       0.0252
     50  CG1       87.7810   70.4340   23.8090 C.3    69  VAL69       0.0019
     51  CG2       90.0560   71.4240   23.4260 C.3    69  VAL69       0.0019
     52  N         81.1710   68.6130   24.4780 N.3    89  MET89      -0.1230
     53  CA        82.5910   68.4630   24.2340 C.3    89  MET89       0.1702
     54  C         83.3980   68.0050   25.4260 C.2    89  MET89       0.2592
     55  O         82.9460   68.1200   26.5650 O.2    89  MET89      -0.2718
     56  CB        83.1460   69.7910   23.7250 C.3    89  MET89       0.0401
     57  CG        82.9500   69.9660   22.2590 C.3    89  MET89       0.0596
     58  SD        83.6690   71.5060   21.6980 S.3    89  MET89      -0.1393
     59  CE        82.2510   72.5440   21.8060 C.3    89  MET89       0.0692
     60  N         84.6240   67.5220   25.1490 N.am   90  GLU90      -0.1966
     61  CA        85.6160   67.0880   26.1220 C.3    90  GLU90       0.1733
     62  C         85.8890   68.2400   27.0930 C.2    90  GLU90       0.2616
     63  O         86.1300   69.3660   26.6500 O.2    90  GLU90      -0.2715
     64  CB        86.9130   66.6690   25.3890 C.3    90  GLU90       0.0429
     65  CG        88.1740   66.7410   26.2400 C.3    90  GLU90       0.1163
     66  CD        89.4770   66.2710   25.6290 C.2    90  GLU90       0.3649
     67  OE1       90.3310   65.7840   26.4010 O.co2  90  GLU90      -0.2457
     68  OE2       89.6730   66.4260   24.4020 O.co2  90  GLU90      -0.2457
     69  N         85.8160   67.9710   28.4090 N.am   91  TYR91      -0.1960
     70  CA        86.1180   68.9950   29.4090 C.3    91  TYR91       0.1771
     71  C         87.6210   69.0070   29.6880 C.2    91  TYR91       0.2619
     72  O         88.2210   67.9650   29.9970 O.2    91  TYR91      -0.2715
     73  CB        85.2920   68.8320   30.7070 C.3    91  TYR91       0.0574
     74  CG        85.6940   69.7740   31.8240 C.ar   91  TYR91      -0.0198
     75  CD1       85.6390   71.1590   31.6560 C.ar   91  TYR91      -0.0009
     76  CD2       86.1400   69.2840   33.0460 C.ar   91  TYR91      -0.0009
     77  CE1       86.0470   72.0300   32.6690 C.ar   91  TYR91       0.0417
     78  CE2       86.5300   70.1460   34.0740 C.ar   91  TYR91       0.0417
     79  CZ        86.4820   71.5170   33.8800 C.ar   91  TYR91       0.1957
     80  OH        86.8650   72.3580   34.8960 O.3    91  TYR91      -0.2866
     81  N         88.2330   70.1930   29.5230 N.am   92  VAL92      -0.1963
     82  CA        89.6490   70.3890   29.7950 C.3    92  VAL92       0.1727
     83  C         89.7430   71.3190   30.9830 C.2    92  VAL92       0.2616
     84  O         89.4990   72.5120   30.8400 O.2    92  VAL92      -0.2715
     85  CB        90.4810   70.9050   28.5980 C.3    92  VAL92       0.0290
     86  CG1       91.9710   70.8310   28.9280 C.3    92  VAL92       0.0023
     87  CG2       90.1680   70.1310   27.3140 C.3    92  VAL92       0.0023
     88  N         90.0640   70.7640   32.1610 N.am   93  ASP93      -0.1957
     89  CA        90.2390   71.5230   33.3930 C.3    93  ASP93       0.1840
     90  C         91.6230   72.1800   33.3170 C.2    93  ASP93       0.2623
     91  O         92.6240   71.5710   33.7010 O.2    93  ASP93      -0.2715
     92  CB        90.1110   70.5960   34.6110 C.3    93  ASP93       0.1450
     93  CG        90.3390   71.2860   35.9320 C.2    93  ASP93       0.3671
     94  OD1       89.4800   72.1070   36.3280 O.co2  93  ASP93      -0.2456
     95  OD2       91.3730   71.0070   36.5730 O.co2  93  ASP93      -0.2456
     96  N         91.6650   73.3770   32.7390 N.am   94  GLY94      -0.1940
     97  CA        92.8980   74.1240   32.5560 C.3    94  GLY94       0.2014
     98  C         92.7440   75.6240   32.4180 C.2    94  GLY94       0.2639
     99  O         91.7190   76.1980   32.8020 O.2    94  GLY94      -0.2714
    100  N         93.7960   76.2670   31.8850 N.am   95  VAL95      -0.1963
    101  CA        93.8890   77.7170   31.6740 C.3    95  VAL95       0.1727
    102  C         94.4530   78.0290   30.2970 C.2    95  VAL95       0.2616
    103  O         95.3090   77.2870   29.8130 O.2    95  VAL95      -0.2715
    104  CB        94.6960   78.4360   32.7880 C.3    95  VAL95       0.0290
    105  CG1       93.8480   78.6310   34.0370 C.3    95  VAL95       0.0023
    106  CG2       95.9970   77.6990   33.1180 C.3    95  VAL95       0.0023
    107  N         93.9900   79.1220   29.6700 N.am   96  THR96      -0.1951
    108  CA        94.4830   79.4920   28.3400 C.3    96  THR96       0.1897
    109  C         95.8590   80.1360   28.4290 C.2    96  THR96       0.2313
    110  O         96.2250   80.6540   29.4940 O.2    96  THR96      -0.2863
    111  CB        93.4900   80.3890   27.5650 C.3    96  THR96       0.1794
    112  OG1       93.3000   81.6400   28.2480 O.3    96  THR96      -0.2208
    113  CG2       92.1670   79.6910   27.2610 C.3    96  THR96       0.0378
    114  N         95.5640   83.5910   29.6740 N.3    99  ASP99      -0.1239
    115  CA        95.5230   83.6800   31.1430 C.3    99  ASP99       0.1674
    116  C         96.9210   83.5410   31.7380 C.2    99  ASP99       0.2266
    117  O         97.2830   84.3240   32.6130 O.2    99  ASP99      -0.2867
    118  CB        94.5830   82.6190   31.7690 C.3    99  ASP99       0.1410
    119  CG        93.1270   82.6420   31.3160 C.2    99  ASP99       0.3668
    120  OD1       92.5330   83.7480   31.2650 O.co2  99  ASP99      -0.2456
    121  OD2       92.5580   81.5420   31.0830 O.co2  99  ASP99      -0.2456
    122  N         94.0740   82.5450   23.4570 N.3   139  ALA139     -0.1231
    123  CA        92.7530   82.1770   23.9740 C.3   139  ALA139      0.1694
    124  C         92.2560   80.8180   23.4830 C.2   139  ALA139      0.2592
    125  O         91.2950   80.2870   24.0570 O.2   139  ALA139     -0.2718
    126  CB        91.7420   83.2510   23.6100 C.3   139  ALA139      0.0304
    127  N         92.8840   80.2590   22.4290 N.am  140  ASN140     -0.1974
    128  CA        92.4640   78.9840   21.8630 C.3   140  ASN140      0.1688
    129  C         93.4240   77.8380   22.1410 C.2   140  ASN140      0.2292
    130  O         93.2460   76.7430   21.6050 O.2   140  ASN140     -0.2864
    131  CB        92.1770   79.1320   20.3840 C.3   140  ASN140      0.1181
    132  CG        90.8330   79.7510   20.1130 C.2   140  ASN140      0.2629
    133  OD1       89.8780   79.6230   20.8900 O.2   140  ASN140     -0.2716
    134  ND2       90.7150   80.4060   18.9780 N.am  140  ASN140     -0.0877
    135  N         94.9280   75.8230   25.4750 N.3   142  MET142     -0.1245
    136  CA        94.8320   75.6130   26.9180 C.3   142  MET142      0.1570
    137  C         95.9160   74.6660   27.3650 C.2   142  MET142      0.2261
    138  O         96.4500   73.9030   26.5550 O.2   142  MET142     -0.2867
    139  CB        93.4980   74.9720   27.3140 C.3   142  MET142      0.0387
    140  CG        92.2800   75.5630   26.6730 C.3   142  MET142      0.0595
    141  SD        90.8180   74.8810   27.4830 S.3   142  MET142     -0.1393
    142  CE        90.8550   75.8790   28.9790 C.3   142  MET142      0.0692
    143  N         91.3820   74.4240   20.8600 N.3   152  MET152     -0.1230
    144  CA        89.9450   74.5490   20.6010 C.3   152  MET152      0.1702
    145  C         89.6660   75.5190   19.4500 C.2   152  MET152      0.2592
    146  O         90.5930   76.1420   18.9300 O.2   152  MET152     -0.2718
    147  CB        89.1890   74.9840   21.8770 C.3   152  MET152      0.0401
    148  CG        89.6990   76.2720   22.4840 C.3   152  MET152      0.0596
    149  SD        88.5790   77.0430   23.6740 S.3   152  MET152     -0.1393
    150  CE        88.8810   76.0720   25.0500 C.3   152  MET152      0.0692
    151  N         88.3850   75.6470   19.0640 N.am  153  ASP153     -0.1974
    152  CA        87.8920   76.5610   18.0290 C.3   153  ASP153      0.1709
    153  C         88.3130   76.1830   16.5850 C.2   153  ASP153      0.2293
    154  O         88.5630   77.0650   15.7630 O.2   153  ASP153     -0.2864
    155  CB        88.2470   78.0340   18.3570 C.3   153  ASP153      0.1436
    156  CG        87.1610   79.0170   17.9960 C.2   153  ASP153      0.3671
    157  OD1       85.9690   78.6920   18.2150 O.co2 153  ASP153     -0.2456
    158  OD2       87.4990   80.1270   17.5120 O.co2 153  ASP153     -0.2456
@<TRIPOS>BOND
     1   154   153    2
     2   153   152    1
     3   158   156   ar
     4   156   157   ar
     5   156   155    1
     6   152   155    1
     7   152   151    1
     8   146   145    2
     9   134   132   am
    10   151   145   am
    11    44    43    1
    12   145   144    1
    13   132   131    1
    14   132   133    2
    15   131   128    1
    16    48    47    2
    17   144   143    1
    18   144   147    1
    19    43    42    1
    20    42    41    1
    21    45    46    1
    22    47    46    1
    23   130   129    2
    24    58    59    1
    25    58    57    1
    26   128   129    1
    27   128   127    1
    28   147   148    1
    29    41    40    1
    30    57    56    1
    31    46    49    1
    32   127   124   am
    33   148   149    1
    34    40    37    1
    35    39    38    2
    36    49    51    1
    37    49    50    1
    38   122   123    1
    39   124   123    1
    40   124   125    2
    41    38    37    1
    42   126   123    1
    43   149   150    1
    44    56    53    1
    45    37    36    1
    46    53    52    1
    47    53    54    1
    48    68    66   ar
    49    30    28    1
    50    15    16    2
    51    15    14    1
    52    60    54   am
    53    60    61    1
    54    64    61    1
    55    64    65    1
    56    54    55    2
    57   135   136    1
    58    66    65    1
    59    66    67   ar
    60    61    62    1
    61    34    33    2
    62    14    17    1
    63    14    13    1
    64    28    29    1
    65    28    25    1
    66    24    25    1
    67   138   137    2
    68    63    62    2
    69   140   139    1
    70   140   141    1
    71    25    26    1
    72   136   139    1
    73   136   137    1
    74    20    22   ar
    75    20    18   ar
    76    17    18    1
    77    62    69   am
    78    13    11   am
    79   113   111    1
    80    33    32    1
    81    87    85    1
    82   141   142    1
    83    22    23   ar
    84   111   112    1
    85   111   108    1
    86    18    19   ar
    87    35    32    1
    88    12    11    2
    89    11    10    1
    90    32    31    1
    91   108   109    1
    92   108   107    1
    93    26    27    2
    94    69    70    1
    95   109   110    2
    96    85    86    1
    97    85    82    1
    98    10     9    1
    99    23    21   ar
   100    19    21   ar
   101    70    71    1
   102    70    73    1
   103    81    71   am
   104    81    82    1
   105   107   102   am
   106   114   115    1
   107     9     3   am
   108    71    72    2
   109    82    83    1
   110   103   102    2
   111   102   101    1
   112     3     4    2
   113     3     2    1
   114    73    74    1
   115     7     6    1
   116    84    83    2
   117     5     2    1
   118     5     6    1
   119    83    88   am
   120   121   119   ar
   121   115   116    1
   122   115   118    1
   123   120   119   ar
   124   119   118    1
   125     2     1    1
   126     6     8    1
   127    75    74   ar
   128    75    77   ar
   129   101   100    1
   130   101   104    1
   131   116   117    2
   132    74    76   ar
   133   100    98   am
   134    88    89    1
   135    98    97    1
   136    98    99    2
   137    97    96    1
   138    77    79   ar
   139    96    90   am
   140   104   106    1
   141   104   105    1
   142    76    78   ar
   143    90    89    1
   144    90    91    2
   145    89    92    1
   146    79    78   ar
   147    79    80    1
   148    92    93    1
   149    93    94   ar
   150    93    95   ar
