@<TRIPOS>MOLECULE
tmp/6b2qB00.pdb
 156 147 0 0 0
SMALL
GASTEIGER

@<TRIPOS>ATOM
      1  N        -32.0880  -49.3500    7.7500 N.3    15  ARG15      -0.1245
      2  CA       -30.7430  -49.5790    7.2230 C.3    15  ARG15       0.1563
      3  C        -29.7340  -49.6020    8.3640 C.2    15  ARG15       0.2260
      4  O        -29.8010  -48.7440    9.2410 O.2    15  ARG15      -0.2867
      5  CB       -30.4010  -48.4560    6.2170 C.3    15  ARG15       0.0307
      6  CG       -28.9610  -48.4460    5.6900 C.3    15  ARG15       0.0489
      7  CD       -28.6540  -47.2430    4.8010 C.3    15  ARG15       0.2205
      8  NE       -28.8740  -45.9540    5.4690 N.pl3  15  ARG15      -0.0865
      9  CZ       -27.9910  -45.3430    6.2570 C.cat  15  ARG15       0.5346
     10  NH1      -28.2850  -44.1760    6.8150 N.pl3  15  ARG15       0.1354
     11  NH2      -26.8080  -45.9000    6.5000 N.pl3  15  ARG15       0.1354
     12  N        -26.3270  -48.7650   10.0530 N.3    17  ILE17      -0.1231
     13  CA       -25.3410  -47.6840    9.9670 C.3    17  ILE17       0.1692
     14  C        -23.9490  -48.1650   10.3980 C.2    17  ILE17       0.2592
     15  O        -23.0050  -48.0440    9.6140 O.2    17  ILE17      -0.2718
     16  CB       -25.8300  -46.4290   10.7680 C.3    17  ILE17       0.0266
     17  CG1      -26.9270  -45.6630   10.0020 C.3    17  ILE17       0.0019
     18  CG2      -24.6820  -45.4950   11.1610 C.3    17  ILE17       0.0020
     19  CD1      -27.7100  -44.6570   10.8470 C.3    17  ILE17       0.0001
     20  N        -23.8190  -48.6780   11.6480 N.am   18  ALA18      -0.1966
     21  CA       -22.5460  -49.1250   12.2150 C.3    18  ALA18       0.1728
     22  C        -22.6850  -50.1580   13.3360 C.2    18  ALA18       0.2617
     23  O        -23.7920  -50.6050   13.6440 O.2    18  ALA18      -0.2715
     24  CB       -21.7560  -47.9250   12.7150 C.3    18  ALA18       0.0334
     25  N        -21.5340  -50.5330   13.9360 N.am   19  THR19      -0.1937
     26  CA       -21.3900  -51.4910   15.0300 C.3    19  THR19       0.2028
     27  C        -20.6510  -50.8330   16.2060 C.2    19  THR19       0.2642
     28  O        -19.5110  -50.3810   16.0530 O.2    19  THR19      -0.2714
     29  CB       -20.6970  -52.7650   14.5140 C.3    19  THR19       0.1808
     30  OG1      -21.5800  -53.4310   13.6110 O.3    19  THR19      -0.2208
     31  CG2      -20.2840  -53.7160   15.6340 C.3    19  THR19       0.0379
     32  N        -21.3220  -50.7880   17.3550 N.am   20  GLY20      -0.1954
     33  CA       -20.7840  -50.2460   18.5980 C.3    20  GLY20       0.1869
     34  C        -20.0800  -51.3110   19.4160 C.2    20  GLY20       0.2309
     35  O        -19.8890  -52.4400   18.9430 O.2    20  GLY20      -0.2863
     36  N        -25.9010  -49.5900   15.4580 N.3    25  VAL25      -0.1245
     37  CA       -26.5180  -48.3110   15.0950 C.3    25  VAL25       0.1561
     38  C        -27.3100  -48.4990   13.7930 C.2    25  VAL25       0.2260
     39  O        -26.7500  -48.9310   12.7900 O.2    25  VAL25      -0.2867
     40  CB       -25.4980  -47.1360   15.0390 C.3    25  VAL25       0.0252
     41  CG1      -26.2020  -45.7960   14.8430 C.3    25  VAL25       0.0019
     42  CG2      -24.6280  -47.1000   16.2910 C.3    25  VAL25       0.0019
     43  N        -32.1870  -42.4340   14.8060 N.3    38  ALA38      -0.1245
     44  CA       -31.0930  -43.3920   14.8760 C.3    38  ALA38       0.1562
     45  C        -31.3110  -44.2480   16.1060 C.2    38  ALA38       0.2260
     46  O        -31.3980  -43.7240   17.2210 O.2    38  ALA38      -0.2867
     47  CB       -29.7510  -42.6800   14.9420 C.3    38  ALA38       0.0290
     48  N        -29.9690  -47.3500   18.5100 N.3    40  LYS40      -0.1245
     49  CA       -28.8470  -48.1600   18.9470 C.3    40  LYS40       0.1561
     50  C        -29.4490  -49.3590   19.6740 C.2    40  LYS40       0.2260
     51  O        -30.0690  -49.1800   20.7210 O.2    40  LYS40      -0.2867
     52  CB       -27.8950  -47.3600   19.8460 C.3    40  LYS40       0.0271
     53  CG       -26.4930  -47.9510   19.9060 C.3    40  LYS40       0.0035
     54  CD       -25.6120  -47.2190   20.8980 C.3    40  LYS40       0.0206
     55  CE       -24.1940  -47.7280   20.8570 C.3    40  LYS40       0.1093
     56  NZ       -23.3380  -47.0160   21.8360 N.3    40  LYS40      -0.1314
     57  N        -24.8180  -36.1810   20.5570 N.3    72  ALA72      -0.1245
     58  CA       -25.9610  -36.8400   19.9180 C.3    72  ALA72       0.1562
     59  C        -27.0340  -37.0480   20.9960 C.2    72  ALA72       0.2260
     60  O        -26.7570  -37.6470   22.0380 O.2    72  ALA72      -0.2867
     61  CB       -25.5350  -38.1710   19.3080 C.3    72  ALA72       0.0290
     62  N        -32.3980  -42.1460   19.2760 N.3    86  MET86      -0.1230
     63  CA       -31.5760  -40.9550   19.2610 C.3    86  MET86       0.1702
     64  C        -31.7500  -40.0900   18.0250 C.2    86  MET86       0.2595
     65  O        -32.3400  -40.5330   17.0380 O.2    86  MET86      -0.2718
     66  CB       -30.1130  -41.3850   19.3610 C.3    86  MET86       0.0401
     67  CG       -29.7900  -42.1330   20.6340 C.3    86  MET86       0.0596
     68  SD       -28.0340  -42.3720   20.7800 S.3    86  MET86      -0.1393
     69  CE       -27.5540  -40.7580   21.3580 C.3    86  MET86       0.0692
     70  N        -31.2030  -38.8530   18.0730 N.am   87  GLU87      -0.1920
     71  CA       -31.2430  -37.9360   16.9440 C.3    87  GLU87       0.1949
     72  C        -30.4230  -38.5290   15.7730 C.2    87  GLU87       0.2659
     73  O        -29.3950  -39.1740   16.0010 O.2    87  GLU87      -0.2711
     74  CB       -30.7880  -36.5210   17.3670 C.2    87  GLU87       0.0111
     75  CG       -29.3730  -36.1080   16.9820 C.2    87  GLU87       0.0838
     76  CD       -28.9290  -34.7480   17.4870 C.2    87  GLU87       0.3877
     77  OE1      -27.9580  -34.7020   18.2740 O.co2  87  GLU87      -0.2406
     78  OE2      -29.5430  -33.7290   17.0960 O.co2  87  GLU87      -0.2406
     79  N        -30.9270  -38.3850   14.5410 N.am   88  LEU88      -0.1961
     80  CA       -30.2300  -38.9010   13.3710 C.3    88  LEU88       0.1728
     81  C        -29.2820  -37.8390   12.8590 C.2    88  LEU88       0.2616
     82  O        -29.7140  -36.7440   12.4820 O.2    88  LEU88      -0.2715
     83  CB       -31.2050  -39.3730   12.2770 C.3    88  LEU88       0.0311
     84  CG       -30.5730  -40.0510   11.0470 C.3    88  LEU88       0.0022
     85  CD1      -29.8930  -41.3680   11.4050 C.3    88  LEU88       0.0001
     86  CD2      -31.6010  -40.2760    9.9640 C.3    88  LEU88       0.0001
     87  N        -27.9820  -38.1550   12.8980 N.am   89  VAL89      -0.1963
     88  CA       -26.8940  -37.2750   12.4720 C.3    89  VAL89       0.1727
     89  C        -26.4470  -37.6640   11.0740 C.2    89  VAL89       0.2616
     90  O        -26.1650  -38.8360   10.7980 O.2    89  VAL89      -0.2715
     91  CB       -25.6950  -37.2660   13.4740 C.3    89  VAL89       0.0290
     92  CG1      -24.4680  -36.5630   12.8880 C.3    89  VAL89       0.0023
     93  CG2      -26.0850  -36.6430   14.8140 C.3    89  VAL89       0.0023
     94  N        -26.3870  -36.6620   10.1990 N.am   90  ASN90      -0.1958
     95  CA       -25.8830  -36.8040    8.8480 C.3    90  ASN90       0.1823
     96  C        -24.3910  -36.5650    9.0270 C.2    90  ASN90       0.2661
     97  O        -23.9690  -35.4230    9.2130 O.2    90  ASN90      -0.2711
     98  CB       -26.5020  -35.7280    7.9440 C.3    90  ASN90       0.1195
     99  CG       -26.4400  -36.0020    6.4620 C.2    90  ASN90       0.2630
    100  OD1      -27.2580  -35.4760    5.6980 O.2    90  ASN90      -0.2716
    101  ND2      -25.4750  -36.8110    6.0120 N.am   90  ASN90      -0.0877
    102  N        -23.6250  -37.6420    9.0970 N.am   91  GLY91      -0.1716
    103  CA       -22.1950  -37.5300    9.3250 C.2    91  GLY91       0.1480
    104  C        -21.3790  -38.7770    9.0960 C.2    91  GLY91       0.2820
    105  O        -21.7990  -39.6990    8.3970 O.2    91  GLY91      -0.2669
    106  N        -20.1820  -38.7860    9.6780 N.am   92  GLU92      -0.1929
    107  CA       -19.2120  -39.8590    9.5420 C.3    92  GLU92       0.1721
    108  C        -18.2470  -39.8110   10.7290 C.2    92  GLU92       0.2458
    109  O        -17.7900  -38.7130   11.0750 O.2    92  GLU92      -0.2730
    110  CB       -18.4440  -39.6690    8.2230 C.3    92  GLU92       0.0428
    111  CG       -17.4380  -40.7550    7.9320 C.3    92  GLU92       0.1163
    112  CD       -17.0160  -40.8370    6.4840 C.2    92  GLU92       0.3649
    113  OE1      -16.2190  -39.9770    6.0530 O.co2  92  GLU92      -0.2457
    114  OE2      -17.4740  -41.7720    5.7870 O.co2  92  GLU92      -0.2457
    115  N        -17.8990  -40.9630   11.3620 N.am   93  PRO93      -0.2727
    116  CA       -16.9410  -40.9100   12.4740 C.3    93  PRO93       0.1402
    117  C        -15.5540  -40.4940   11.9790 C.2    93  PRO93       0.2269
    118  O        -15.1910  -40.8080   10.8390 O.2    93  PRO93      -0.2865
    119  CB       -16.9950  -42.3200   13.0670 C.3    93  PRO93       0.0296
    120  CG       -17.4050  -43.1790   11.9570 C.3    93  PRO93       0.0237
    121  CD       -18.3230  -42.3540   11.0930 C.3    93  PRO93       0.0939
    122  N        -13.4990  -42.8350   16.5440 N.3   136  GLY136     -0.1210
    123  CA       -14.6920  -43.6210   16.2390 C.3   136  GLY136      0.1956
    124  C        -15.9480  -43.1130   16.9270 C.2   136  GLY136      0.2611
    125  O        -17.0570  -43.3270   16.4290 O.2   136  GLY136     -0.2717
    126  N        -15.7610  -42.3730   18.0020 N.am  137  ASN137     -0.1974
    127  CA       -16.8700  -41.8400   18.7670 C.3   137  ASN137      0.1688
    128  C        -17.1030  -40.3710   18.5480 C.2   137  ASN137      0.2292
    129  O        -17.9090  -39.7700   19.2030 O.2   137  ASN137     -0.2864
    130  CB       -16.6280  -42.0660   20.2340 C.3   137  ASN137      0.1181
    131  CG       -16.8210  -43.4810   20.6220 C.2   137  ASN137      0.2629
    132  OD1      -16.4210  -43.8740   21.6810 O.2   137  ASN137     -0.2716
    133  ND2      -17.4360  -44.2550   19.7660 N.am  137  ASN137     -0.0877
    134  N        -18.3310  -37.9450   15.7100 N.3   139  LEU139     -0.1245
    135  CA       -19.0020  -37.8110   14.4070 C.3   139  LEU139      0.1561
    136  C        -18.7140  -36.4400   13.8030 C.2   139  LEU139      0.2260
    137  O        -18.6770  -35.4420   14.5250 O.2   139  LEU139     -0.2867
    138  CB       -20.5300  -38.0240   14.4970 C.3   139  LEU139      0.0270
    139  CG       -21.0500  -39.4640   14.6560 C.3   139  LEU139      0.0019
    140  CD1      -22.5560  -39.4700   14.7560 C.3   139  LEU139      0.0001
    141  CD2      -20.6290  -40.3590   13.4890 C.3   139  LEU139      0.0001
    142  N        -20.7250  -39.3220   20.6160 N.3   149  THR149     -0.1203
    143  CA       -21.5200  -40.5450   20.7040 C.3   149  THR149      0.1994
    144  C        -20.8630  -41.5400   21.6700 C.2   149  THR149      0.2617
    145  O        -19.7370  -41.3160   22.1240 O.2   149  THR149     -0.2717
    146  CB       -21.8220  -41.1170   19.2810 C.3   149  THR149      0.1784
    147  OG1      -22.3960  -42.4190   19.3840 O.3   149  THR149     -0.2211
    148  CG2      -20.5970  -41.2070   18.3890 C.3   149  THR149      0.0376
    149  N        -21.6080  -42.6090   22.0090 N.am  150  ASP150     -0.1973
    150  CA       -21.2220  -43.7650   22.8170 C.3   150  ASP150      0.1709
    151  C        -20.7070  -43.4400   24.2340 C.2   150  ASP150      0.2293
    152  O        -19.5030  -43.2640   24.4240 O.2   150  ASP150     -0.2864
    153  CB       -20.1970  -44.6330   22.0480 C.3   150  ASP150      0.1436
    154  CG       -20.0500  -46.0410   22.5800 C.2   150  ASP150      0.3671
    155  OD1      -19.4090  -46.2130   23.6440 O.co2 150  ASP150     -0.2456
    156  OD2      -20.5390  -46.9770   21.9170 O.co2 150  ASP150     -0.2456
@<TRIPOS>BOND
     1     7     8    1
     2     7     6    1
     3     8     9    2
     4     6     5    1
     5   100    99    2
     6   114   112   ar
     7   101    99   am
     8   113   112   ar
     9     5     2    1
    10     9    11    1
    11     9    10    1
    12    99    98    1
    13   112   111    1
    14     2     1    1
    15     2     3    1
    16   111   110    1
    17    98    95    1
    18   110   107    1
    19     3     4    2
    20   105   104    2
    21    95    96    1
    22    95    94    1
    23    96   102    1
    24    96    97    2
    25   104   103    1
    26   104   106   am
    27   102   103    2
    28   107   106    1
    29   107   108    1
    30    15    14    2
    31    86    84    1
    32    13    12    1
    33    13    14    1
    34    13    16    1
    35    17    16    1
    36    17    19    1
    37    94    89   am
    38    14    20   am
    39   108   109    2
    40   108   115   am
    41    16    18    1
    42    90    89    2
    43   118   117    2
    44    84    85    1
    45    84    83    1
    46    89    88    1
    47   121   115    1
    48   121   120    1
    49   115   116    1
    50    20    21    1
    51   120   119    1
    52   117   116    1
    53    21    24    1
    54    21    22    1
    55    83    80    1
    56    88    87    1
    57    88    91    1
    58   116   119    1
    59    82    81    2
    60    39    38    2
    61    81    87   am
    62    81    80    1
    63    92    91    1
    64    22    23    2
    65    22    25   am
    66    80    79    1
    67    91    93    1
    68   141   139    1
    69    30    29    1
    70    38    37    1
    71   136   135    1
    72   136   137    2
    73    25    26    1
    74   135   138    1
    75   135   134    1
    76   138   139    1
    77    29    26    1
    78    29    31    1
    79    79    72   am
    80   139   140    1
    81    43    44    1
    82    41    40    1
    83    44    47    1
    84    44    45    1
    85    26    27    1
    86    40    37    1
    87    40    42    1
    88    37    36    1
    89    72    73    2
    90    72    71    1
    91    28    27    2
    92    45    46    2
    93    27    32   am
    94   123   122    1
    95   123   124    1
    96   125   124    2
    97   124   126   am
    98    71    74    1
    99    71    70    1
   100    75    74    2
   101    75    76    1
   102    65    64    2
   103    78    76   ar
   104    32    33    1
   105    76    77   ar
   106   126   127    1
   107    64    70   am
   108    64    63    1
   109   148   146    1
   110    48    49    1
   111   128   127    1
   112   128   129    2
   113    33    34    1
   114   127   130    1
   115    35    34    2
   116    49    50    1
   117    49    52    1
   118    63    62    1
   119    63    66    1
   120   146   147    1
   121   146   143    1
   122    61    58    1
   123    66    67    1
   124    50    51    2
   125   133   131   am
   126    52    53    1
   127    53    54    1
   128    58    57    1
   129    58    59    1
   130   130   131    1
   131   142   143    1
   132   131   132    2
   133    67    68    1
   134   143   144    1
   135    68    69    1
   136    55    54    1
   137    55    56    1
   138    59    60    2
   139   144   149   am
   140   144   145    2
   141   156   154   ar
   142   149   150    1
   143   153   154    1
   144   153   150    1
   145   154   155   ar
   146   150   151    1
   147   151   152    2
