@<TRIPOS>MOLECULE
tmp/6b2qA01.pdb
 116 109 0 0 0
SMALL
GASTEIGER

@<TRIPOS>ATOM
      1  N        -26.9530  -34.8420  -14.3550 N.3    94  LEU94      -0.1245
      2  CA       -28.2840  -34.3620  -14.7620 C.3    94  LEU94       0.1561
      3  C        -29.3790  -35.3340  -14.2650 C.2    94  LEU94       0.2260
      4  O        -30.4840  -34.9110  -13.9200 O.2    94  LEU94      -0.2867
      5  CB       -28.3220  -34.1360  -16.2810 C.3    94  LEU94       0.0270
      6  CG       -29.6090  -33.6060  -16.8760 C.3    94  LEU94       0.0019
      7  CD1      -30.0090  -32.2540  -16.2730 C.3    94  LEU94       0.0001
      8  CD2      -29.4890  -33.5100  -18.3400 C.3    94  LEU94       0.0001
      9  N        -30.1860  -34.3190  -10.6850 N.3    97  VAL97      -0.1245
     10  CA       -30.7540  -32.9650  -10.7700 C.3    97  VAL97       0.1561
     11  C        -32.2550  -33.1020  -11.1210 C.2    97  VAL97       0.2260
     12  O        -33.0980  -32.5500  -10.4160 O.2    97  VAL97      -0.2867
     13  CB       -29.9960  -32.0870  -11.8130 C.3    97  VAL97       0.0252
     14  CG1      -30.7410  -30.7890  -12.1100 C.3    97  VAL97       0.0019
     15  CG2      -28.5680  -31.7940  -11.3720 C.3    97  VAL97       0.0019
     16  N        -34.7360  -34.6250   -8.4600 N.3   100  ARG100     -0.1231
     17  CA       -35.1930  -33.6380   -7.4660 C.3   100  ARG100      0.1694
     18  C        -36.1610  -32.6390   -8.0940 C.2   100  ARG100      0.2592
     19  O        -37.2430  -32.4090   -7.5490 O.2   100  ARG100     -0.2718
     20  CB       -34.0210  -32.8290   -6.8700 C.3   100  ARG100      0.0321
     21  CG       -32.8960  -33.6250   -6.2450 C.3   100  ARG100      0.0489
     22  CD       -31.8860  -32.7000   -5.5870 C.3   100  ARG100      0.2205
     23  NE       -30.9370  -32.1000   -6.5380 N.pl3 100  ARG100     -0.0865
     24  CZ       -31.0180  -30.8520   -6.9950 C.cat 100  ARG100      0.5346
     25  NH1      -32.0090  -30.0570   -6.6260 N.pl3 100  ARG100      0.1354
     26  NH2      -30.0910  -30.3910   -7.8260 N.pl3 100  ARG100      0.1354
     27  N        -35.7380  -32.0040   -9.2090 N.am  101  THR101     -0.1953
     28  CA       -36.4850  -30.9550   -9.9100 C.3   101  THR101      0.1897
     29  C        -37.7040  -31.4370  -10.6740 C.2   101  THR101      0.2313
     30  O        -38.6820  -30.6970  -10.7780 O.2   101  THR101     -0.2863
     31  CB       -35.5700  -30.1530  -10.8460 C.3   101  THR101      0.1794
     32  OG1      -35.0630  -31.0160  -11.8620 O.3   101  THR101     -0.2208
     33  CG2      -34.4320  -29.4570  -10.1120 C.3   101  THR101      0.0378
     34  N        -36.5550  -29.3380  -15.8450 N.3   104  LEU104     -0.1245
     35  CA       -35.7960  -28.0860  -15.8750 C.3   104  LEU104      0.1561
     36  C        -36.6100  -27.0030  -16.5770 C.2   104  LEU104      0.2260
     37  O        -37.3940  -27.3120  -17.4820 O.2   104  LEU104     -0.2867
     38  CB       -34.4700  -28.2710  -16.6380 C.3   104  LEU104      0.0270
     39  CG       -33.4230  -29.1810  -16.0330 C.3   104  LEU104      0.0019
     40  CD1      -32.3440  -29.4500  -17.0360 C.3   104  LEU104      0.0001
     41  CD2      -32.8160  -28.5790  -14.7640 C.3   104  LEU104      0.0001
     42  N        -33.0710  -23.0630  -18.5530 N.3   108  HIS108     -0.1241
     43  CA       -32.0080  -23.9750  -18.1210 C.3   108  HIS108      0.1621
     44  C        -31.7950  -25.1390  -19.0640 C.2   108  HIS108      0.2264
     45  O        -30.6460  -25.4920  -19.3350 O.2   108  HIS108     -0.2867
     46  CB       -32.2410  -24.4990  -16.6930 C.3   108  HIS108      0.0745
     47  CG       -32.2490  -23.4390  -15.6420 C.ar  108  HIS108      0.0817
     48  ND1      -33.0660  -23.5390  -14.5340 N.ar  108  HIS108     -0.2268
     49  CD2      -31.5550  -22.2770  -15.5700 C.ar  108  HIS108      0.1154
     50  CE1      -32.8450  -22.4430  -13.8240 C.ar  108  HIS108      0.1986
     51  NE2      -31.9350  -21.6610  -14.4010 N.ar  108  HIS108     -0.2212
     52  N        -30.0740  -24.0230  -22.1650 N.3   111  ASP111     -0.1225
     53  CA       -28.6740  -23.7130  -21.8620 C.3   111  ASP111      0.1805
     54  C        -27.8510  -25.0120  -21.7330 C.2   111  ASP111      0.2597
     55  O        -26.7720  -25.0890  -22.3290 O.2   111  ASP111     -0.2718
     56  CB       -28.5380  -22.8320  -20.6060 C.3   111  ASP111      0.1424
     57  CG       -27.1230  -22.3620  -20.2730 C.2   111  ASP111      0.3668
     58  OD1      -26.2060  -22.5630  -21.1140 O.co2 111  ASP111     -0.2456
     59  OD2      -26.9360  -21.7700  -19.1820 O.co2 111  ASP111     -0.2456
     60  N        -28.3740  -26.0460  -21.0210 N.am  112  MET112     -0.1979
     61  CA       -27.6140  -27.2830  -20.8990 C.3   112  MET112      0.1605
     62  C        -27.5210  -27.9940  -22.2290 C.2   112  MET112      0.2287
     63  O        -26.4890  -28.6140  -22.4950 O.2   112  MET112     -0.2864
     64  CB       -28.0650  -28.2130  -19.7470 C.3   112  MET112      0.0413
     65  CG       -29.3790  -28.9480  -19.9390 C.3   112  MET112      0.0598
     66  SD       -29.4290  -30.4170  -21.0290 S.3   112  MET112     -0.1393
     67  CE       -27.8900  -31.1800  -20.6740 C.3   112  MET112      0.0692
     68  N        -24.6660  -26.1800  -24.4050 N.3   115  GLN115     -0.1245
     69  CA       -23.3700  -26.5500  -23.8230 C.3   115  GLN115      0.1566
     70  C        -22.9460  -27.9790  -24.1850 C.2   115  GLN115      0.2260
     71  O        -21.8110  -28.1730  -24.6220 O.2   115  GLN115     -0.2867
     72  CB       -23.4070  -26.3850  -22.3050 C.3   115  GLN115      0.0367
     73  CG       -23.3560  -24.9500  -21.8380 C.3   115  GLN115      0.0905
     74  CD       -23.3520  -24.8570  -20.3330 C.2   115  GLN115      0.2608
     75  OE1      -22.3850  -25.2310  -19.6620 O.2   115  GLN115     -0.2717
     76  NE2      -24.4280  -24.3340  -19.7700 N.am  115  GLN115     -0.0878
     77  N        -23.4600  -31.2030  -13.9100 N.3   140  ILE140     -0.1231
     78  CA       -23.9030  -29.8130  -13.8010 C.3   140  ILE140      0.1692
     79  C        -23.2770  -29.2180  -12.5450 C.2   140  ILE140      0.2593
     80  O        -23.5380  -29.7060  -11.4450 O.2   140  ILE140     -0.2718
     81  CB       -25.4610  -29.6520  -13.8100 C.3   140  ILE140      0.0266
     82  CG1      -26.1790  -30.5300  -14.8980 C.3   140  ILE140      0.0019
     83  CG2      -25.8600  -28.1730  -13.9140 C.3   140  ILE140      0.0020
     84  CD1      -25.8440  -30.2670  -16.3200 C.3   140  ILE140      0.0001
     85  N        -22.4580  -28.1660  -12.7150 N.am  141  THR141     -0.1940
     86  CA       -21.7730  -27.4510  -11.6220 C.3   141  THR141      0.2013
     87  C        -22.7320  -26.4190  -10.9490 C.2   141  THR141      0.2484
     88  O        -23.7230  -26.0330  -11.5810 O.2   141  THR141     -0.2729
     89  CB       -20.5210  -26.7380  -12.1760 C.3   141  THR141      0.1807
     90  OG1      -20.9440  -25.6970  -13.0470 O.3   141  THR141     -0.2208
     91  CG2      -19.5610  -27.6800  -12.9010 C.3   141  THR141      0.0379
     92  N        -22.4530  -25.8970   -9.7210 N.am  142  PRO142     -0.2715
     93  CA       -23.3780  -24.9000   -9.1290 C.3   142  PRO142      0.1536
     94  C        -23.5150  -23.5830   -9.9180 C.2   142  PRO142      0.2599
     95  O        -24.5470  -22.9180   -9.8050 O.2   142  PRO142     -0.2715
     96  CB       -22.8310  -24.6910   -7.7170 C.3   142  PRO142      0.0310
     97  CG       -21.4200  -25.1270   -7.7820 C.3   142  PRO142      0.0237
     98  CD       -21.3410  -26.2070   -8.7970 C.3   142  PRO142      0.0939
     99  N        -22.5010  -23.2410  -10.7510 N.am  143  THR143     -0.1937
    100  CA       -22.4710  -22.0530  -11.6200 C.3   143  THR143      0.2028
    101  C        -23.2360  -22.3110  -12.9230 C.2   143  THR143      0.2642
    102  O        -23.4610  -21.3870  -13.7120 O.2   143  THR143     -0.2714
    103  CB       -21.0220  -21.5750  -11.8780 C.3   143  THR143      0.1808
    104  OG1      -20.2720  -22.5690  -12.5860 O.3   143  THR143     -0.2208
    105  CG2      -20.3000  -21.1770  -10.6080 C.3   143  THR143      0.0379
    106  N        -23.6340  -23.5610  -13.1260 N.am  144  GLY144     -0.1954
    107  CA       -24.3890  -23.9580  -14.2990 C.3   144  GLY144      0.1869
    108  C        -23.5440  -24.2990  -15.5080 C.2   144  GLY144      0.2309
    109  O        -23.9240  -23.9860  -16.6390 O.2   144  GLY144     -0.2863
    110  N        -21.8510  -27.3010  -17.8480 N.3   146  VAL146     -0.1245
    111  CA       -21.9620  -28.7020  -18.2560 C.3   146  VAL146      0.1561
    112  C        -20.5440  -29.2730  -18.4300 C.2   146  VAL146      0.2260
    113  O        -19.6770  -28.6040  -19.0080 O.2   146  VAL146     -0.2867
    114  CB       -22.8300  -28.8650  -19.5390 C.3   146  VAL146      0.0252
    115  CG1      -22.7170  -30.2660  -20.1310 C.3   146  VAL146      0.0019
    116  CG2      -24.2920  -28.5180  -19.2730 C.3   146  VAL146      0.0019
@<TRIPOS>BOND
     1    71    70    2
     2    68    69    1
     3    70    69    1
     4    69    72    1
     5    63    62    2
     6    55    54    2
     7    72    73    1
     8    62    61    1
     9    52    53    1
    10    53    54    1
    11    53    56    1
    12    73    74    1
    13    54    60   am
    14    58    57   ar
    15    66    67    1
    16    66    65    1
    17    60    61    1
    18    61    64    1
    19    56    57    1
    20    74    76   am
    21    74    75    2
    22    57    59   ar
    23   115   114    1
    24    65    64    1
    25   114   116    1
    26   114   111    1
    27    45    44    2
    28    44    43    1
    29   113   112    2
    30    42    43    1
    31   112   111    1
    32     8     6    1
    33   111   110    1
    34    43    46    1
    35    37    36    2
    36    40    39    1
    37     6     5    1
    38     6     7    1
    39    46    47    1
    40   109   108    2
    41    38    39    1
    42    38    35    1
    43    36    35    1
    44    84    82    1
    45     5     2    1
    46    39    41    1
    47    35    34    1
    48    47    49   ar
    49    47    48   ar
    50    49    51   ar
    51   108   107    1
    52    82    81    1
    53     2     1    1
    54     2     3    1
    55    48    50   ar
    56    51    50   ar
    57   107   106    1
    58     3     4    2
    59    83    81    1
    60    77    78    1
    61    81    78    1
    62    78    79    1
    63   102   101    2
    64   106   101   am
    65    90    89    1
    66   101   100    1
    67    91    89    1
    68    85    79   am
    69    85    86    1
    70   104   103    1
    71    79    80    2
    72    89    86    1
    73    14    13    1
    74   103   100    1
    75   103   105    1
    76    32    31    1
    77    13    15    1
    78    13    10    1
    79    86    87    1
    80   100    99    1
    81    88    87    2
    82    11    10    1
    83    11    12    2
    84    87    92   am
    85    31    33    1
    86    31    28    1
    87    30    29    2
    88    10     9    1
    89    99    94   am
    90    29    28    1
    91    94    95    2
    92    94    93    1
    93    28    27    1
    94    92    93    1
    95    92    98    1
    96    27    18   am
    97    93    96    1
    98    98    97    1
    99    16    17    1
   100    18    19    2
   101    18    17    1
   102    26    24    1
   103    97    96    1
   104    17    20    1
   105    24    25    1
   106    24    23    2
   107    20    21    1
   108    23    22    1
   109    21    22    1
