@<TRIPOS>MOLECULE
tmp/6b2wA00.pdb
 138 133 0 0 0
SMALL
GASTEIGER

@<TRIPOS>ATOM
      1  N        -62.2150  -10.2590  184.2950 N.3    32  ASP32      -0.1239
      2  CA       -63.3690   -9.7150  183.5680 C.3    32  ASP32       0.1674
      3  C        -63.8110   -8.3320  184.0790 C.2    32  ASP32       0.2266
      4  O        -64.7010   -7.7090  183.4950 O.2    32  ASP32      -0.2867
      5  CB       -64.5520  -10.6920  183.6350 C.3    32  ASP32       0.1410
      6  CG       -64.3170  -11.9650  182.8250 C.2    32  ASP32       0.3668
      7  OD1      -63.3550  -12.0050  182.0290 O.co2  32  ASP32      -0.2456
      8  OD2      -65.1040  -12.9270  182.9780 O.co2  32  ASP32      -0.2456
      9  N        -60.6170  -14.9970  188.7540 N.3    85  ASP85      -0.1239
     10  CA       -61.6750  -14.0530  189.1030 C.3    85  ASP85       0.1674
     11  C        -61.7350  -13.7880  190.6190 C.2    85  ASP85       0.2266
     12  O        -60.8760  -14.2460  191.3780 O.2    85  ASP85      -0.2867
     13  CB       -63.0230  -14.5730  188.5810 C.3    85  ASP85       0.1410
     14  CG       -63.9800  -13.4530  188.1890 C.2    85  ASP85       0.3668
     15  OD1      -63.7620  -12.2900  188.5920 O.co2  85  ASP85      -0.2456
     16  OD2      -64.9640  -13.7420  187.4840 O.co2  85  ASP85      -0.2456
     17  N        -64.6030  -14.1220  192.7920 N.3    87  TRP87      -0.1241
     18  CA       -65.7380  -14.7010  193.5110 C.3    87  TRP87       0.1605
     19  C        -65.2840  -15.8250  194.4420 C.2    87  TRP87       0.2264
     20  O        -65.5440  -17.0030  194.1980 O.2    87  TRP87      -0.2867
     21  CB       -66.7930  -15.1930  192.5190 C.3    87  TRP87       0.0550
     22  CG       -67.1940  -14.1400  191.5280 C.ar   87  TRP87       0.0003
     23  CD1      -66.8830  -14.1030  190.1970 C.ar   87  TRP87       0.0946
     24  CD2      -67.9570  -12.9590  191.7930 C.ar   87  TRP87       0.0152
     25  NE1      -67.4180  -12.9790  189.6180 N.ar   87  TRP87      -0.2442
     26  CE2      -68.0800  -12.2590  190.5770 C.ar   87  TRP87       0.0810
     27  CE3      -68.5510  -12.4260  192.9400 C.ar   87  TRP87       0.0012
     28  CZ2      -68.7750  -11.0570  190.4760 C.ar   87  TRP87       0.0191
     29  CZ3      -69.2410  -11.2250  192.8370 C.ar   87  TRP87       0.0001
     30  CH2      -69.3460  -10.5560  191.6140 C.ar   87  TRP87       0.0015
     31  N        -67.1980  -18.9430  196.1410 N.3    90  ASP90      -0.1239
     32  CA       -67.4400  -20.1720  195.3960 C.3    90  ASP90       0.1674
     33  C        -66.2180  -21.0850  195.2640 C.2    90  ASP90       0.2266
     34  O        -66.3740  -22.2910  195.0930 O.2    90  ASP90      -0.2867
     35  CB       -68.0000  -19.8170  194.0170 C.3    90  ASP90       0.1410
     36  CG       -69.3270  -19.0740  194.1040 C.2    90  ASP90       0.3668
     37  OD1      -69.9940  -19.1590  195.1580 O.co2  90  ASP90      -0.2456
     38  OD2      -69.7100  -18.4060  193.1230 O.co2  90  ASP90      -0.2456
     39  N        -68.7730  -22.8480  187.6480 N.3   112  TRP112     -0.1241
     40  CA       -70.2210  -22.9160  187.3970 C.3   112  TRP112      0.1605
     41  C        -70.5910  -23.6780  186.1190 C.2   112  TRP112      0.2264
     42  O        -71.5190  -23.2970  185.4020 O.2   112  TRP112     -0.2867
     43  CB       -70.8080  -21.4950  187.3830 C.3   112  TRP112      0.0550
     44  CG       -70.2480  -20.6390  188.4830 C.ar  112  TRP112      0.0003
     45  CD1      -70.5390  -20.7250  189.8110 C.ar  112  TRP112      0.0946
     46  CD2      -69.2720  -19.5970  188.3530 C.ar  112  TRP112      0.0152
     47  NE1      -69.8180  -19.7920  190.5170 N.ar  112  TRP112     -0.2442
     48  CE2      -69.0310  -19.0870  189.6460 C.ar  112  TRP112      0.0810
     49  CE3      -68.5840  -19.0410  187.2680 C.ar  112  TRP112      0.0012
     50  CZ2      -68.1300  -18.0460  189.8860 C.ar  112  TRP112      0.0191
     51  CZ3      -67.6870  -18.0060  187.5070 C.ar  112  TRP112      0.0001
     52  CH2      -67.4690  -17.5200  188.8070 C.ar  112  TRP112      0.0015
     53  N        -66.4470  -20.1910  182.6320 N.3   116  PHE116     -0.1241
     54  CA       -65.2200  -19.4010  182.5280 C.3   116  PHE116      0.1605
     55  C        -64.0200  -20.2690  182.9190 C.2   116  PHE116      0.2264
     56  O        -64.1860  -21.4270  183.3110 O.2   116  PHE116     -0.2867
     57  CB       -65.3010  -18.1610  183.4280 C.3   116  PHE116      0.0534
     58  CG       -66.4000  -17.2070  183.0490 C.ar  116  PHE116     -0.0203
     59  CD1      -66.1920  -16.2360  182.0760 C.ar  116  PHE116     -0.0042
     60  CD2      -67.6460  -17.2790  183.6610 C.ar  116  PHE116     -0.0042
     61  CE1      -67.2040  -15.3590  181.7200 C.ar  116  PHE116     -0.0003
     62  CE2      -68.6610  -16.4030  183.3090 C.ar  116  PHE116     -0.0003
     63  CZ       -68.4400  -15.4410  182.3380 C.ar  116  PHE116     -0.0000
     64  N        -78.3370  -13.8110  187.2770 N.3   202  ASP202     -0.1225
     65  CA       -77.5570  -14.8540  187.9300 C.3   202  ASP202      0.1805
     66  C        -77.1460  -15.9070  186.9010 C.2   202  ASP202      0.2598
     67  O        -77.9970  -16.5620  186.2950 O.2   202  ASP202     -0.2718
     68  CB       -78.3820  -15.4950  189.0530 C.3   202  ASP202      0.1424
     69  CG       -77.5610  -16.3810  189.9610 C.2   202  ASP202      0.3668
     70  OD1      -76.4420  -15.9860  190.3590 O.co2 202  ASP202     -0.2456
     71  OD2      -78.0550  -17.4740  190.3000 O.co2 202  ASP202     -0.2456
     72  N        -75.8390  -16.0590  186.7100 N.am  203  ASP203     -0.1960
     73  CA       -75.2940  -17.0090  185.7370 C.3   203  ASP203      0.1840
     74  C        -74.6990  -18.2440  186.4180 C.2   203  ASP203      0.2622
     75  O        -73.8630  -18.9440  185.8410 O.2   203  ASP203     -0.2715
     76  CB       -74.2340  -16.3210  184.8720 C.3   203  ASP203      0.1450
     77  CG       -73.0690  -15.7800  185.6850 C.2   203  ASP203      0.3671
     78  OD1      -72.6730  -16.4050  186.6890 O.co2 203  ASP203     -0.2456
     79  OD2      -72.5470  -14.7190  185.3080 O.co2 203  ASP203     -0.2456
     80  N        -75.1420  -18.5100  187.6410 N.am  204  THR204     -0.1951
     81  CA       -74.5590  -19.5570  188.4710 C.3   204  THR204      0.1897
     82  C        -75.5100  -20.7480  188.6240 C.2   204  THR204      0.2313
     83  O        -75.2130  -21.6910  189.3570 O.2   204  THR204     -0.2863
     84  CB       -74.1970  -18.9850  189.8590 C.3   204  THR204      0.1794
     85  OG1      -73.2130  -19.8070  190.4940 O.3   204  THR204     -0.2208
     86  CG2      -75.4130  -18.9010  190.7350 C.3   204  THR204      0.0378
     87  N        -77.9900  -20.1020  192.5980 N.3   207  HIS207     -0.1241
     88  CA       -77.3430  -20.2200  193.9110 C.3   207  HIS207      0.1621
     89  C        -78.2590  -19.8120  195.0460 C.2   207  HIS207      0.2264
     90  O        -78.9250  -18.7810  194.9720 O.2   207  HIS207     -0.2867
     91  CB       -76.1120  -19.3270  193.9900 C.3   207  HIS207      0.0745
     92  CG       -74.8320  -20.0230  193.6680 C.ar  207  HIS207      0.0817
     93  ND1      -73.6070  -19.4870  193.9940 N.ar  207  HIS207     -0.2268
     94  CD2      -74.5790  -21.2100  193.0690 C.ar  207  HIS207      0.1154
     95  CE1      -72.6520  -20.3060  193.5960 C.ar  207  HIS207      0.1986
     96  NE2      -73.2140  -21.3620  193.0350 N.ar  207  HIS207     -0.2212
     97  N        -77.5300  -18.5170  197.7940 N.3   209  ASP209     -0.1225
     98  CA       -77.1470  -17.2450  198.4200 C.3   209  ASP209      0.1805
     99  C        -77.6780  -15.9980  197.6910 C.2   209  ASP209      0.2598
    100  O        -77.3870  -14.8730  198.1010 O.2   209  ASP209     -0.2718
    101  CB       -75.6270  -17.1710  198.6560 C.3   209  ASP209      0.1424
    102  CG       -74.8290  -16.7790  197.4140 C.2   209  ASP209      0.3668
    103  OD1      -75.3480  -16.8290  196.2760 O.co2 209  ASP209     -0.2456
    104  OD2      -73.6510  -16.4140  197.5960 O.co2 209  ASP209     -0.2456
    105  N        -78.4410  -16.1970  196.6170 N.am  210  THR210     -0.1953
    106  CA       -79.1980  -15.1160  195.9850 C.3   210  THR210      0.1897
    107  C        -80.6930  -15.1900  196.3120 C.2   210  THR210      0.2313
    108  O        -81.4500  -14.2970  195.9320 O.2   210  THR210     -0.2863
    109  CB       -79.0460  -15.1420  194.4470 C.3   210  THR210      0.1794
    110  OG1      -79.6040  -16.3540  193.9200 O.3   210  THR210     -0.2208
    111  CG2      -77.5790  -15.0320  194.0420 C.3   210  THR210      0.0378
    112  N        -70.8860   -8.2310  186.9610 N.3   317  GLN317     -0.1231
    113  CA       -70.3620   -9.5780  186.7750 C.3   317  GLN317      0.1698
    114  C        -71.1940  -10.6110  187.5490 C.2   317  GLN317      0.2592
    115  O        -70.6930  -11.6720  187.9150 O.2   317  GLN317     -0.2718
    116  CB       -68.8840   -9.6200  187.1730 C.3   317  GLN317      0.0381
    117  CG       -67.9740   -8.8310  186.2400 C.3   317  GLN317      0.0905
    118  CD       -67.9120   -9.4050  184.8320 C.2   317  GLN317      0.2608
    119  OE1      -68.1210  -10.6000  184.6230 O.2   317  GLN317     -0.2717
    120  NE2      -67.6220   -8.5480  183.8570 N.am  317  GLN317     -0.0878
    121  N        -72.4630  -10.2750  187.7910 N.am  318  ASN318     -0.1960
    122  CA       -73.5060  -11.2150  188.2390 C.3   318  ASN318      0.1819
    123  C        -73.3950  -11.8090  189.6540 C.2   318  ASN318      0.2621
    124  O        -74.0060  -12.8400  189.9490 O.2   318  ASN318     -0.2715
    125  CB       -73.6720  -12.3250  187.1960 C.3   318  ASN318      0.1195
    126  CG       -73.9060  -11.7720  185.8040 C.2   318  ASN318      0.2630
    127  OD1      -74.7000  -10.8500  185.6210 O.2   318  ASN318     -0.2716
    128  ND2      -73.2140  -12.3220  184.8180 N.am  318  ASN318     -0.0877
    129  N        -72.6480  -11.1430  190.5280 N.am  319  GLY319     -0.1954
    130  CA       -72.6030  -11.5050  191.9480 C.3   319  GLY319      0.1869
    131  C        -72.7840  -10.2750  192.8180 C.2   319  GLY319      0.2309
    132  O        -72.9320   -9.1680  192.3080 O.2   319  GLY319     -0.2863
    133  N        -71.1110  -13.2600  197.6200 N.3   323  SER323     -0.1217
    134  CA       -70.3400  -13.8630  196.5340 C.3   323  SER323      0.1889
    135  C        -68.8560  -13.4600  196.5100 C.2   323  SER323      0.2288
    136  O        -67.9990  -14.2440  196.1090 O.2   323  SER323     -0.2866
    137  CB       -70.9630  -13.4500  195.2040 C.3   323  SER323      0.2089
    138  OG       -72.3310  -13.8300  195.1310 O.3   323  SER323     -0.2183
@<TRIPOS>BOND
     1    61    59   ar
     2    61    63   ar
     3     7     6   ar
     4    59    58   ar
     5    63    62   ar
     6    54    53    1
     7    54    55    1
     8    54    57    1
     9     6     8   ar
    10     6     5    1
    11    55    56    2
    12    58    57    1
    13    58    60   ar
    14    62    60   ar
    15     4     3    2
    16     2     5    1
    17     2     3    1
    18     2     1    1
    19   120   118   am
    20   119   118    2
    21   128   126   am
    22   118   117    1
    23    76    77    1
    24    76    73    1
    25    79    77   ar
    26    42    41    2
    27   127   126    2
    28    77    78   ar
    29    73    74    1
    30    73    72    1
    31   126   125    1
    32    75    74    2
    33    41    40    1
    34   117   116    1
    35    67    66    2
    36    74    80   am
    37    72    66   am
    38   113   112    1
    39   113   116    1
    40   113   114    1
    41    66    65    1
    42   125   122    1
    43    49    51   ar
    44    49    46   ar
    45    64    65    1
    46    43    40    1
    47    43    44    1
    48    40    39    1
    49    16    14   ar
    50    51    52   ar
    51   114   121   am
    52   114   115    2
    53    80    81    1
    54   121   122    1
    55    65    68    1
    56    14    13    1
    57    14    15   ar
    58   122   123    1
    59    46    44   ar
    60    46    48   ar
    61    81    82    1
    62    81    84    1
    63    44    45   ar
    64    13    10    1
    65    82    83    2
    66     9    10    1
    67    52    50   ar
    68    68    69    1
    69    10    11    1
    70    25    23   ar
    71    25    26   ar
    72    48    50   ar
    73    48    47   ar
    74   123   124    2
    75   123   129   am
    76    45    47   ar
    77    84    85    1
    78    84    86    1
    79    69    71   ar
    80    69    70   ar
    81    23    22   ar
    82    28    26   ar
    83    28    30   ar
    84   129   130    1
    85    26    24   ar
    86    11    12    2
    87    22    24   ar
    88    22    21    1
    89    30    29   ar
    90    24    27   ar
    91   130   131    1
    92   132   131    2
    93    21    18    1
    94    87    88    1
    95    17    18    1
    96    29    27   ar
    97    96    94   ar
    98    96    95   ar
    99    94    92   ar
   100    38    36   ar
   101    18    19    1
   102    95    93   ar
   103    92    91    1
   104    92    93   ar
   105    88    91    1
   106    88    89    1
   107   110   109    1
   108    35    36    1
   109    35    32    1
   110   111   109    1
   111    36    37   ar
   112    20    19    2
   113   109   106    1
   114    90    89    2
   115    34    33    2
   116   138   137    1
   117   137   134    1
   118    33    32    1
   119    32    31    1
   120   108   107    2
   121   106   107    1
   122   106   105    1
   123   136   135    2
   124   103   102   ar
   125   135   134    1
   126   134   133    1
   127   105    99   am
   128   102   104   ar
   129   102   101    1
   130    99   100    2
   131    99    98    1
   132    97    98    1
   133    98   101    1
