@<TRIPOS>MOLECULE
tmp/6b30A00.pdb
 249 242 0 0 0
SMALL
GASTEIGER

@<TRIPOS>ATOM
      1  N        -22.3810   24.0660    0.1670 N.3    21  CYS21      -0.1221
      2  CA       -21.2050   24.4270    0.9830 C.3    21  CYS21       0.1808
      3  C        -19.8630   24.0370    0.3670 C.2    21  CYS21       0.2601
      4  O        -18.8110   24.3230    0.9590 O.2    21  CYS21      -0.2717
      5  CB       -21.3070   23.8710    2.4100 C.3    21  CYS21       0.0970
      6  SG       -21.3120   22.0750    2.5280 S.3    21  CYS21      -0.0800
      7  N        -19.9030   23.3700   -0.7910 N.am   22  GLN22      -0.1965
      8  CA       -18.7240   23.0770   -1.6250 C.3    22  GLN22       0.1733
      9  C        -17.8610   21.9660   -1.0510 C.2    22  GLN22       0.2616
     10  O        -17.6100   20.9800   -1.7290 O.2    22  GLN22      -0.2715
     11  CB       -17.8800   24.3290   -1.9030 C.3    22  GLN22       0.0408
     12  CG       -16.8950   24.1480   -3.0460 C.3    22  GLN22       0.0908
     13  CD       -16.0030   25.3490   -3.2770 C.2    22  GLN22       0.2608
     14  OE1      -16.2810   26.4580   -2.8150 O.2    22  GLN22      -0.2717
     15  NE2      -14.9120   25.1290   -3.9900 N.am   22  GLN22      -0.0878
     16  N        -17.3680   22.1450    0.1730 N.am   23  LEU23      -0.1977
     17  CA       -16.6210   21.0990    0.8630 C.3    23  LEU23       0.1596
     18  C        -17.2480   20.8160    2.2080 C.2    23  LEU23       0.2287
     19  O        -17.6180   21.7460    2.9230 O.2    23  LEU23      -0.2864
     20  CB       -15.1600   21.5060    1.0330 C.3    23  LEU23       0.0297
     21  CG       -14.4870   21.8060   -0.3090 C.3    23  LEU23       0.0022
     22  CD1      -14.3220   23.3130   -0.4820 C.3    23  LEU23       0.0001
     23  CD2      -13.1510   21.0980   -0.4050 C.3    23  LEU23       0.0001
     24  N        -12.7670   18.5370    5.6180 N.3    28  LEU28      -0.1245
     25  CA       -11.7730   19.5530    5.9830 C.3    28  LEU28       0.1561
     26  C        -11.0250   19.2020    7.2750 C.2    28  LEU28       0.2260
     27  O         -9.8030   19.3790    7.3450 O.2    28  LEU28      -0.2867
     28  CB       -12.4180   20.9460    6.0990 C.3    28  LEU28       0.0270
     29  CG       -12.9210   21.5550    4.7830 C.3    28  LEU28       0.0019
     30  CD1      -13.8700   22.7190    5.0380 C.3    28  LEU28       0.0001
     31  CD2      -11.7680   21.9930    3.8830 C.3    28  LEU28       0.0001
     32  N         -1.6060   33.5340   -9.1250 N.3    53  TRP53      -0.1241
     33  CA        -2.8530   34.2970   -9.2960 C.3    53  TRP53       0.1605
     34  C         -3.8820   33.5220  -10.1080 C.2    53  TRP53       0.2264
     35  O         -5.0450   33.5210   -9.7510 O.2    53  TRP53      -0.2867
     36  CB        -2.6560   35.7130   -9.8970 C.3    53  TRP53       0.0550
     37  CG        -2.4860   36.8320   -8.8590 C.ar   53  TRP53       0.0003
     38  CD1       -1.4540   37.7440   -8.7950 C.ar   53  TRP53       0.0946
     39  CD2       -3.3610   37.1450   -7.7410 C.ar   53  TRP53       0.0152
     40  NE1       -1.6320   38.5950   -7.7180 N.ar   53  TRP53      -0.2442
     41  CE2       -2.7850   38.2520   -7.0530 C.ar   53  TRP53       0.0810
     42  CE3       -4.5660   36.5960   -7.2530 C.ar   53  TRP53       0.0012
     43  CZ2       -3.3790   38.8240   -5.9020 C.ar   53  TRP53       0.0191
     44  CZ3       -5.1560   37.1630   -6.1010 C.ar   53  TRP53       0.0001
     45  CH2       -4.5560   38.2670   -5.4440 C.ar   53  TRP53       0.0015
     46  N         -5.3120   30.6650   -7.6860 N.3    56  CYS56      -0.1235
     47  CA        -6.1690   31.2740   -6.6860 C.3    56  CYS56       0.1677
     48  C         -7.4420   31.8520   -7.3140 C.2    56  CYS56       0.2270
     49  O         -8.5450   31.6750   -6.7790 O.2    56  CYS56      -0.2867
     50  CB        -5.3970   32.3570   -5.9080 C.3    56  CYS56       0.0956
     51  SG        -3.9480   31.7310   -4.9940 S.3    56  CYS56      -0.0801
     52  N         -8.8610   30.8200  -10.1460 N.3    58  HIS58      -0.1226
     53  CA        -9.6970   29.6820  -10.5450 C.3    58  HIS58       0.1752
     54  C        -10.4780   29.1930   -9.3370 C.2    58  HIS58       0.2596
     55  O        -11.7010   29.0920   -9.3850 O.2    58  HIS58      -0.2718
     56  CB        -8.8630   28.5360  -11.1420 C.3    58  HIS58       0.0759
     57  CG        -9.6740   27.3480  -11.5650 C.ar   58  HIS58       0.0818
     58  ND1      -10.1050   26.3830  -10.6770 N.ar   58  HIS58      -0.2268
     59  CD2      -10.1320   26.9670  -12.7810 C.ar   58  HIS58       0.1154
     60  CE1      -10.8020   25.4660  -11.3250 C.ar   58  HIS58       0.1986
     61  NE2      -10.8300   25.7940  -12.6040 N.ar   58  HIS58      -0.2212
     62  N         -9.7730   28.9300   -8.2390 N.am   59  HIS59      -0.1961
     63  CA       -10.4120   28.3470   -7.0670 C.3    59  HIS59       0.1787
     64  C        -11.4440   29.2820   -6.4580 C.2    59  HIS59       0.2620
     65  O        -12.5260   28.8360   -6.1050 O.2    59  HIS59      -0.2715
     66  CB        -9.3900   27.9350   -6.0110 C.3    59  HIS59       0.0785
     67  CG        -8.3000   27.0640   -6.5400 C.ar   59  HIS59       0.0821
     68  ND1       -8.5120   26.1340   -7.5310 N.ar   59  HIS59      -0.2267
     69  CD2       -6.9850   27.0010   -6.2350 C.ar   59  HIS59       0.1154
     70  CE1       -7.3690   25.5410   -7.8240 C.ar   59  HIS59       0.1986
     71  NE2       -6.4270   26.0530   -7.0550 N.ar   59  HIS59      -0.2212
     72  N        -11.1100   30.5670   -6.3620 N.am   60  LEU60      -0.1977
     73  CA       -12.0260   31.5810   -5.8200 C.3    60  LEU60       0.1596
     74  C        -13.2620   31.8190   -6.6950 C.2    60  LEU60       0.2287
     75  O        -14.3560   32.0150   -6.1760 O.2    60  LEU60      -0.2864
     76  CB       -11.2830   32.9130   -5.5400 C.3    60  LEU60       0.0297
     77  CG       -10.2340   32.8920   -4.3930 C.3    60  LEU60       0.0022
     78  CD1       -9.4100   34.1770   -4.3390 C.3    60  LEU60       0.0001
     79  CD2      -10.8660   32.6210   -3.0310 C.3    60  LEU60       0.0001
     80  N        -14.5360   29.4430   -8.6210 N.3    62  GLU62      -0.1231
     81  CA       -15.3140   28.2430   -8.3780 C.3    62  GLU62       0.1699
     82  C        -16.1390   28.4410   -7.1040 C.2    62  GLU62       0.2592
     83  O        -17.3600   28.2910   -7.1180 O.2    62  GLU62      -0.2718
     84  CB       -14.4250   26.9940   -8.2770 C.3    62  GLU62       0.0402
     85  CG       -15.2210   25.7060   -8.0430 C.3    62  GLU62       0.1161
     86  CD       -14.3820   24.4330   -8.0210 C.2    62  GLU62       0.3649
     87  OE1      -13.1450   24.5050   -7.8510 O.co2  62  GLU62      -0.2457
     88  OE2      -14.9790   23.3420   -8.1660 O.co2  62  GLU62      -0.2457
     89  N        -15.4770   28.8190   -6.0160 N.am   63  ALA63      -0.1980
     90  CA       -16.1650   29.0910   -4.7550 C.3    63  ALA63       0.1597
     91  C        -17.2920   30.0990   -4.9250 C.2    63  ALA63       0.2287
     92  O        -18.3580   29.9530   -4.2950 O.2    63  ALA63      -0.2864
     93  CB       -15.1820   29.5670   -3.6880 C.3    63  ALA63       0.0319
     94  N        -17.7950   37.6230   -2.4470 N.3    94  MET94      -0.1245
     95  CA       -16.4150   37.3810   -2.0290 C.3    94  MET94       0.1570
     96  C        -16.2720   37.4670   -0.5250 C.2    94  MET94       0.2261
     97  O        -15.4980   36.7220    0.0600 O.2    94  MET94      -0.2867
     98  CB       -15.4270   38.3460   -2.7120 C.3    94  MET94       0.0387
     99  CG       -14.7520   37.7670   -3.9510 C.3    94  MET94       0.0595
    100  SD       -13.6580   36.3540   -3.6420 S.3    94  MET94      -0.1393
    101  CE       -12.4370   37.0800   -2.5500 C.3    94  MET94       0.0692
    102  N        -17.4040   34.1390    0.5020 N.3    97  VAL97      -0.1231
    103  CA       -16.3390   33.1680    0.2980 C.3    97  VAL97       0.1692
    104  C        -15.3280   33.2330    1.4360 C.2    97  VAL97       0.2591
    105  O        -14.9860   32.2030    1.9850 O.2    97  VAL97      -0.2718
    106  CB       -15.6570   33.3370   -1.0830 C.3    97  VAL97       0.0266
    107  CG1      -14.3470   32.5570   -1.1660 C.3    97  VAL97       0.0020
    108  CG2      -16.6020   32.8620   -2.1830 C.3    97  VAL97       0.0020
    109  N        -14.8710   34.4300    1.7860 N.am   98  LEU98      -0.1980
    110  CA       -13.8760   34.5840    2.8480 C.3    98  LEU98       0.1596
    111  C        -14.3820   34.0070    4.1570 C.2    98  LEU98       0.2287
    112  O        -13.6970   33.2070    4.7840 O.2    98  LEU98      -0.2864
    113  CB       -13.4590   36.0530    3.0300 C.3    98  LEU98       0.0297
    114  CG       -12.1530   36.5390    2.3630 C.3    98  LEU98       0.0022
    115  CD1      -11.7090   35.7430    1.1370 C.3    98  LEU98       0.0001
    116  CD2      -12.2720   38.0220    2.0070 C.3    98  LEU98       0.0001
    117  N        -16.7230   31.7420    4.5810 N.3   100  ARG100     -0.1231
    118  CA       -16.7490   30.2860    4.3980 C.3   100  ARG100      0.1694
    119  C        -15.4020   29.6290    4.5630 C.2   100  ARG100      0.2591
    120  O        -15.3280   28.4700    4.9900 O.2   100  ARG100     -0.2718
    121  CB       -17.2630   29.9160    3.0100 C.3   100  ARG100      0.0321
    122  CG       -18.7510   30.0890    2.8100 C.3   100  ARG100      0.0489
    123  CD       -19.1300   29.7870    1.3710 C.3   100  ARG100      0.2205
    124  NE       -20.5760   29.6210    1.2310 N.pl3 100  ARG100     -0.0865
    125  CZ       -21.1820   28.7510    0.4260 C.cat 100  ARG100      0.5346
    126  NH1      -20.4910   27.9160   -0.3560 N.pl3 100  ARG100      0.1354
    127  NH2      -22.5100   28.7080    0.4100 N.pl3 100  ARG100      0.1354
    128  N        -14.3440   30.3380    4.1750 N.am  101  MET101     -0.1979
    129  CA       -13.0010   29.7820    4.2360 C.3   101  MET101      0.1605
    130  C        -12.5150   29.4350    5.6360 C.2   101  MET101      0.2287
    131  O        -11.6540   28.5720    5.7550 O.2   101  MET101     -0.2864
    132  CB       -11.9900   30.7010    3.5660 C.3   101  MET101      0.0413
    133  CG       -12.1300   30.7320    2.0570 C.3   101  MET101      0.0598
    134  SD       -10.5410   30.7820    1.2150 S.3   101  MET101     -0.1393
    135  CE       -10.9240   29.7610   -0.2070 C.3   101  MET101      0.0692
    136  N        -13.7500   27.6330    7.8090 N.3   103  ARG103     -0.1231
    137  CA       -13.9270   26.1780    7.9100 C.3   103  ARG103      0.1694
    138  C        -12.7120   25.3790    7.4350 C.2   103  ARG103      0.2591
    139  O        -12.4520   24.2790    7.9210 O.2   103  ARG103     -0.2718
    140  CB       -15.1570   25.7550    7.1040 C.3   103  ARG103      0.0321
    141  CG       -16.4700   26.3130    7.6460 C.3   103  ARG103      0.0489
    142  CD       -17.5800   26.3080    6.6070 C.3   103  ARG103      0.2205
    143  NE       -18.1390   24.9750    6.3670 N.pl3 103  ARG103     -0.0865
    144  CZ       -17.8410   24.1660    5.3510 C.cat 103  ARG103      0.5346
    145  NH1      -16.9530   24.4980    4.4080 N.pl3 103  ARG103      0.1354
    146  NH2      -18.4590   22.9900    5.2680 N.pl3 103  ARG103      0.1354
    147  N        -11.9950   25.9380    6.4620 N.am  104  ALA104     -0.1980
    148  CA       -10.7680   25.3660    5.9220 C.3   104  ALA104      0.1597
    149  C         -9.4960   25.9230    6.5670 C.2   104  ALA104      0.2287
    150  O         -8.3980   25.6630    6.0690 O.2   104  ALA104     -0.2864
    151  CB       -10.7360   25.6000    4.4240 C.3   104  ALA104      0.0319
    152  N         -4.1340   26.6750    5.9820 N.3   112  VAL112     -0.1231
    153  CA        -5.3870   26.7330    5.2260 C.3   112  VAL112      0.1692
    154  C         -5.3990   25.6360    4.1590 C.2   112  VAL112      0.2592
    155  O         -4.3570   25.3010    3.5960 O.2   112  VAL112     -0.2718
    156  CB        -5.6020   28.1190    4.5680 C.3   112  VAL112      0.0266
    157  CG1       -4.6520   28.3320    3.3980 C.3   112  VAL112      0.0020
    158  CG2       -7.0490   28.2890    4.1120 C.3   112  VAL112      0.0020
    159  N         -6.5790   25.0860    3.8800 N.am  113  PHE113     -0.1962
    160  CA        -6.7200   24.0580    2.8450 C.3   113  PHE113      0.1771
    161  C         -6.5540   24.6650    1.4530 C.2   113  PHE113      0.2620
    162  O         -7.3370   25.5290    1.0370 O.2   113  PHE113     -0.2715
    163  CB        -8.0790   23.3950    2.9470 C.3   113  PHE113      0.0574
    164  CG        -8.2180   22.1440    2.1400 C.ar  113  PHE113     -0.0200
    165  CD1       -7.3920   21.0520    2.3780 C.ar  113  PHE113     -0.0042
    166  CD2       -9.2270   22.0240    1.1830 C.ar  113  PHE113     -0.0042
    167  CE1       -7.5430   19.8740    1.6500 C.ar  113  PHE113     -0.0003
    168  CE2       -9.3790   20.8480    0.4450 C.ar  113  PHE113     -0.0003
    169  CZ        -8.5340   19.7720    0.6780 C.ar  113  PHE113     -0.0000
    170  N         -5.5180   24.2110    0.7550 N.am  114  PHE114     -0.1960
    171  CA        -5.2080   24.6820   -0.5820 C.3   114  PHE114      0.1771
    172  C         -4.7410   23.5270   -1.4490 C.2   114  PHE114      0.2619
    173  O         -3.7780   22.8620   -1.1090 O.2   114  PHE114     -0.2715
    174  CB        -4.1110   25.7390   -0.5190 C.3   114  PHE114      0.0574
    175  CG        -3.7880   26.3390   -1.8520 C.ar  114  PHE114     -0.0200
    176  CD1       -4.6970   27.1790   -2.4760 C.ar  114  PHE114     -0.0042
    177  CD2       -2.5960   26.0370   -2.5000 C.ar  114  PHE114     -0.0042
    178  CE1       -4.4220   27.7170   -3.7080 C.ar  114  PHE114     -0.0003
    179  CE2       -2.3140   26.5760   -3.7390 C.ar  114  PHE114     -0.0003
    180  CZ        -3.2340   27.4140   -4.3460 C.ar  114  PHE114     -0.0000
    181  N         -5.4300   23.2970   -2.5620 N.am  115  GLU115     -0.1963
    182  CA        -5.0740   22.2480   -3.5190 C.3   115  GLU115      0.1733
    183  C         -4.8040   20.8780   -2.9080 C.2   115  GLU115      0.2616
    184  O         -3.8420   20.2120   -3.2690 O.2   115  GLU115     -0.2715
    185  CB        -3.9190   22.7260   -4.3940 C.3   115  GLU115      0.0429
    186  CG        -4.2920   23.9730   -5.1760 C.3   115  GLU115      0.1163
    187  CD        -3.3920   24.2460   -6.3670 C.2   115  GLU115      0.3649
    188  OE1       -2.2390   23.7590   -6.3790 O.co2 115  GLU115     -0.2457
    189  OE2       -3.8480   24.9560   -7.3000 O.co2 115  GLU115     -0.2457
    190  N         -5.6710   20.4680   -1.9820 N.am  116  GLY116     -0.1955
    191  CA        -5.6520   19.1130   -1.4320 C.3   116  GLY116      0.1869
    192  C         -4.9070   18.9170   -0.1250 C.2   116  GLY116      0.2309
    193  O         -5.0390   17.8550    0.4940 O.2   116  GLY116     -0.2863
    194  N          1.9980   31.1000   -0.3100 N.3   124  PHE124     -0.1241
    195  CA         1.6080   32.1230   -1.2700 C.3   124  PHE124      0.1605
    196  C          2.6730   33.2190   -1.4970 C.2   124  PHE124      0.2264
    197  O          2.3640   34.2450   -2.0960 O.2   124  PHE124     -0.2867
    198  CB         0.2950   32.7690   -0.8070 C.3   124  PHE124      0.0534
    199  CG        -0.8160   31.7860   -0.5490 C.ar  124  PHE124     -0.0203
    200  CD1       -1.0330   31.2800    0.7270 C.ar  124  PHE124     -0.0042
    201  CD2       -1.6430   31.3610   -1.5830 C.ar  124  PHE124     -0.0042
    202  CE1       -2.0430   30.3620    0.9670 C.ar  124  PHE124     -0.0003
    203  CE2       -2.6590   30.4470   -1.3570 C.ar  124  PHE124     -0.0003
    204  CZ        -2.8630   29.9470   -0.0780 C.ar  124  PHE124     -0.0000
    205  N          2.9290   35.6780   -4.5900 N.3   127  LEU127     -0.1245
    206  CA         1.9650   36.7530   -4.8390 C.3   127  LEU127      0.1561
    207  C          2.5170   38.1230   -4.5130 C.2   127  LEU127      0.2260
    208  O          2.0610   39.1030   -5.0650 O.2   127  LEU127     -0.2867
    209  CB         0.6800   36.5430   -4.0640 C.3   127  LEU127      0.0270
    210  CG        -0.1250   35.3020   -4.4400 C.3   127  LEU127      0.0019
    211  CD1       -1.3590   35.2050   -3.5540 C.3   127  LEU127      0.0001
    212  CD2       -0.5180   35.3240   -5.9100 C.3   127  LEU127      0.0001
    213  N         -2.3640   38.7090    2.7670 N.3   133  ILE133     -0.1245
    214  CA        -2.5100   37.3040    3.1100 C.3   133  ILE133      0.1561
    215  C         -2.5110   37.1050    4.6140 C.2   133  ILE133      0.2260
    216  O         -3.3370   36.3600    5.1320 O.2   133  ILE133     -0.2867
    217  CB        -1.4440   36.4380    2.3980 C.3   133  ILE133      0.0252
    218  CG1       -1.7490   36.4760    0.9060 C.3   133  ILE133      0.0019
    219  CG2       -1.4620   34.9860    2.9000 C.3   133  ILE133      0.0019
    220  CD1       -0.7410   35.7870    0.0420 C.3   133  ILE133      0.0001
    221  N         -5.8590   38.1560    5.9810 N.3   136  ILE136     -0.1231
    222  CA        -6.8540   37.1060    5.7110 C.3   136  ILE136      0.1692
    223  C         -6.7200   35.9600    6.7210 C.2   136  ILE136      0.2592
    224  O         -7.7290   35.4740    7.2430 O.2   136  ILE136     -0.2718
    225  CB        -6.7540   36.5630    4.2700 C.3   136  ILE136      0.0266
    226  CG1       -7.2520   37.6160    3.2790 C.3   136  ILE136      0.0019
    227  CG2       -7.5890   35.2880    4.0820 C.3   136  ILE136      0.0020
    228  CD1       -6.7890   37.3870    1.8510 C.3   136  ILE136      0.0001
    229  N         -5.4840   35.5340    6.9780 N.am  137  PHE137     -0.1976
    230  CA        -5.2090   34.5120    7.9920 C.3   137  PHE137      0.1639
    231  C         -5.6740   34.9270    9.4120 C.2   137  PHE137      0.2290
    232  O         -6.2710   34.1060   10.1290 O.2   137  PHE137     -0.2864
    233  CB        -3.7230   34.0980    7.9710 C.3   137  PHE137      0.0560
    234  CG        -3.4010   32.9990    6.9690 C.ar  137  PHE137     -0.0200
    235  CD1       -3.6070   33.1880    5.6030 C.ar  137  PHE137     -0.0042
    236  CD2       -2.8910   31.7730    7.3920 C.ar  137  PHE137     -0.0042
    237  CE1       -3.3220   32.1840    4.6850 C.ar  137  PHE137     -0.0003
    238  CE2       -2.6050   30.7640    6.4780 C.ar  137  PHE137     -0.0003
    239  CZ        -2.8210   30.9720    5.1240 C.ar  137  PHE137     -0.0000
    240  N         -8.3430   44.4260   -1.9930 N.3   215  HIS215     -0.1241
    241  CA        -8.7630   43.3790   -2.9470 C.3   215  HIS215      0.1621
    242  C         -9.5660   43.9420   -4.1320 C.2   215  HIS215      0.2264
    243  O         -9.3720   45.0780   -4.5710 O.2   215  HIS215     -0.2867
    244  CB        -9.6270   42.3320   -2.1970 C.3   215  HIS215      0.0745
    245  CG        -9.5090   40.9260   -2.7100 C.ar  215  HIS215      0.0817
    246  ND1      -10.3490   40.4120   -3.6760 N.ar  215  HIS215     -0.2268
    247  CD2       -8.6870   39.9120   -2.3480 C.ar  215  HIS215      0.1154
    248  CE1      -10.0270   39.1520   -3.9090 C.ar  215  HIS215      0.1986
    249  NE2       -9.0230   38.8240   -3.1150 N.ar  215  HIS215     -0.2212
@<TRIPOS>BOND
     1    59    61   ar
     2    59    57   ar
     3    61    60   ar
     4    57    56    1
     5    57    58   ar
     6    60    58   ar
     7    56    53    1
     8    53    52    1
     9    53    54    1
    10    34    35    2
    11    34    33    1
    12    36    33    1
    13    36    37    1
    14    55    54    2
    15    54    62   am
    16    33    32    1
    17    37    38   ar
    18    37    39   ar
    19    38    40   ar
    20    80    81    1
    21    81    84    1
    22    81    82    1
    23    84    85    1
    24    62    63    1
    25    88    86   ar
    26    85    86    1
    27    86    87   ar
    28    70    68   ar
    29    70    71   ar
    30    39    42   ar
    31    39    41   ar
    32    40    41   ar
    33    46    47    1
    34    68    67   ar
    35    48    49    2
    36    48    47    1
    37   189   187   ar
    38    42    44   ar
    39    83    82    2
    40    82    89   am
    41    63    64    1
    42    63    66    1
    43    71    69   ar
    44    41    43   ar
    45    74    75    2
    46    74    73    1
    47    47    50    1
    48    67    69   ar
    49    67    66    1
    50    64    72   am
    51    64    65    2
    52   188   187   ar
    53   187   186    1
    54    72    73    1
    55    44    45   ar
    56    89    90    1
    57   212   210    1
    58    50    51    1
    59    43    45   ar
    60    73    76    1
    61    76    77    1
    62   186   185    1
    63   208   207    2
    64    91    90    1
    65    91    92    2
    66   206   205    1
    67   206   207    1
    68   206   209    1
    69    90    93    1
    70   243   242    2
    71   210   209    1
    72   210   211    1
    73   185   182    1
    74    77    78    1
    75    77    79    1
    76   180   179   ar
    77   180   178   ar
    78   242   241    1
    79    15    13   am
    80    99   100    1
    81    99    98    1
    82   248   246   ar
    83   248   249   ar
    84   179   177   ar
    85   178   176   ar
    86   246   245   ar
    87   100   101    1
    88   182   183    1
    89   182   181    1
    90    13    12    1
    91    13    14    2
    92   184   183    2
    93   249   247   ar
    94    12    11    1
    95   241   244    1
    96   241   240    1
    97   183   190   am
    98    98    95    1
    99   245   247   ar
   100   245   244    1
   101   181   172   am
   102   177   175   ar
   103   176   175   ar
   104    94    95    1
   105   108   106    1
   106   197   196    2
   107    95    96    1
   108   190   191    1
   109    11     8    1
   110   175   174    1
   111    10     9    2
   112     8     9    1
   113     8     7    1
   114   201   203   ar
   115   201   199   ar
   116   196   195    1
   117   172   173    2
   118   172   171    1
   119   191   192    1
   120   203   204   ar
   121   195   198    1
   122   195   194    1
   123   107   106    1
   124   106   103    1
   125     9    16   am
   126   198   199    1
   127     7     3   am
   128   171   174    1
   129   171   170    1
   130   199   200   ar
   131    96    97    2
   132    22    21    1
   133    23    21    1
   134   126   125    1
   135    21    20    1
   136   135   134    1
   137   192   193    2
   138   204   202   ar
   139   220   218    1
   140     1     2    1
   141    16    17    1
   142   103   102    1
   143   103   104    1
   144     3     4    2
   145     3     2    1
   146   127   125    1
   147   125   124    2
   148   168   169   ar
   149   168   166   ar
   150   169   167   ar
   151   200   202   ar
   152   170   161   am
   153    17    20    1
   154    17    18    1
   155   218   217    1
   156     2     5    1
   157   162   161    2
   158   115   114    1
   159   166   164   ar
   160   134   133    1
   161   124   123    1
   162   123   122    1
   163   104   109   am
   164   104   105    2
   165   161   160    1
   166   167   165   ar
   167   109   110    1
   168   228   226    1
   169   116   114    1
   170   133   132    1
   171   164   165   ar
   172   164   163    1
   173    18    19    2
   174   114   113    1
   175   217   219    1
   176   217   214    1
   177     5     6    1
   178   213   214    1
   179   122   121    1
   180   160   163    1
   181   160   159    1
   182   110   113    1
   183   110   111    1
   184   121   118    1
   185   214   215    1
   186   226   225    1
   187   157   156    1
   188   132   129    1
   189   155   154    2
   190   159   154   am
   191    31    29    1
   192   227   225    1
   193   158   156    1
   194   111   112    2
   195   154   153    1
   196   128   129    1
   197   128   119   am
   198   129   130    1
   199   225   222    1
   200   118   119    1
   201   118   117    1
   202   145   144    1
   203   151   148    1
   204   119   120    2
   205   156   153    1
   206   215   216    2
   207   237   239   ar
   208   237   235   ar
   209    29    30    1
   210    29    28    1
   211   239   238   ar
   212   153   152    1
   213   146   144    1
   214   144   143    2
   215   235   234   ar
   216    24    25    1
   217   130   131    2
   218   222   221    1
   219   222   223    1
   220   148   147    1
   221   148   149    1
   222    25    28    1
   223    25    26    1
   224   150   149    2
   225   143   142    1
   226   147   138   am
   227   238   236   ar
   228   142   141    1
   229   223   229   am
   230   223   224    2
   231   234   236   ar
   232   234   233    1
   233   229   230    1
   234   140   141    1
   235   140   137    1
   236    26    27    2
   237   138   137    1
   238   138   139    2
   239   136   137    1
   240   233   230    1
   241   230   231    1
   242   231   232    2
