@<TRIPOS>MOLECULE
tmp/6b31A00.pdb
 201 191 0 0 0
SMALL
GASTEIGER

@<TRIPOS>ATOM
      1  N         29.9620    5.3130   -0.1330 N.3    22  GLN22      -0.1231
      2  CA        29.0150    4.5500   -0.9750 C.3    22  GLN22       0.1698
      3  C         27.5830    4.6900   -0.4780 C.2    22  GLN22       0.2592
      4  O         26.7480    5.3220   -1.1410 O.2    22  GLN22      -0.2718
      5  CB        29.4450    3.0790   -1.1230 C.3    22  GLN22       0.0381
      6  CG        28.5480    2.1610   -1.9270 C.3    22  GLN22       0.0905
      7  CD        29.3240    0.9880   -2.4880 C.2    22  GLN22       0.2608
      8  OE1       30.2830    0.5140   -1.8750 O.2    22  GLN22      -0.2717
      9  NE2       28.9300    0.5240   -3.6720 N.am   22  GLN22      -0.0878
     10  N         27.3010    4.0950    0.6780 N.am   23  LEU23      -0.1980
     11  CA        25.9990    4.2500    1.3100 C.3    23  LEU23       0.1596
     12  C         26.1170    4.9060    2.6810 C.2    23  LEU23       0.2287
     13  O         27.0120    4.5800    3.4640 O.2    23  LEU23      -0.2864
     14  CB        25.2370    2.9180    1.3490 C.3    23  LEU23       0.0297
     15  CG        24.3090    2.6720    0.1400 C.3    23  LEU23       0.0022
     16  CD1       24.9990    2.2130   -1.1500 C.3    23  LEU23       0.0001
     17  CD2       23.2330    1.6760    0.5280 C.3    23  LEU23       0.0001
     18  N         22.0190    2.0790    5.7840 N.3    28  LEU28      -0.1245
     19  CA        22.3660    0.7600    6.2490 C.3    28  LEU28       0.1561
     20  C         21.6510    0.3980    7.5550 C.2    28  LEU28       0.2260
     21  O         20.9840   -0.6330    7.6230 O.2    28  LEU28      -0.2867
     22  CB        23.8780    0.6150    6.3730 C.3    28  LEU28       0.0270
     23  CG        24.7380    0.7940    5.1170 C.3    28  LEU28       0.0019
     24  CD1       26.2010    0.8580    5.5300 C.3    28  LEU28       0.0001
     25  CD2       24.5430   -0.3130    4.0910 C.3    28  LEU28       0.0001
     26  N         29.1820  -10.8610   -7.4520 N.3    56  CYS56      -0.1235
     27  CA        30.0760  -10.4010   -6.4350 C.3    56  CYS56       0.1677
     28  C         31.2520   -9.6290   -7.0050 C.2    56  CYS56       0.2270
     29  O         31.6620   -8.6210   -6.4100 O.2    56  CYS56      -0.2867
     30  CB        30.5470  -11.5900   -5.6110 C.3    56  CYS56       0.0956
     31  SG        29.2250  -12.3030   -4.5990 S.3    56  CYS56      -0.0801
     32  N         29.9420   -6.1050   -7.8160 N.3    59  HIS59      -0.1226
     33  CA        29.8420   -5.3820   -6.5310 C.3    59  HIS59       0.1752
     34  C         31.1560   -4.9680   -5.9100 C.2    59  HIS59       0.2595
     35  O         31.2350   -3.9090   -5.2880 O.2    59  HIS59      -0.2718
     36  CB        29.1230   -6.2410   -5.5180 C.3    59  HIS59       0.0759
     37  CG        27.7020   -6.4780   -5.8610 C.ar   59  HIS59       0.0818
     38  ND1       26.7410   -5.5110   -5.7060 N.ar   59  HIS59      -0.2268
     39  CD2       27.0770   -7.5610   -6.3690 C.ar   59  HIS59       0.1154
     40  CE1       25.5740   -5.9960   -6.0840 C.ar   59  HIS59       0.1986
     41  NE2       25.7520   -7.2350   -6.4990 N.ar   59  HIS59      -0.2212
     42  N         32.1560   -5.8340   -6.0570 N.am   60  LEU60      -0.1980
     43  CA        33.4970   -5.5920   -5.5680 C.3    60  LEU60       0.1596
     44  C         34.1650   -4.5030   -6.3760 C.2    60  LEU60       0.2287
     45  O         34.8750   -3.6660   -5.8310 O.2    60  LEU60      -0.2864
     46  CB        34.3240   -6.8750   -5.6500 C.3    60  LEU60       0.0297
     47  CG        35.8030   -6.8420   -5.2490 C.3    60  LEU60       0.0022
     48  CD1       36.0790   -6.2550   -3.8660 C.3    60  LEU60       0.0001
     49  CD2       36.2980   -8.2640   -5.3140 C.3    60  LEU60       0.0001
     50  N         32.6170   -1.2610   -5.5260 N.3    63  ALA63      -0.1245
     51  CA        33.2350   -0.8870   -4.2560 C.3    63  ALA63       0.1562
     52  C         34.6490   -0.3480   -4.4350 C.2    63  ALA63       0.2260
     53  O         34.9390    0.7430   -3.9680 O.2    63  ALA63      -0.2867
     54  CB        33.2250   -2.0560   -3.2880 C.3    63  ALA63       0.0290
     55  N         41.4220   -3.6540   -1.6760 N.3    94  MET94      -0.1245
     56  CA        40.7970   -4.8820   -1.2080 C.3    94  MET94       0.1570
     57  C         40.5820   -4.9080    0.2970 C.2    94  MET94       0.2261
     58  O         39.4470   -5.0610    0.7910 O.2    94  MET94      -0.2867
     59  CB        41.6940   -6.0590   -1.5860 C.3    94  MET94       0.0387
     60  CG        41.0690   -6.9460   -2.6370 C.3    94  MET94       0.0595
     61  SD        39.4640   -7.5640   -2.0920 S.3    94  MET94      -0.1393
     62  CE        39.8900   -9.2860   -1.8560 C.3    94  MET94       0.0692
     63  N         38.0980   -2.4100    1.4730 N.3    97  VAL97      -0.1231
     64  CA        36.7360   -2.8620    1.1940 C.3    97  VAL97       0.1692
     65  C         36.2730   -3.8210    2.2910 C.2    97  VAL97       0.2591
     66  O         35.1150   -3.7600    2.7520 O.2    97  VAL97      -0.2718
     67  CB        36.6440   -3.4880   -0.2120 C.3    97  VAL97       0.0266
     68  CG1       35.3860   -4.3180   -0.3850 C.3    97  VAL97       0.0020
     69  CG2       36.7140   -2.4020   -1.2850 C.3    97  VAL97       0.0020
     70  N         37.1990   -4.6680    2.7290 N.am   98  LEU98      -0.1980
     71  CA        36.9430   -5.5920    3.8100 C.3    98  LEU98       0.1596
     72  C         36.5920   -4.8920    5.1410 C.2    98  LEU98       0.2287
     73  O         35.6690   -5.3190    5.8730 O.2    98  LEU98      -0.2864
     74  CB        38.1370   -6.5270    3.9700 C.3    98  LEU98       0.0297
     75  CG        37.9550   -7.7240    4.8950 C.3    98  LEU98       0.0022
     76  CD1       36.5980   -8.4200    4.7710 C.3    98  LEU98       0.0001
     77  CD2       39.0580   -8.7020    4.5820 C.3    98  LEU98       0.0001
     78  N         35.5500   -1.7470    5.3040 N.3   100  ARG100     -0.1231
     79  CA        34.2970   -1.0380    5.0010 C.3   100  ARG100      0.1694
     80  C         33.0770   -1.9120    5.1900 C.2   100  ARG100      0.2591
     81  O         31.9970   -1.3930    5.4480 O.2   100  ARG100     -0.2718
     82  CB        34.2940   -0.4900    3.5720 C.3   100  ARG100      0.0321
     83  CG        35.2270    0.6790    3.3630 C.3   100  ARG100      0.0489
     84  CD        34.8750    1.4980    2.1460 C.3   100  ARG100      0.2205
     85  NE        35.6800    2.7160    2.1230 N.pl3 100  ARG100     -0.0865
     86  CZ        35.4430    3.7740    1.3520 C.cat 100  ARG100      0.5346
     87  NH1       34.4070    3.7870    0.5120 N.pl3 100  ARG100      0.1354
     88  NH2       36.2460    4.8310    1.4380 N.pl3 100  ARG100      0.1354
     89  N         33.2550   -3.2290    5.0570 N.am  101  MET101     -0.1979
     90  CA        32.1390   -4.1730    5.1400 C.3   101  MET101      0.1605
     91  C         31.3750   -4.0790    6.4570 C.2   101  MET101      0.2287
     92  O         30.1420   -4.2220    6.4760 O.2   101  MET101     -0.2864
     93  CB        32.5830   -5.6160    4.8940 C.3   101  MET101      0.0413
     94  CG        31.4200   -6.5850    4.7700 C.3   101  MET101      0.0598
     95  SD        32.0330   -8.2680    4.7000 S.3   101  MET101     -0.1393
     96  CE        30.5200   -9.1990    4.4490 C.3   101  MET101      0.0692
     97  N         28.0320   -2.5920    6.9410 N.3   104  ALA104     -0.1245
     98  CA        26.8880   -3.3200    6.3950 C.3   104  ALA104      0.1562
     99  C         26.6050   -4.5870    7.1700 C.2   104  ALA104      0.2260
    100  O         25.6350   -5.3010    6.8860 O.2   104  ALA104     -0.2867
    101  CB        27.1150   -3.6450    4.9440 C.3   104  ALA104      0.0290
    102  N         24.2770   -9.3250    6.5120 N.3   112  VAL112     -0.1231
    103  CA        24.9090   -8.2630    5.7570 C.3   112  VAL112      0.1692
    104  C         24.0210   -7.8410    4.6050 C.2   112  VAL112      0.2592
    105  O         23.4200   -8.6790    3.9110 O.2   112  VAL112     -0.2718
    106  CB        26.3340   -8.6530    5.2810 C.3   112  VAL112      0.0266
    107  CG1       26.3030   -9.7980    4.2750 C.3   112  VAL112      0.0020
    108  CG2       27.0730   -7.4540    4.7120 C.3   112  VAL112      0.0020
    109  N         23.9390   -6.5250    4.4410 N.am  113  PHE113     -0.1962
    110  CA        23.2850   -5.9040    3.3050 C.3   113  PHE113      0.1771
    111  C         23.9420   -6.3820    2.0090 C.2   113  PHE113      0.2620
    112  O         25.1230   -6.1190    1.7360 O.2   113  PHE113     -0.2715
    113  CB        23.3590   -4.3840    3.4290 C.3   113  PHE113      0.0574
    114  CG        22.3930   -3.6470    2.5440 C.ar  113  PHE113     -0.0200
    115  CD1       21.0590   -3.4650    2.9370 C.ar  113  PHE113     -0.0042
    116  CD2       22.8160   -3.0980    1.3260 C.ar  113  PHE113     -0.0042
    117  CE1       20.1620   -2.7700    2.1260 C.ar  113  PHE113     -0.0003
    118  CE2       21.9250   -2.4080    0.5100 C.ar  113  PHE113     -0.0003
    119  CZ        20.5960   -2.2410    0.9120 C.ar  113  PHE113     -0.0000
    120  N         23.1600   -7.1390    1.2520 N.am  114  PHE114     -0.1960
    121  CA        23.5410   -7.5910   -0.0690 C.3   114  PHE114      0.1771
    122  C         22.3600   -7.3780   -1.0020 C.2   114  PHE114      0.2619
    123  O         21.2660   -7.8920   -0.7620 O.2   114  PHE114     -0.2715
    124  CB        23.9550   -9.0720   -0.0400 C.3   114  PHE114      0.0574
    125  CG        24.5250   -9.5610   -1.3300 C.ar  114  PHE114     -0.0200
    126  CD1       25.7870   -9.1460   -1.7530 C.ar  114  PHE114     -0.0042
    127  CD2       23.7970  -10.4180   -2.1410 C.ar  114  PHE114     -0.0042
    128  CE1       26.3180   -9.5860   -2.9610 C.ar  114  PHE114     -0.0003
    129  CE2       24.3290  -10.8720   -3.3520 C.ar  114  PHE114     -0.0003
    130  CZ        25.5930  -10.4520   -3.7650 C.ar  114  PHE114     -0.0000
    131  N         22.5860   -6.5900   -2.0470 N.am  115  GLU115     -0.1977
    132  CA        21.5940   -6.3460   -3.1080 C.3   115  GLU115      0.1602
    133  C         20.2170   -5.9670   -2.5780 C.2   115  GLU115      0.2287
    134  O         19.2120   -6.4850   -3.0620 O.2   115  GLU115     -0.2864
    135  CB        21.5150   -7.5380   -4.0780 C.3   115  GLU115      0.0415
    136  CG        22.8440   -7.8410   -4.7620 C.3   115  GLU115      0.1163
    137  CD        22.7510   -8.8760   -5.8750 C.2   115  GLU115      0.3649
    138  OE1       21.9980   -9.8640   -5.7350 O.co2 115  GLU115     -0.2457
    139  OE2       23.4480   -8.7080   -6.9030 O.co2 115  GLU115     -0.2457
    140  N         25.6290  -17.0030    0.3490 N.3   124  PHE124     -0.1241
    141  CA        26.7810  -17.1300   -0.5150 C.3   124  PHE124      0.1605
    142  C         27.2090  -18.5800   -0.6360 C.2   124  PHE124      0.2264
    143  O         28.3490  -18.8690   -1.0170 O.2   124  PHE124     -0.2867
    144  CB        27.9190  -16.2760    0.0310 C.3   124  PHE124      0.0534
    145  CG        27.5940  -14.8170    0.1080 C.ar  124  PHE124     -0.0203
    146  CD1       27.0530  -14.2670    1.2790 C.ar  124  PHE124     -0.0042
    147  CD2       27.8230  -13.9890   -0.9840 C.ar  124  PHE124     -0.0042
    148  CE1       26.7530  -12.9150    1.3520 C.ar  124  PHE124     -0.0003
    149  CE2       27.5190  -12.6400   -0.9230 C.ar  124  PHE124     -0.0003
    150  CZ        26.9900  -12.0980    0.2460 C.ar  124  PHE124     -0.0000
    151  N         29.3370  -20.1160   -3.9300 N.3   127  LEU127     -0.1245
    152  CA        30.7710  -19.9360   -4.1490 C.3   127  LEU127      0.1561
    153  C         31.5860  -21.1010   -3.6000 C.2   127  LEU127      0.2260
    154  O         32.7690  -21.2430   -3.9260 O.2   127  LEU127     -0.2867
    155  CB        31.2410  -18.6510   -3.4680 C.3   127  LEU127      0.0270
    156  CG        30.3610  -17.4190   -3.6450 C.3   127  LEU127      0.0019
    157  CD1       30.6080  -16.4380   -2.5220 C.3   127  LEU127      0.0001
    158  CD2       30.5560  -16.7550   -4.9990 C.3   127  LEU127      0.0001
    159  N         34.1560  -17.4640    3.5690 N.3   133  ILE133     -0.1245
    160  CA        32.9860  -16.5870    3.7190 C.3   133  ILE133      0.1561
    161  C         32.7360  -16.2650    5.1980 C.2   133  ILE133      0.2260
    162  O         32.4740  -15.1210    5.5330 O.2   133  ILE133     -0.2867
    163  CB        31.6830  -17.1660    3.0800 C.3   133  ILE133      0.0252
    164  CG1       31.9510  -17.8700    1.7360 C.3   133  ILE133      0.0019
    165  CG2       30.6200  -16.0840    2.9100 C.3   133  ILE133      0.0019
    166  CD1       30.9390  -18.9590    1.3470 C.3   133  ILE133      0.0001
    167  N         35.4810  -14.1950    7.0240 N.3   136  ILE136     -0.1231
    168  CA        35.1170  -12.8370    6.5780 C.3   136  ILE136      0.1692
    169  C         33.9550  -12.2750    7.4180 C.2   136  ILE136      0.2592
    170  O         33.9800  -11.1040    7.8260 O.2   136  ILE136     -0.2718
    171  CB        34.7950  -12.7850    5.0480 C.3   136  ILE136      0.0266
    172  CG1       36.0730  -12.9520    4.2250 C.3   136  ILE136      0.0019
    173  CG2       34.0660  -11.4900    4.6350 C.3   136  ILE136      0.0020
    174  CD1       35.8220  -13.2710    2.7650 C.3   136  ILE136      0.0001
    175  N         32.9470  -13.1050    7.6720 N.am  137  PHE137     -0.1976
    176  CA        31.8420  -12.7080    8.5250 C.3   137  PHE137      0.1639
    177  C         32.3140  -12.4230    9.9490 C.2   137  PHE137      0.2290
    178  O         31.8530  -11.4550   10.5760 O.2   137  PHE137     -0.2864
    179  CB        30.7230  -13.7490    8.4890 C.3   137  PHE137      0.0560
    180  CG        29.6080  -13.4100    7.5280 C.ar  137  PHE137     -0.0200
    181  CD1       29.8580  -13.2100    6.1730 C.ar  137  PHE137     -0.0042
    182  CD2       28.2980  -13.3000    7.9770 C.ar  137  PHE137     -0.0042
    183  CE1       28.8270  -12.8930    5.2950 C.ar  137  PHE137     -0.0003
    184  CE2       27.2620  -12.9910    7.1020 C.ar  137  PHE137     -0.0003
    185  CZ        27.5280  -12.7820    5.7650 C.ar  137  PHE137     -0.0000
    186  N         42.2110  -11.3060    2.5890 N.3   212  CYS212     -0.1235
    187  CA        42.0920  -10.7940    1.2250 C.3   212  CYS212      0.1677
    188  C         42.8950  -11.5900    0.2220 C.2   212  CYS212      0.2270
    189  O         42.4470  -11.7690   -0.9080 O.2   212  CYS212     -0.2867
    190  CB        42.4770   -9.3380    1.1800 C.3   212  CYS212      0.0956
    191  SG        41.1700   -8.4010    1.9730 S.3   212  CYS212     -0.0801
    192  N         40.7510  -14.4640   -0.6960 N.3   215  HIS215     -0.1241
    193  CA        39.6250  -14.0370   -1.5000 C.3   215  HIS215      0.1621
    194  C         40.0040  -13.8280   -2.9750 C.2   215  HIS215      0.2264
    195  O         39.2130  -14.1700   -3.8510 O.2   215  HIS215     -0.2867
    196  CB        39.0350  -12.7660   -0.8900 C.3   215  HIS215      0.0745
    197  CG        37.6980  -12.3920   -1.4420 C.ar  215  HIS215      0.0817
    198  ND1       37.5440  -11.7420   -2.6470 N.ar  215  HIS215     -0.2268
    199  CD2       36.4500  -12.5630   -0.9450 C.ar  215  HIS215      0.1154
    200  CE1       36.2590  -11.5360   -2.8720 C.ar  215  HIS215      0.1986
    201  NE2       35.5750  -12.0230   -1.8540 N.ar  215  HIS215     -0.2212
@<TRIPOS>BOND
     1    32    33    1
     2    26    27    1
     3    28    27    1
     4    28    29    2
     5   139   137   ar
     6    33    34    1
     7    33    36    1
     8    41    39   ar
     9    41    40   ar
    10    27    30    1
    11    44    45    2
    12    44    43    1
    13    39    37   ar
    14    40    38   ar
    15    42    34   am
    16    42    43    1
    17    34    35    2
    18   137   138   ar
    19   137   136    1
    20    37    38   ar
    21    37    36    1
    22    46    43    1
    23    46    47    1
    24    30    31    1
    25    50    51    1
    26    49    47    1
    27    47    48    1
    28   158   156    1
    29   136   135    1
    30    52    51    1
    31    52    53    2
    32    51    54    1
    33   152   151    1
    34   152   153    1
    35   152   155    1
    36   135   132    1
    37   154   153    2
    38   195   194    2
    39   130   129   ar
    40   130   128   ar
    41     9     7   am
    42   156   155    1
    43   156   157    1
    44   129   127   ar
    45   132   133    1
    46   132   131    1
    47   134   133    2
    48   194   193    1
    49   128   126   ar
    50   200   198   ar
    51   200   201   ar
    52   198   197   ar
    53    60    61    1
    54    60    59    1
    55     7     6    1
    56     7     8    2
    57   127   125   ar
    58    61    62    1
    59   131   122   am
    60     6     5    1
    61   201   199   ar
    62   126   125   ar
    63    55    56    1
    64    59    56    1
    65   193   196    1
    66   193   192    1
    67   197   199   ar
    68   197   196    1
    69   125   124    1
    70    69    67    1
    71    56    57    1
    72    16    15    1
    73     4     3    2
    74     5     2    1
    75   143   142    2
    76   122   123    2
    77   122   121    1
    78   147   149   ar
    79   147   145   ar
    80     2     3    1
    81     2     1    1
    82   149   150   ar
    83   189   188    2
    84   142   141    1
    85   141   144    1
    86   141   140    1
    87     3    10   am
    88    68    67    1
    89    67    64    1
    90   121   124    1
    91   121   120    1
    92   144   145    1
    93   145   146   ar
    94    15    17    1
    95    15    14    1
    96   188   187    1
    97   150   148   ar
    98    57    58    2
    99   118   119   ar
   100   118   116   ar
   101    87    86    1
   102    10    11    1
   103   119   117   ar
   104   190   187    1
   105   190   191    1
   106    64    63    1
   107    64    65    1
   108   187   186    1
   109   120   111   am
   110   146   148   ar
   111    11    14    1
   112    11    12    1
   113   116   114   ar
   114   166   164    1
   115    86    88    1
   116    86    85    2
   117   112   111    2
   118   164   163    1
   119   111   110    1
   120    85    84    1
   121   117   115   ar
   122    84    83    1
   123    65    70   am
   124    65    66    2
   125   114   115   ar
   126   114   113    1
   127    12    13    2
   128    70    71    1
   129   174   172    1
   130   165   163    1
   131   163   160    1
   132   110   113    1
   133   110   109    1
   134    83    82    1
   135   159   160    1
   136    82    79    1
   137   160   161    1
   138    71    74    1
   139    71    72    1
   140   105   104    2
   141    74    75    1
   142    25    23    1
   143   172   171    1
   144   107   106    1
   145   109   104   am
   146    96    95    1
   147    77    75    1
   148   104   103    1
   149   173   171    1
   150    95    94    1
   151   108   106    1
   152    94    93    1
   153    76    75    1
   154    93    90    1
   155   101    98    1
   156    79    80    1
   157    79    78    1
   158   171   168    1
   159    89    90    1
   160    89    80   am
   161    23    24    1
   162    23    22    1
   163    90    91    1
   164    72    73    2
   165    80    81    2
   166   161   162    2
   167   106   103    1
   168   183   185   ar
   169   183   181   ar
   170   103   102    1
   171   185   184   ar
   172    18    19    1
   173   181   180   ar
   174    19    22    1
   175    19    20    1
   176    98    97    1
   177    98    99    1
   178    91    92    2
   179   168   167    1
   180   168   169    1
   181   100    99    2
   182   184   182   ar
   183   169   175   am
   184   169   170    2
   185   180   182   ar
   186   180   179    1
   187    20    21    2
   188   175   176    1
   189   179   176    1
   190   176   177    1
   191   177   178    2
