@<TRIPOS>MOLECULE
tmp/6b33B00.pdb
 218 208 0 0 0
SMALL
GASTEIGER

@<TRIPOS>ATOM
      1  N        -29.5090  111.9530  -27.9690 N.3    21  CYS21      -0.1221
      2  CA       -30.6400  112.2130  -28.8680 C.3    21  CYS21       0.1808
      3  C        -31.9350  111.7050  -28.2980 C.2    21  CYS21       0.2601
      4  O        -32.9620  111.8690  -28.9320 O.2    21  CYS21      -0.2717
      5  CB       -30.4310  111.5820  -30.2470 C.3    21  CYS21       0.0970
      6  SG       -30.3490  109.7870  -30.1810 S.3    21  CYS21      -0.0800
      7  N        -31.8850  111.0220  -27.1610 N.am   22  GLN22      -0.1965
      8  CA       -33.0650  110.7420  -26.3450 C.3    22  GLN22       0.1733
      9  C        -33.8420  109.5270  -26.8420 C.2    22  GLN22       0.2616
     10  O        -34.0920  108.6060  -26.0780 O.2    22  GLN22      -0.2715
     11  CB       -33.9690  111.9670  -26.2360 C.3    22  GLN22       0.0408
     12  CG       -34.9990  111.8530  -25.1370 C.3    22  GLN22       0.0908
     13  CD       -35.9730  113.0190  -25.1210 C.2    22  GLN22       0.2608
     14  OE1      -35.8630  113.9620  -25.9030 O.2    22  GLN22      -0.2717
     15  NE2      -36.9240  112.9550  -24.2320 N.am   22  GLN22      -0.0878
     16  N        -34.2510  109.5390  -28.1040 N.am   23  LEU23      -0.1977
     17  CA       -34.7800  108.3420  -28.7610 C.3    23  LEU23       0.1596
     18  C        -34.0250  108.1260  -30.0540 C.2    23  LEU23       0.2287
     19  O        -33.7230  109.0920  -30.7700 O.2    23  LEU23      -0.2864
     20  CB       -36.2950  108.4700  -29.0260 C.3    23  LEU23       0.0297
     21  CG       -37.1810  108.4170  -27.7620 C.3    23  LEU23       0.0022
     22  CD1      -38.6410  108.7080  -28.0870 C.3    23  LEU23       0.0001
     23  CD2      -37.0520  107.0860  -27.0180 C.3    23  LEU23       0.0001
     24  N        -38.0970  105.4120  -33.5280 N.3    28  LEU28      -0.1245
     25  CA       -39.2170  106.2840  -33.8710 C.3    28  LEU28       0.1561
     26  C        -39.8410  105.8720  -35.2170 C.2    28  LEU28       0.2260
     27  O        -41.0620  105.7590  -35.3240 O.2    28  LEU28      -0.2867
     28  CB       -38.7630  107.7500  -33.8760 C.3    28  LEU28       0.0270
     29  CG       -38.3890  108.3640  -32.5170 C.3    28  LEU28       0.0019
     30  CD1      -37.6320  109.6790  -32.6670 C.3    28  LEU28       0.0001
     31  CD2      -39.6250  108.5970  -31.6820 C.3    28  LEU28       0.0001
     32  N        -46.8450  117.4280  -20.1220 N.3    56  CYS56      -0.1235
     33  CA       -46.0570  118.1330  -21.1200 C.3    56  CYS56       0.1677
     34  C        -44.8570  118.8110  -20.5030 C.2    56  CYS56       0.2270
     35  O        -43.8080  118.7880  -21.1180 O.2    56  CYS56      -0.2867
     36  CB       -46.9110  119.1170  -21.9130 C.3    56  CYS56       0.0956
     37  SG       -48.0450  118.2210  -22.9950 S.3    56  CYS56      -0.0801
     38  N        -42.3180  115.9520  -19.8360 N.3    59  HIS59      -0.1226
     39  CA       -41.6420  115.5900  -21.0900 C.3    59  HIS59       0.1752
     40  C        -40.6850  116.6840  -21.5800 C.2    59  HIS59       0.2595
     41  O        -39.5640  116.3930  -21.9940 O.2    59  HIS59      -0.2718
     42  CB       -42.6470  115.2630  -22.1790 C.3    59  HIS59       0.0759
     43  CG       -43.5530  114.1390  -21.8170 C.ar   59  HIS59       0.0818
     44  ND1      -43.0840  112.8730  -21.5350 N.ar   59  HIS59      -0.2268
     45  CD2      -44.8950  114.0950  -21.6530 C.ar   59  HIS59       0.1154
     46  CE1      -44.1010  112.1000  -21.2120 C.ar   59  HIS59       0.1986
     47  NE2      -45.2100  112.8200  -21.2780 N.ar   59  HIS59      -0.2212
     48  N        -41.1330  117.9290  -21.5190 N.am   60  LEU60      -0.1980
     49  CA       -40.2940  119.0480  -21.8790 C.3    60  LEU60       0.1596
     50  C        -39.0630  119.1570  -20.9930 C.2    60  LEU60       0.2287
     51  O        -37.9920  119.4490  -21.4780 O.2    60  LEU60      -0.2864
     52  CB       -41.0690  120.3550  -21.8500 C.3    60  LEU60       0.0297
     53  CG       -40.2550  121.6120  -22.2140 C.3    60  LEU60       0.0022
     54  CD1      -39.5980  121.5120  -23.6030 C.3    60  LEU60       0.0001
     55  CD2      -41.1350  122.8570  -22.1120 C.3    60  LEU60       0.0001
     56  N        -36.6540  116.5970  -22.0260 N.3    63  ALA63      -0.1245
     57  CA       -36.0290  116.8660  -23.2990 C.3    63  ALA63       0.1562
     58  C        -34.9060  117.8960  -23.1620 C.2    63  ALA63       0.2260
     59  O        -33.8330  117.7770  -23.7920 O.2    63  ALA63      -0.2867
     60  CB       -37.0680  117.3440  -24.2860 C.3    63  ALA63       0.0290
     61  N        -34.9480  125.2590  -25.5360 N.3    94  MET94      -0.1245
     62  CA       -36.2860  125.0480  -26.1050 C.3    94  MET94       0.1570
     63  C        -36.3110  125.0390  -27.6180 C.2    94  MET94       0.2261
     64  O        -37.0100  124.2400  -28.2510 O.2    94  MET94      -0.2867
     65  CB       -37.2150  126.1390  -25.6570 C.3    94  MET94       0.0387
     66  CG       -37.6040  126.0350  -24.1960 C.3    94  MET94       0.0595
     67  SD       -39.3380  125.6600  -24.0150 S.3    94  MET94      -0.1393
     68  CE       -40.1620  127.0090  -24.8330 C.3    94  MET94       0.0692
     69  N        -35.1970  121.6810  -28.6770 N.3    97  VAL97      -0.1231
     70  CA       -36.2220  120.6670  -28.5160 C.3    97  VAL97       0.1692
     71  C        -37.2160  120.7360  -29.6640 C.2    97  VAL97       0.2591
     72  O        -37.6300  119.6980  -30.1760 O.2    97  VAL97      -0.2718
     73  CB       -36.9790  120.7860  -27.1760 C.3    97  VAL97       0.0266
     74  CG1      -38.0680  119.7190  -27.0930 C.3    97  VAL97       0.0020
     75  CG2      -36.0400  120.6400  -25.9810 C.3    97  VAL97       0.0020
     76  N        -37.6020  121.9470  -30.0590 N.am   98  LEU98      -0.1980
     77  CA       -38.5320  122.1320  -31.1770 C.3    98  LEU98       0.1596
     78  C        -37.9720  121.5900  -32.4920 C.2    98  LEU98       0.2287
     79  O        -38.7010  120.9680  -33.2460 O.2    98  LEU98      -0.2864
     80  CB       -38.8780  123.5940  -31.3430 C.3    98  LEU98       0.0297
     81  CG       -39.7340  123.9950  -32.5550 C.3    98  LEU98       0.0022
     82  CD1      -41.0870  123.2990  -32.5760 C.3    98  LEU98       0.0001
     83  CD2      -39.9320  125.5060  -32.5790 C.3    98  LEU98       0.0001
     84  N        -35.5270  119.2620  -32.7200 N.3   100  ARG100     -0.1231
     85  CA       -35.4930  117.8150  -32.4450 C.3   100  ARG100      0.1694
     86  C        -36.8320  117.0860  -32.6050 C.2   100  ARG100      0.2591
     87  O        -36.8520  115.8600  -32.8150 O.2   100  ARG100     -0.2718
     88  CB       -34.9780  117.5310  -31.0350 C.3   100  ARG100      0.0321
     89  CG       -33.4750  117.7140  -30.8500 C.3   100  ARG100      0.0489
     90  CD       -33.0930  117.5240  -29.3920 C.3   100  ARG100      0.2205
     91  NE       -31.6590  117.3040  -29.2200 N.pl3 100  ARG100     -0.0865
     92  CZ       -31.0860  116.4760  -28.3410 C.cat 100  ARG100      0.5346
     93  NH1      -31.7920  115.7230  -27.5140 N.pl3 100  ARG100      0.1354
     94  NH2      -29.7680  116.3850  -28.3080 N.pl3 100  ARG100      0.1354
     95  N        -37.9410  117.8080  -32.5210 N.am  101  MET101     -0.1979
     96  CA       -39.2420  117.1640  -32.6280 C.3   101  MET101      0.1605
     97  C        -39.5290  116.6140  -34.0350 C.2   101  MET101      0.2287
     98  O        -40.3160  115.6610  -34.1710 O.2   101  MET101     -0.2864
     99  CB       -40.3240  118.1340  -32.2030 C.3   101  MET101      0.0413
    100  CG       -41.7360  117.7290  -32.5690 C.3   101  MET101      0.0598
    101  SD       -42.8350  119.0760  -32.1810 S.3   101  MET101     -0.1393
    102  CE       -44.3640  118.3890  -32.8030 C.3   101  MET101      0.0692
    103  N        -37.9280  114.6990  -35.8670 N.3   103  ARG103     -0.1231
    104  CA       -37.6290  113.2730  -35.8760 C.3   103  ARG103      0.1694
    105  C        -38.7860  112.4170  -35.4040 C.2   103  ARG103      0.2591
    106  O        -39.0190  111.3540  -35.9600 O.2   103  ARG103     -0.2718
    107  CB       -36.4480  112.9700  -34.9670 C.3   103  ARG103      0.0321
    108  CG       -35.1470  113.6070  -35.4110 C.3   103  ARG103      0.0489
    109  CD       -34.1640  113.6710  -34.2650 C.3   103  ARG103      0.2205
    110  NE       -33.4090  112.4210  -34.0970 N.pl3 103  ARG103     -0.0865
    111  CZ       -33.6400  111.4790  -33.1900 C.cat 103  ARG103      0.5346
    112  NH1      -34.6490  111.5640  -32.3240 N.pl3 103  ARG103      0.1354
    113  NH2      -32.8560  110.4180  -33.1590 N.pl3 103  ARG103      0.1354
    114  N        -39.4890  112.8600  -34.3660 N.am  104  ALA104     -0.1980
    115  CA       -40.6890  112.1520  -33.8710 C.3   104  ALA104      0.1597
    116  C        -41.9840  112.4580  -34.6450 C.2   104  ALA104      0.2287
    117  O        -43.0450  112.0170  -34.2530 O.2   104  ALA104     -0.2864
    118  CB       -40.8850  112.4750  -32.4020 C.3   104  ALA104      0.0319
    119  N        -47.4090  112.7790  -34.1940 N.3   112  VAL112     -0.1231
    120  CA       -46.1500  112.8630  -33.4370 C.3   112  VAL112      0.1692
    121  C        -46.1300  111.7990  -32.3470 C.2   112  VAL112      0.2592
    122  O        -47.1790  111.4000  -31.8360 O.2   112  VAL112     -0.2718
    123  CB       -45.9460  114.2520  -32.7830 C.3   112  VAL112      0.0266
    124  CG1      -46.8910  114.4650  -31.5860 C.3   112  VAL112      0.0020
    125  CG2      -44.4800  114.4590  -32.3800 C.3   112  VAL112      0.0020
    126  N        -44.9310  111.3540  -31.9890 N.am  113  PHE113     -0.1962
    127  CA       -44.7390  110.3490  -30.9590 C.3   113  PHE113      0.1771
    128  C        -44.9350  111.0160  -29.5980 C.2   113  PHE113      0.2620
    129  O        -44.3420  112.0510  -29.3130 O.2   113  PHE113     -0.2715
    130  CB       -43.3400  109.7300  -31.0900 C.3   113  PHE113      0.0574
    131  CG       -43.1320  108.5040  -30.2420 C.ar  113  PHE113     -0.0200
    132  CD1      -43.7580  107.3130  -30.5560 C.ar  113  PHE113     -0.0042
    133  CD2      -42.3110  108.5440  -29.1180 C.ar  113  PHE113     -0.0042
    134  CE1      -43.5770  106.1900  -29.7610 C.ar  113  PHE113     -0.0003
    135  CE2      -42.1180  107.4200  -28.3190 C.ar  113  PHE113     -0.0003
    136  CZ       -42.7480  106.2370  -28.6410 C.ar  113  PHE113     -0.0000
    137  N        -45.7930  110.4360  -28.7790 N.am  114  PHE114     -0.1960
    138  CA       -46.1160  110.9940  -27.4820 C.3   114  PHE114      0.1771
    139  C        -46.5210  109.8620  -26.5780 C.2   114  PHE114      0.2619
    140  O        -47.4910  109.1520  -26.8620 O.2   114  PHE114     -0.2715
    141  CB       -47.2510  111.9990  -27.6090 C.3   114  PHE114      0.0574
    142  CG       -47.6050  112.6740  -26.3230 C.ar  114  PHE114     -0.0200
    143  CD1      -46.7180  113.5460  -25.7240 C.ar  114  PHE114     -0.0042
    144  CD2      -48.8190  112.4420  -25.7170 C.ar  114  PHE114     -0.0042
    145  CE1      -47.0420  114.1820  -24.5450 C.ar  114  PHE114     -0.0003
    146  CE2      -49.1520  113.0660  -24.5330 C.ar  114  PHE114     -0.0003
    147  CZ       -48.2600  113.9340  -23.9420 C.ar  114  PHE114     -0.0000
    148  N        -45.7450  109.6620  -25.5160 N.am  115  GLU115     -0.1977
    149  CA       -46.0000  108.5880  -24.5370 C.3   115  GLU115      0.1602
    150  C        -46.2670  107.2260  -25.1750 C.2   115  GLU115      0.2287
    151  O        -47.2630  106.5790  -24.8780 O.2   115  GLU115     -0.2864
    152  CB       -47.1410  108.9910  -23.5920 C.3   115  GLU115      0.0415
    153  CG       -46.8700  110.3230  -22.8910 C.3   115  GLU115      0.1163
    154  CD       -47.9020  110.6890  -21.8630 C.2   115  GLU115      0.3649
    155  OE1      -49.0300  110.1530  -21.9050 O.co2 115  GLU115     -0.2457
    156  OE2      -47.5850  111.5250  -20.9980 O.co2 115  GLU115     -0.2457
    157  N        -53.8750  117.0090  -27.9360 N.3   124  PHE124     -0.1241
    158  CA       -53.5800  118.0760  -26.9880 C.3   124  PHE124      0.1605
    159  C        -54.7230  119.0820  -26.8750 C.2   124  PHE124      0.2264
    160  O        -54.5320  120.1940  -26.4120 O.2   124  PHE124     -0.2867
    161  CB       -52.2880  118.7820  -27.4250 C.3   124  PHE124      0.0534
    162  CG       -51.1370  117.8430  -27.6660 C.ar  124  PHE124     -0.0203
    163  CD1      -50.8960  117.3310  -28.9230 C.ar  124  PHE124     -0.0042
    164  CD2      -50.3050  117.4470  -26.6130 C.ar  124  PHE124     -0.0042
    165  CE1      -49.8420  116.4500  -29.1430 C.ar  124  PHE124     -0.0003
    166  CE2      -49.2640  116.5620  -26.8220 C.ar  124  PHE124     -0.0003
    167  CZ       -49.0310  116.0650  -28.0970 C.ar  124  PHE124     -0.0000
    168  N        -55.2850  121.2900  -23.5410 N.3   127  LEU127     -0.1245
    169  CA       -54.4260  122.4590  -23.3800 C.3   127  LEU127      0.1561
    170  C        -55.0600  123.7790  -23.8440 C.2   127  LEU127      0.2260
    171  O        -54.6770  124.8310  -23.3660 O.2   127  LEU127     -0.2867
    172  CB       -53.1410  122.2780  -24.1650 C.3   127  LEU127      0.0270
    173  CG       -52.1720  121.2170  -23.7310 C.3   127  LEU127      0.0019
    174  CD1      -50.9510  121.2850  -24.6260 C.3   127  LEU127      0.0001
    175  CD2      -51.7870  121.4490  -22.2930 C.3   127  LEU127      0.0001
    176  N        -50.1820  124.8870  -31.1730 N.3   133  ILE133     -0.1245
    177  CA       -49.9040  123.5050  -31.4700 C.3   133  ILE133      0.1561
    178  C        -49.9500  123.1890  -32.9520 C.2   133  ILE133      0.2260
    179  O        -49.0850  122.4500  -33.4320 O.2   133  ILE133     -0.2867
    180  CB       -50.8160  122.5770  -30.6300 C.3   133  ILE133      0.0252
    181  CG1      -50.2740  122.6120  -29.1960 C.3   133  ILE133      0.0019
    182  CG2      -50.8190  121.1460  -31.1640 C.3   133  ILE133      0.0019
    183  CD1      -51.1710  121.9840  -28.1800 C.3   133  ILE133      0.0001
    184  N        -46.8770  124.6060  -34.4050 N.3   136  ILE136     -0.1231
    185  CA       -45.7720  123.6960  -34.0470 C.3   136  ILE136      0.1692
    186  C        -45.7460  122.4440  -34.9090 C.2   136  ILE136      0.2592
    187  O        -44.6860  122.0300  -35.3770 O.2   136  ILE136     -0.2718
    188  CB       -45.8040  123.2920  -32.5680 C.3   136  ILE136      0.0266
    189  CG1      -45.3620  124.4710  -31.7280 C.3   136  ILE136      0.0019
    190  CG2      -44.8550  122.1200  -32.2670 C.3   136  ILE136      0.0020
    191  CD1      -45.5760  124.2390  -30.2560 C.3   136  ILE136      0.0001
    192  N        -46.9070  121.8420  -35.1040 N.am  137  PHE137     -0.1976
    193  CA       -47.0500  120.7560  -36.0810 C.3   137  PHE137      0.1639
    194  C        -46.6810  121.1690  -37.5130 C.2   137  PHE137      0.2290
    195  O        -46.0880  120.3740  -38.2330 O.2   137  PHE137     -0.2864
    196  CB       -48.4550  120.1670  -36.0490 C.3   137  PHE137      0.0560
    197  CG       -48.6340  119.0770  -35.0210 C.ar  137  PHE137     -0.0200
    198  CD1      -48.4180  119.3270  -33.6600 C.ar  137  PHE137     -0.0042
    199  CD2      -49.0390  117.8060  -35.4040 C.ar  137  PHE137     -0.0042
    200  CE1      -48.6110  118.3380  -32.7220 C.ar  137  PHE137     -0.0003
    201  CE2      -49.2220  116.8090  -34.4620 C.ar  137  PHE137     -0.0003
    202  CZ       -49.0140  117.0810  -33.1170 C.ar  137  PHE137     -0.0000
    203  N        -40.9960  129.5840  -29.9660 N.3   212  CYS212     -0.1235
    204  CA       -40.7190  129.2080  -28.5720 C.3   212  CYS212      0.1677
    205  C        -41.1540  130.2720  -27.5780 C.2   212  CYS212      0.2270
    206  O        -41.5220  129.9180  -26.4600 O.2   212  CYS212     -0.2867
    207  CB       -39.2630  128.7670  -28.3570 C.3   212  CYS212      0.0956
    208  SG       -39.0160  127.0820  -29.0180 S.3   212  CYS212     -0.0801
    209  N        -44.7930  129.6090  -27.2730 N.3   215  HIS215     -0.1241
    210  CA       -44.9210  128.4220  -26.3930 C.3   215  HIS215      0.1621
    211  C        -44.8480  128.7880  -24.8810 C.2   215  HIS215      0.2264
    212  O        -45.7390  128.4030  -24.1100 O.2   215  HIS215     -0.2867
    213  CB       -43.8930  127.3340  -26.7650 C.3   215  HIS215      0.0745
    214  CG       -44.2850  125.9470  -26.3350 C.ar  215  HIS215      0.0817
    215  ND1      -44.4100  125.5720  -25.0150 N.ar  215  HIS215     -0.2268
    216  CD2      -44.5500  124.8340  -27.0590 C.ar  215  HIS215      0.1154
    217  CE1      -44.7630  124.2990  -24.9460 C.ar  215  HIS215      0.1986
    218  NE2      -44.8460  123.8230  -26.1730 N.ar  215  HIS215     -0.2212
@<TRIPOS>BOND
     1   195   194    2
     2   194   193    1
     3   193   196    1
     4   193   192    1
     5   196   197    1
     6   106   105    2
     7   104   103    1
     8   104   105    1
     9   104   107    1
    10   108   107    1
    11   108   109    1
    12   199   197   ar
    13   199   201   ar
    14   105   114   am
    15   187   186    2
    16    27    26    2
    17    26    25    1
    18   192   186   am
    19   197   198   ar
    20   186   185    1
    21   116   117    2
    22   116   115    1
    23   201   202   ar
    24   184   185    1
    25   114   115    1
    26   109   110    1
    27   119   120    1
    28    98    97    2
    29   110   111    2
    30   185   188    1
    31    97    96    1
    32    28    25    1
    33    28    29    1
    34    25    24    1
    35   115   118    1
    36   198   200   ar
    37   120   123    1
    38   120   121    1
    39   179   178    2
    40    79    78    2
    41   111   113    1
    42   111   112    1
    43   202   200   ar
    44   178   177    1
    45    87    86    2
    46   102   101    1
    47   123   125    1
    48   123   124    1
    49    84    85    1
    50    30    29    1
    51    96    95    1
    52    96    99    1
    53    86    95   am
    54    86    85    1
    55    83    81    1
    56    82    81    1
    57   100    99    1
    58   100   101    1
    59   188   190    1
    60   188   189    1
    61    81    80    1
    62    29    31    1
    63    78    77    1
    64    85    88    1
    65   121   126   am
    66   121   122    2
    67   126   127    1
    68   189   191    1
    69   177   176    1
    70   177   180    1
    71    80    77    1
    72    77    76    1
    73   182   180    1
    74   130   127    1
    75   130   131    1
    76    88    89    1
    77   127   128    1
    78    89    90    1
    79    19    18    2
    80   180   181    1
    81   132   131   ar
    82   132   134   ar
    83     5     6    1
    84     5     2    1
    85   131   133   ar
    86    72    71    2
    87    76    71   am
    88    18    17    1
    89   203   204    1
    90   134   136   ar
    91    71    70    1
    92   128   129    2
    93   128   137   am
    94    90    91    1
    95    91    92    2
    96   181   183    1
    97   165   163   ar
    98   165   167   ar
    99   133   135   ar
   100    20    17    1
   101    20    21    1
   102   208   207    1
   103     4     3    2
   104   163   162   ar
   105     2     3    1
   106     2     1    1
   107   137   138    1
   108    17    16    1
   109    69    70    1
   110   136   135   ar
   111   204   207    1
   112   204   205    1
   113    70    73    1
   114    92    94    1
   115    92    93    1
   116     3     7   am
   117    64    63    2
   118    16     9   am
   119   167   166   ar
   120    22    21    1
   121   157   158    1
   122    21    23    1
   123   162   161    1
   124   162   164   ar
   125    63    62    1
   126   141   138    1
   127   141   142    1
   128   205   206    2
   129   138   139    1
   130   161   158    1
   131   209   210    1
   132    73    74    1
   133    73    75    1
   134     7     8    1
   135   216   214   ar
   136   216   218   ar
   137   158   159    1
   138   159   160    2
   139   140   139    2
   140     9     8    1
   141     9    10    2
   142   166   164   ar
   143   213   210    1
   144   213   214    1
   145   139   148   am
   146   210   211    1
   147     8    11    1
   148   214   215   ar
   149   142   143   ar
   150   142   144   ar
   151    11    12    1
   152   218   217   ar
   153    62    65    1
   154    62    61    1
   155    14    13    2
   156   143   145   ar
   157   144   146   ar
   158    65    66    1
   159   148   149    1
   160   150   151    2
   161   150   149    1
   162    12    13    1
   163    13    15   am
   164   215   217   ar
   165   211   212    2
   166    68    67    1
   167   174   173    1
   168   145   147   ar
   169   149   152    1
   170   146   147   ar
   171    60    57    1
   172    66    67    1
   173   172   173    1
   174   172   169    1
   175   170   169    1
   176   170   171    2
   177    59    58    2
   178   173   175    1
   179    54    53    1
   180   152   153    1
   181   168   169    1
   182    57    58    1
   183    57    56    1
   184    37    36    1
   185   153   154    1
   186    53    55    1
   187    53    52    1
   188    42    43    1
   189    42    39    1
   190    41    40    2
   191    36    33    1
   192   155   154   ar
   193    49    52    1
   194    49    48    1
   195    49    50    1
   196   154   156   ar
   197    43    45   ar
   198    43    44   ar
   199    45    47   ar
   200    40    48   am
   201    40    39    1
   202    44    46   ar
   203    51    50    2
   204    47    46   ar
   205    33    34    1
   206    33    32    1
   207    35    34    2
   208    39    38    1
