@<TRIPOS>MOLECULE
tmp/6b36A00.pdb
 120 112 0 0 0
SMALL
GASTEIGER

@<TRIPOS>ATOM
      1  N         -2.5710   18.9600   -5.8320 N.3     8  ARG8       -0.1245
      2  CA        -3.7790   18.3390   -6.3990 C.3     8  ARG8        0.1563
      3  C         -3.4520   16.9310   -6.8980 C.2     8  ARG8        0.2260
      4  O         -2.4430   16.7380   -7.6150 O.2     8  ARG8       -0.2867
      5  CB        -4.3360   19.1810   -7.5520 C.3     8  ARG8        0.0307
      6  CG        -4.8980   20.4980   -7.0940 C.3     8  ARG8        0.0489
      7  CD        -5.2530   21.3860   -8.2560 C.3     8  ARG8        0.2205
      8  NE        -5.8100   22.6590   -7.7900 N.pl3   8  ARG8       -0.0865
      9  CZ        -5.9040   23.7620   -8.5310 C.cat   8  ARG8        0.5346
     10  NH1       -5.4570   23.7730   -9.7860 N.pl3   8  ARG8        0.1354
     11  NH2       -6.4310   24.8670   -8.0200 N.pl3   8  ARG8        0.1354
     12  N         -3.6920   14.7890   -9.3060 N.3    10  LEU10      -0.1245
     13  CA        -3.9770   14.6640  -10.7320 C.3    10  LEU10       0.1561
     14  C         -3.3200   13.4280  -11.2770 C.2    10  LEU10       0.2260
     15  O         -2.1410   13.1490  -10.9940 O.2    10  LEU10      -0.2867
     16  CB        -3.5340   15.9250  -11.5030 C.3    10  LEU10       0.0270
     17  CG        -4.3390   17.2060  -11.1980 C.3    10  LEU10       0.0019
     18  CD1       -3.6410   18.4330  -11.7950 C.3    10  LEU10       0.0001
     19  CD2       -5.7690   17.1160  -11.7600 C.3    10  LEU10       0.0001
     20  N         -8.6680   14.6950  -11.7250 N.3    23  LEU23      -0.1245
     21  CA        -8.4840   14.8590  -10.2930 C.3    23  LEU23       0.1561
     22  C         -9.1650   13.7340   -9.5090 C.2    23  LEU23       0.2260
     23  O        -10.3410   13.4310   -9.7470 O.2    23  LEU23      -0.2867
     24  CB        -9.0730   16.2330   -9.9330 C.3    23  LEU23       0.0270
     25  CG        -8.9650   16.7160   -8.4970 C.3    23  LEU23       0.0019
     26  CD1       -7.5240   17.1110   -8.1730 C.3    23  LEU23       0.0001
     27  CD2       -9.8350   17.9340   -8.2980 C.3    23  LEU23       0.0001
     28  N        -11.0310   12.7660   -6.6460 N.3    25  ASP25      -0.1239
     29  CA       -11.8350   13.5840   -5.7620 C.3    25  ASP25       0.1674
     30  C        -12.8050   12.8130   -4.8610 C.2    25  ASP25       0.2266
     31  O        -13.9070   12.4490   -5.2800 O.2    25  ASP25      -0.2867
     32  CB       -12.5560   14.5810   -6.6790 C.3    25  ASP25       0.1410
     33  CG       -13.4360   15.6390   -6.0680 C.2    25  ASP25       0.3668
     34  OD1      -13.6050   15.6350   -4.8360 O.co2  25  ASP25      -0.2456
     35  OD2      -13.9600   16.4740   -6.8290 O.co2  25  ASP25      -0.2456
     36  N        -14.5340   13.9890   -2.4910 N.3    27  GLY27      -0.1210
     37  CA       -15.7150   14.7940   -2.1860 C.3    27  GLY27       0.1956
     38  C        -16.7850   14.7360   -3.2590 C.2    27  GLY27       0.2612
     39  O        -17.8780   15.2600   -3.0620 O.2    27  GLY27      -0.2717
     40  N        -16.4750   14.1080   -4.4020 N.am   28  ALA28      -0.1965
     41  CA       -17.4070   13.9810   -5.5320 C.3    28  ALA28       0.1728
     42  C        -18.0740   12.6310   -5.5260 C.2    28  ALA28       0.2616
     43  O        -17.3840   11.6170   -5.5020 O.2    28  ALA28      -0.2715
     44  CB       -16.6320   14.1320   -6.8470 C.3    28  ALA28       0.0334
     45  N        -19.4130   12.5930   -5.5760 N.am   29  ASP29      -0.1957
     46  CA       -20.0970   11.2990   -5.6490 C.3    29  ASP29       0.1840
     47  C        -19.9160   10.6570   -7.0140 C.2    29  ASP29       0.2622
     48  O        -19.9270    9.4290   -7.1160 O.2    29  ASP29      -0.2715
     49  CB       -21.6180   11.4850   -5.4900 C.3    29  ASP29       0.1450
     50  CG       -22.0850   12.1360   -4.2040 C.2    29  ASP29       0.3671
     51  OD1      -21.3710   12.0030   -3.1670 O.co2  29  ASP29      -0.2456
     52  OD2      -23.1540   12.7820   -4.2290 O.co2  29  ASP29      -0.2456
     53  N        -19.8110   11.4960   -8.0660 N.am   30  ASP30      -0.1971
     54  CA       -19.7840   11.0730   -9.4600 C.3    30  ASP30       0.1709
     55  C        -18.5460   11.5290  -10.1950 C.2    30  ASP30       0.2293
     56  O        -17.8590   12.4670   -9.7780 O.2    30  ASP30      -0.2864
     57  CB       -21.0030   11.7130  -10.1750 C.3    30  ASP30       0.1436
     58  CG       -22.3160   11.5820   -9.4210 C.2    30  ASP30       0.3671
     59  OD1      -22.7050   10.4370   -9.1050 O.co2  30  ASP30      -0.2456
     60  OD2      -22.9390   12.6230   -9.1360 O.co2  30  ASP30      -0.2456
     61  N        -17.0440   13.2320  -13.5110 N.3    32  VAL32      -0.1245
     62  CA       -17.4660   14.2560  -14.4860 C.3    32  VAL32       0.1561
     63  C        -16.2840   14.6170  -15.3790 C.2    32  VAL32       0.2260
     64  O        -15.1950   14.9450  -14.8820 O.2    32  VAL32      -0.2867
     65  CB       -18.2020   15.5020  -13.8940 C.3    32  VAL32       0.0252
     66  CG1      -17.3440   16.2890  -12.9440 C.3    32  VAL32       0.0019
     67  CG2      -18.7650   16.4210  -14.9900 C.3    32  VAL32       0.0019
     68  N        -25.8460   18.4520  -11.9030 N.3    47  ILE47      -0.1231
     69  CA       -24.9280   18.2010  -10.7720 C.3    47  ILE47       0.1692
     70  C        -24.5250   19.5600  -10.2010 C.2    47  ILE47       0.2593
     71  O        -24.3410   20.5410  -10.9370 O.2    47  ILE47      -0.2718
     72  CB       -23.7180   17.2950  -11.0600 C.3    47  ILE47       0.0266
     73  CG1      -22.8710   17.8300  -12.2530 C.3    47  ILE47       0.0019
     74  CG2      -24.1590   15.8280  -11.2340 C.3    47  ILE47       0.0020
     75  CD1      -21.4970   17.1650  -12.4430 C.3    47  ILE47       0.0001
     76  N        -24.3950   19.6110   -8.9040 N.am   48  GLY48      -0.1942
     77  CA       -24.0830   20.8980   -8.3130 C.3    48  GLY48       0.2014
     78  C        -23.2050   20.8250   -7.1130 C.2    48  GLY48       0.2639
     79  O        -22.8560   19.7460   -6.6280 O.2    48  GLY48      -0.2714
     80  N        -22.8500   22.0050   -6.6640 N.am   49  GLY49      -0.1939
     81  CA       -21.9890   22.1530   -5.5040 C.3    49  GLY49       0.2014
     82  C        -21.5480   23.5830   -5.4100 C.2    49  GLY49       0.2638
     83  O        -22.3520   24.4890   -5.6370 O.2    49  GLY49      -0.2714
     84  N        -20.2680   23.8010   -5.0710 N.am   50  ILE50      -0.1977
     85  CA       -19.7650   25.1690   -4.9680 C.3    50  ILE50       0.1596
     86  C        -19.9360   25.8940   -6.3190 C.2    50  ILE50       0.2287
     87  O        -19.5590   25.3700   -7.3670 O.2    50  ILE50      -0.2864
     88  CB       -18.3250   25.1940   -4.3790 C.3    50  ILE50       0.0276
     89  CG1      -18.4300   25.0940   -2.8170 C.3    50  ILE50       0.0022
     90  CG2      -17.5570   26.4750   -4.7780 C.3    50  ILE50       0.0022
     91  CD1      -17.2390   24.8470   -2.1030 C.3    50  ILE50       0.0001
     92  N        -17.5110   20.9950  -17.0490 N.3    80  THR80      -0.1204
     93  CA       -16.7670   21.0100  -15.7820 C.3    80  THR80       0.1979
     94  C        -15.4270   21.7370  -15.9670 C.2    80  THR80       0.2460
     95  O        -14.7480   21.5300  -16.9930 O.2    80  THR80      -0.2732
     96  CB       -16.5520   19.5800  -15.2520 C.3    80  THR80       0.1783
     97  OG1      -15.8460   19.6410  -14.0070 O.3    80  THR80      -0.2211
     98  CG2      -15.7960   18.6800  -16.2310 C.3    80  THR80       0.0376
     99  N        -14.9840   22.5280  -14.9600 N.am   81  PRO81      -0.2717
    100  CA       -13.6740   23.2090  -15.0900 C.3    81  PRO81       0.1535
    101  C        -12.4700   22.2770  -14.9460 C.2    81  PRO81       0.2598
    102  O        -11.3470   22.6600  -15.2610 O.2    81  PRO81      -0.2715
    103  CB       -13.6990   24.2890  -13.9900 C.3    81  PRO81       0.0310
    104  CG       -14.8520   23.9910  -13.1250 C.3    81  PRO81       0.0237
    105  CD       -15.6550   22.8470  -13.6780 C.3    81  PRO81       0.0939
    106  N        -12.6890   21.0490  -14.4530 N.am   82  VAL82      -0.1978
    107  CA       -11.6140   20.0660  -14.2730 C.3    82  VAL82       0.1596
    108  C        -12.2280   18.6570  -14.4050 C.2    82  VAL82       0.2287
    109  O        -13.3560   18.4510  -13.9550 O.2    82  VAL82      -0.2864
    110  CB       -10.8740   20.2390  -12.8980 C.3    82  VAL82       0.0276
    111  CG1      -11.8240   20.1430  -11.7210 C.3    82  VAL82       0.0022
    112  CG2       -9.7250   19.2450  -12.7350 C.3    82  VAL82       0.0022
    113  N        -12.9570   15.1480  -13.2100 N.3    84  ILE84      -0.1245
    114  CA       -13.0450   14.6130  -11.8500 C.3    84  ILE84       0.1561
    115  C        -13.3320   13.1200  -11.8260 C.2    84  ILE84       0.2260
    116  O        -14.2760   12.6710  -12.4540 O.2    84  ILE84      -0.2867
    117  CB       -14.1680   15.3850  -11.0910 C.3    84  ILE84       0.0252
    118  CG1      -13.8280   16.8970  -10.8920 C.3    84  ILE84       0.0019
    119  CG2      -14.5620   14.7180   -9.7650 C.3    84  ILE84       0.0019
    120  CD1      -15.0080   17.6930  -10.5080 C.3    84  ILE84       0.0001
@<TRIPOS>BOND
     1    92    93    1
     2    95    94    2
     3    98    96    1
     4    94    93    1
     5    94    99   am
     6    93    96    1
     7    63    64    2
     8    63    62    1
     9   102   101    2
    10    96    97    1
    11   100    99    1
    12   100   101    1
    13   100   103    1
    14    67    65    1
    15    99   105    1
    16   101   106   am
    17    62    65    1
    18    62    61    1
    19   106   107    1
    20   108   107    1
    21   108   109    2
    22   107   110    1
    23   103   104    1
    24    65    66    1
    25   105   104    1
    26   113   114    1
    27   110   112    1
    28   110   111    1
    29   116   115    2
    30    75    73    1
    31    73    72    1
    32    68    69    1
    33   114   115    1
    34   114   117    1
    35    18    17    1
    36    19    17    1
    37    20    21    1
    38    16    17    1
    39    16    13    1
    40    14    15    2
    41    14    13    1
    42    74    72    1
    43   117   118    1
    44   117   119    1
    45    72    69    1
    46    71    70    2
    47   118   120    1
    48    69    70    1
    49    13    12    1
    50    21    24    1
    51    21    22    1
    52    70    76   am
    53    55    56    2
    54    55    54    1
    55    57    54    1
    56    57    58    1
    57    24    25    1
    58    10     9    1
    59    23    22    2
    60    54    53    1
    61    58    60   ar
    62    58    59   ar
    63    76    77    1
    64     9    11    1
    65     9     8    2
    66    25    27    1
    67    25    26    1
    68    77    78    1
    69     7     8    1
    70     7     6    1
    71    53    47   am
    72     4     3    2
    73     5     6    1
    74     5     2    1
    75    87    86    2
    76    48    47    2
    77    78    80   am
    78    78    79    2
    79    47    46    1
    80     3     2    1
    81    44    41    1
    82    35    33   ar
    83    32    33    1
    84    32    29    1
    85    80    81    1
    86    28    29    1
    87     2     1    1
    88    86    85    1
    89    33    34   ar
    90    29    30    1
    91    46    45    1
    92    46    49    1
    93    83    82    2
    94    45    42   am
    95    41    42    1
    96    41    40    1
    97    42    43    2
    98    81    82    1
    99    49    50    1
   100    82    84   am
   101    31    30    2
   102    84    85    1
   103    85    88    1
   104    90    88    1
   105    40    38   am
   106    88    89    1
   107    52    50   ar
   108    50    51   ar
   109    38    39    2
   110    38    37    1
   111    89    91    1
   112    36    37    1
