@<TRIPOS>MOLECULE
tmp/6b37A00.pdb
 93 87 0 0 0
SMALL
GASTEIGER

@<TRIPOS>ATOM
      1  N          1.5040   22.6420   49.9010 N.3   113  LEU113     -0.1231
      2  CA         0.1390   23.1300   50.1030 C.3   113  LEU113      0.1693
      3  C          0.1780   24.5740   50.6040 C.2   113  LEU113      0.2592
      4  O          1.0050   24.9210   51.4590 O.2   113  LEU113     -0.2718
      5  CB        -0.6050   22.2320   51.0850 C.3   113  LEU113      0.0284
      6  CG        -1.1820   20.9900   50.4000 C.3   113  LEU113      0.0019
      7  CD1       -1.2210   19.8350   51.3560 C.3   113  LEU113      0.0001
      8  CD2       -2.5720   21.3210   49.8590 C.3   113  LEU113      0.0001
      9  N         -0.6950   25.4320   50.0600 N.am  114  ALA114     -0.1966
     10  CA        -0.6200   26.8650   50.3370 C.3   114  ALA114      0.1728
     11  C         -2.0100   27.4890   50.3940 C.2   114  ALA114      0.2616
     12  O         -2.9910   26.9470   49.8660 O.2   114  ALA114     -0.2715
     13  CB         0.2280   27.5860   49.2880 C.3   114  ALA114      0.0334
     14  N         -2.0810   28.6370   51.0670 N.am  115  GLY115     -0.1955
     15  CA        -3.3140   29.4390   51.0790 C.3   115  GLY115      0.1869
     16  C         -3.3370   30.4410   49.9310 C.2   115  GLY115      0.2309
     17  O         -2.3090   31.0290   49.5760 O.2   115  GLY115     -0.2863
     18  N          5.5160   32.3150   55.2890 N.3   192  ASN192     -0.1240
     19  CA         5.0890   32.4490   56.6900 C.3   192  ASN192      0.1653
     20  C          5.8420   31.4100   57.5110 C.2   192  ASN192      0.2266
     21  O          5.6570   30.2030   57.3100 O.2   192  ASN192     -0.2867
     22  CB         3.5680   32.2280   56.7620 C.3   192  ASN192      0.1155
     23  CG         3.0400   32.0210   58.1850 C.2   192  ASN192      0.2627
     24  OD1        3.6160   32.5180   59.1580 O.2   192  ASN192     -0.2716
     25  ND2        1.9180   31.2980   58.3080 N.am  192  ASN192     -0.0877
     26  N         -1.5910   29.2320   61.0510 N.3   197  TYR197     -0.1227
     27  CA        -2.0520   29.7850   59.7820 C.3   197  TYR197      0.1736
     28  C         -2.0630   31.3020   59.8930 C.2   197  TYR197      0.2595
     29  O         -2.2950   31.8590   60.9810 O.2   197  TYR197     -0.2718
     30  CB        -3.4670   29.2700   59.4380 C.3   197  TYR197      0.0548
     31  CG        -3.5250   27.7870   59.1440 C.ar  197  TYR197     -0.0200
     32  CD1       -2.9560   27.2770   57.9950 C.ar  197  TYR197     -0.0009
     33  CD2       -4.1110   26.8970   60.0460 C.ar  197  TYR197     -0.0009
     34  CE1       -3.0040   25.8950   57.7140 C.ar  197  TYR197      0.0417
     35  CE2       -4.1680   25.5150   59.7760 C.ar  197  TYR197      0.0417
     36  CZ        -3.5880   25.0410   58.6200 C.ar  197  TYR197      0.1957
     37  OH        -3.6440   23.6800   58.3750 O.3   197  TYR197     -0.2866
     38  N         -1.8090   31.9790   58.7770 N.am  198  GLU198     -0.1979
     39  CA        -1.9090   33.4440   58.7520 C.3   198  GLU198      0.1602
     40  C         -3.2620   33.8930   59.3120 C.2   198  GLU198      0.2287
     41  O         -4.2990   33.3230   58.9780 O.2   198  GLU198     -0.2864
     42  CB        -1.7280   33.9570   57.2980 C.3   198  GLU198      0.0415
     43  CG        -2.8790   33.6480   56.2830 C.3   198  GLU198      0.1163
     44  CD        -2.8500   32.2380   55.7290 C.2   198  GLU198      0.3649
     45  OE1       -1.9500   31.4800   56.1020 O.co2 198  GLU198     -0.2457
     46  OE2       -3.6950   31.8580   54.8740 O.co2 198  GLU198     -0.2457
     47  N          0.4580   31.9250   50.1460 N.3   214  VAL214     -0.1231
     48  CA         1.2100   31.9140   51.4110 C.3   214  VAL214      0.1692
     49  C          1.3980   30.4720   51.8960 C.2   214  VAL214      0.2593
     50  O          0.4430   29.6830   51.9360 O.2   214  VAL214     -0.2718
     51  CB         0.5320   32.8050   52.4920 C.3   214  VAL214      0.0266
     52  CG1       -0.9230   32.4320   52.7660 C.3   214  VAL214      0.0020
     53  CG2        1.3560   32.8330   53.7770 C.3   214  VAL214      0.0020
     54  N          2.6320   30.1370   52.3060 N.am  215  GLY215     -0.1942
     55  CA         2.9280   28.8030   52.8190 C.3   215  GLY215      0.2014
     56  C          4.0460   28.8070   53.8500 C.2   215  GLY215      0.2638
     57  O          4.7110   29.8300   54.0490 O.2   215  GLY215     -0.2714
     58  N          4.2940   27.6380   54.4650 N.am  216  MET216     -0.1976
     59  CA         5.2750   27.5160   55.5540 C.3   216  MET216      0.1605
     60  C          6.5160   26.7060   55.1870 C.2   216  MET216      0.2287
     61  O          7.2430   26.2610   56.0910 O.2   216  MET216     -0.2864
     62  CB         4.6590   26.8610   56.8070 C.3   216  MET216      0.0413
     63  CG         3.4400   27.5030   57.3730 C.3   216  MET216      0.0598
     64  SD         2.6930   26.4470   58.6830 S.3   216  MET216     -0.1393
     65  CE         1.1260   27.3020   58.8490 C.3   216  MET216      0.0692
     66  N         -5.2780   25.4060   48.9060 N.3   239  ALA239     -0.1231
     67  CA        -6.2880   24.7520   49.7390 C.3   239  ALA239      0.1694
     68  C         -7.5420   25.6000   49.9630 C.2   239  ALA239      0.2592
     69  O         -8.5920   25.0440   50.2980 O.2   239  ALA239     -0.2718
     70  CB        -5.6780   24.4010   51.1010 C.3   239  ALA239      0.0304
     71  N         -7.4540   26.9210   49.8030 N.am  240  ASN240     -0.1974
     72  CA        -8.5290   27.8480   50.1890 C.3   240  ASN240      0.1688
     73  C         -8.2040   29.2130   49.5930 C.2   240  ASN240      0.2292
     74  O         -7.1150   29.4130   49.0360 O.2   240  ASN240     -0.2864
     75  CB        -8.6490   27.9580   51.7050 C.3   240  ASN240      0.1181
     76  CG        -7.4860   28.7400   52.3220 C.2   240  ASN240      0.2629
     77  OD1       -6.3410   28.5180   51.9600 O.2   240  ASN240     -0.2716
     78  ND2       -7.7820   29.6760   53.2190 N.am  240  ASN240     -0.0877
     79  N         -9.8010   28.0010   58.2460 N.3   252  ILE252     -0.1245
     80  CA        -9.1070   26.8560   57.6550 C.3   252  ILE252      0.1561
     81  C         -8.5210   25.9980   58.7760 C.2   252  ILE252      0.2260
     82  O         -8.2560   26.4700   59.8850 O.2   252  ILE252     -0.2867
     83  CB        -8.0090   27.2930   56.6570 C.3   252  ILE252      0.0252
     84  CG1       -7.4580   26.1010   55.8570 C.3   252  ILE252      0.0019
     85  CG2       -6.8710   27.9880   57.3760 C.3   252  ILE252      0.0019
     86  CD1       -8.4470   25.4770   54.8820 C.3   252  ILE252      0.0001
     87  N         -7.2470   21.0350   54.6840 N.3   257  VAL257     -0.1245
     88  CA        -6.1100   21.0800   53.7700 C.3   257  VAL257      0.1561
     89  C         -5.8360   19.6870   53.2110 C.2   257  VAL257      0.2260
     90  O         -5.6650   19.5110   51.9990 O.2   257  VAL257     -0.2867
     91  CB        -4.8750   21.6750   54.4760 C.3   257  VAL257      0.0252
     92  CG1       -3.6480   21.6310   53.5580 C.3   257  VAL257      0.0019
     93  CG2       -5.1410   23.1030   54.8820 C.3   257  VAL257      0.0019
@<TRIPOS>BOND
     1    66    67    1
     2    74    73    2
     3    13    10    1
     4    17    16    2
     5    73    72    1
     6    67    68    1
     7    67    70    1
     8    71    68   am
     9    71    72    1
    10     8     6    1
    11    12    11    2
    12     1     2    1
    13    16    15    1
    14    68    69    2
    15     9    10    1
    16     9     3   am
    17     2     3    1
    18     2     5    1
    19    47    48    1
    20    72    75    1
    21    10    11    1
    22    11    14   am
    23     6     5    1
    24     6     7    1
    25     3     4    2
    26    14    15    1
    27    48    49    1
    28    48    51    1
    29    75    76    1
    30    49    50    2
    31    49    54   am
    32    77    76    2
    33    90    89    2
    34    54    55    1
    35    76    78   am
    36    51    52    1
    37    51    53    1
    38    55    56    1
    39    89    88    1
    40    92    91    1
    41    88    91    1
    42    88    87    1
    43    56    57    2
    44    56    58   am
    45    58    59    1
    46    91    93    1
    47    46    44   ar
    48    86    84    1
    49    60    59    1
    50    60    61    2
    51    18    19    1
    52    59    62    1
    53    44    45   ar
    54    44    43    1
    55    84    83    1
    56    43    42    1
    57    83    85    1
    58    83    80    1
    59    19    22    1
    60    19    20    1
    61    22    23    1
    62    62    63    1
    63    42    39    1
    64    21    20    2
    65    63    64    1
    66    80    79    1
    67    80    81    1
    68    34    32   ar
    69    34    36   ar
    70    32    31   ar
    71    23    25   am
    72    23    24    2
    73    37    36    1
    74    36    35   ar
    75    64    65    1
    76    39    38    1
    77    39    40    1
    78    81    82    2
    79    38    28   am
    80    41    40    2
    81    31    30    1
    82    31    33   ar
    83    30    27    1
    84    35    33   ar
    85    27    28    1
    86    27    26    1
    87    28    29    2
