@<TRIPOS>MOLECULE
tmp/6b3aA00.pdb
 186 179 0 0 0
SMALL
GASTEIGER

@<TRIPOS>ATOM
      1  N         15.6150    3.7990  -26.3750 N.3   240  ARG240     -0.1245
      2  CA        15.8950    3.0360  -27.5880 C.3   240  ARG240      0.1563
      3  C         16.8350    1.8680  -27.3150 C.2   240  ARG240      0.2260
      4  O         16.6910    0.7990  -27.9270 O.2   240  ARG240     -0.2867
      5  CB        16.4800    3.9530  -28.6640 C.3   240  ARG240      0.0307
      6  CG        16.7420    3.2590  -30.0070 C.3   240  ARG240      0.0489
      7  CD        15.6160    3.4940  -31.0060 C.3   240  ARG240      0.2205
      8  NE        14.4100    2.7170  -30.7300 N.pl3 240  ARG240     -0.0865
      9  CZ        13.2030    3.0070  -31.2160 C.cat 240  ARG240      0.5346
     10  NH1       13.0230    4.0730  -31.9860 N.pl3 240  ARG240      0.1354
     11  NH2       12.1670    2.2350  -30.9230 N.pl3 240  ARG240      0.1354
     12  N         15.9210   -1.6310  -28.5910 N.3   244  VAL244     -0.1245
     13  CA        16.6290   -2.3240  -29.6640 C.3   244  VAL244      0.1561
     14  C         17.0880   -3.7020  -29.2030 C.2   244  VAL244      0.2260
     15  O         17.0130   -4.6800  -29.9560 O.2   244  VAL244     -0.2867
     16  CB        17.7990   -1.4600  -30.1680 C.3   244  VAL244      0.0252
     17  CG1       18.7490   -2.2810  -31.0270 C.3   244  VAL244      0.0019
     18  CG2       17.2570   -0.2740  -30.9570 C.3   244  VAL244      0.0019
     19  N         13.7360   -5.8680  -29.0080 N.3   247  SER247     -0.1217
     20  CA        13.1370   -6.1810  -30.3020 C.3   247  SER247      0.1889
     21  C         14.0340   -7.1150  -31.1090 C.2   247  SER247      0.2288
     22  O         13.5400   -8.0030  -31.8130 O.2   247  SER247     -0.2866
     23  CB        12.8360   -4.8930  -31.0720 C.3   247  SER247      0.2089
     24  OG        14.0180   -4.1670  -31.3560 O.3   247  SER247     -0.2183
     25  N         12.7940  -10.4440  -32.6630 N.3   251  HIS251     -0.1241
     26  CA        12.9180  -10.6440  -34.1010 C.3   251  HIS251      0.1621
     27  C         13.6630  -11.9240  -34.4590 C.2   251  HIS251      0.2264
     28  O         13.8640  -12.1880  -35.6490 O.2   251  HIS251     -0.2867
     29  CB        13.6090   -9.4320  -34.7310 C.3   251  HIS251      0.0745
     30  CG        12.7790   -8.1800  -34.7180 C.ar  251  HIS251      0.0817
     31  ND1       13.2650   -6.9600  -35.1370 N.ar  251  HIS251     -0.2268
     32  CD2       11.4940   -7.9620  -34.3430 C.ar  251  HIS251      0.1154
     33  CE1       12.3180   -6.0440  -35.0230 C.ar  251  HIS251      0.1986
     34  NE2       11.2330   -6.6260  -34.5440 N.ar  251  HIS251     -0.2212
     35  N         13.5590  -14.1880  -38.0850 N.3   255  PHE255     -0.1241
     36  CA        14.6860  -14.2610  -39.0120 C.3   255  PHE255      0.1605
     37  C         14.8840  -15.6900  -39.5060 C.2   255  PHE255      0.2264
     38  O         15.2250  -15.9120  -40.6770 O.2   255  PHE255     -0.2867
     39  CB        15.9610  -13.7300  -38.3410 C.3   255  PHE255      0.0534
     40  CG        15.9960  -12.2190  -38.1980 C.ar  255  PHE255     -0.0203
     41  CD1       14.9510  -11.4360  -38.6670 C.ar  255  PHE255     -0.0042
     42  CD2       17.0840  -11.5880  -37.6110 C.ar  255  PHE255     -0.0042
     43  CE1       14.9810  -10.0550  -38.5450 C.ar  255  PHE255     -0.0003
     44  CE2       17.1250  -10.2000  -37.4820 C.ar  255  PHE255     -0.0003
     45  CZ        16.0710   -9.4360  -37.9530 C.ar  255  PHE255     -0.0000
     46  N         19.9660   -5.0990  -47.6480 N.3   280  ASP280     -0.1225
     47  CA        19.0500   -5.0140  -46.5100 C.3   280  ASP280      0.1805
     48  C         18.8600   -3.5420  -46.1610 C.2   280  ASP280      0.2598
     49  O         19.7900   -2.8840  -45.6700 O.2   280  ASP280     -0.2718
     50  CB        19.6020   -5.7950  -45.3110 C.3   280  ASP280      0.1424
     51  CG        18.6520   -5.8120  -44.1080 C.2   280  ASP280      0.3668
     52  OD1       17.5130   -5.3170  -44.2120 O.co2 280  ASP280     -0.2456
     53  OD2       19.0520   -6.3290  -43.0410 O.co2 280  ASP280     -0.2456
     54  N         17.6580   -3.0260  -46.4210 N.am  281  MET281     -0.1965
     55  CA        17.3400   -1.6470  -46.0880 C.3   281  MET281      0.1736
     56  C         16.9590   -1.5750  -44.6140 C.2   281  MET281      0.2617
     57  O         15.9610   -2.1790  -44.1920 O.2   281  MET281     -0.2715
     58  CB        16.2170   -1.0990  -46.9760 C.3   281  MET281      0.0427
     59  CG        15.7520    0.3380  -46.5540 C.3   281  MET281      0.0599
     60  SD        17.0270    1.6190  -46.6430 S.3   281  MET281     -0.1393
     61  CE        17.1710    1.8300  -48.4340 C.3   281  MET281      0.0692
     62  N         17.7630   -0.8530  -43.8340 N.am  282  GLY282     -0.1940
     63  CA        17.5510   -0.7460  -42.4030 C.3   282  GLY282      0.2014
     64  C         18.2570   -1.8470  -41.6470 C.2   282  GLY282      0.2639
     65  O         17.6480   -2.5090  -40.8030 O.2   282  GLY282     -0.2714
     66  N         19.5500   -2.0450  -41.9360 N.am  283  CYS283     -0.1953
     67  CA        20.2420   -3.2620  -41.5170 C.3   283  CYS283      0.1843
     68  C         20.5220   -3.3140  -40.0170 C.2   283  CYS283      0.2626
     69  O         20.8080   -4.3990  -39.4960 O.2   283  CYS283     -0.2714
     70  CB        21.5560   -3.4140  -42.2980 C.3   283  CYS283      0.0997
     71  SG        22.7020   -2.0220  -42.1780 S.3   283  CYS283     -0.0797
     72  N         20.4650   -2.1850  -39.3170 N.am  284  GLY284     -0.1954
     73  CA        20.7050   -2.1980  -37.8820 C.3   284  GLY284      0.1869
     74  C         22.1070   -2.6760  -37.5640 C.2   284  GLY284      0.2309
     75  O         23.1090   -2.0850  -37.9960 O.2   284  GLY284     -0.2863
     76  N         20.4460   -9.8970  -39.5610 N.3   288  LEU288     -0.1245
     77  CA        19.7670  -10.6170  -40.6270 C.3   288  LEU288      0.1561
     78  C         20.7200  -10.9270  -41.7830 C.2   288  LEU288      0.2260
     79  O         20.7440  -12.0590  -42.2830 O.2   288  LEU288     -0.2867
     80  CB        18.5530   -9.8150  -41.1040 C.3   288  LEU288      0.0270
     81  CG        17.7100  -10.4460  -42.2180 C.3   288  LEU288      0.0019
     82  CD1       17.1840  -11.8390  -41.8380 C.3   288  LEU288      0.0001
     83  CD2       16.5670   -9.5110  -42.5930 C.3   288  LEU288      0.0001
     84  N         21.4490    1.8120  -44.1820 N.3   317  ASP317     -0.1225
     85  CA        20.8450    2.3890  -42.9830 C.3   317  ASP317      0.1805
     86  C         21.0390    3.9030  -43.0210 C.2   317  ASP317      0.2598
     87  O         22.0270    4.3980  -43.5700 O.2   317  ASP317     -0.2718
     88  CB        21.4590    1.7780  -41.7080 C.3   317  ASP317      0.1424
     89  CG        20.5160    1.8410  -40.5100 C.2   317  ASP317      0.3668
     90  OD1       20.1910    2.9650  -40.0760 O.co2 317  ASP317     -0.2456
     91  OD2       20.0900    0.7710  -40.0140 O.co2 317  ASP317     -0.2456
     92  N         20.0900    4.6460  -42.4430 N.am  318  TYR318     -0.1962
     93  CA        20.2230    6.1000  -42.4230 C.3   318  TYR318      0.1771
     94  C         21.0010    6.6090  -41.2150 C.2   318  TYR318      0.2619
     95  O         21.0970    7.8240  -41.0190 O.2   318  TYR318     -0.2715
     96  CB        18.8480    6.7800  -42.5160 C.3   318  TYR318      0.0574
     97  CG        17.9770    6.7980  -41.2740 C.ar  318  TYR318     -0.0198
     98  CD1       18.1360    5.8710  -40.2470 C.ar  318  TYR318     -0.0009
     99  CD2       16.9630    7.7460  -41.1480 C.ar  318  TYR318     -0.0009
    100  CE1       17.3260    5.9070  -39.1200 C.ar  318  TYR318      0.0417
    101  CE2       16.1460    7.7850  -40.0320 C.ar  318  TYR318      0.0417
    102  CZ        16.3310    6.8640  -39.0230 C.ar  318  TYR318      0.1957
    103  OH        15.5150    6.9060  -37.9170 O.3   318  TYR318     -0.2866
    104  N         21.5870    5.7100  -40.4290 N.am  319  ASN319     -0.1972
    105  CA        22.3390    6.0590  -39.2350 C.3   319  ASN319      0.1688
    106  C         23.7550    5.5180  -39.3750 C.2   319  ASN319      0.2292
    107  O         23.9420    4.3230  -39.6240 O.2   319  ASN319     -0.2864
    108  CB        21.6480    5.4850  -37.9940 C.3   319  ASN319      0.1181
    109  CG        22.3440    5.8660  -36.7130 C.2   319  ASN319      0.2629
    110  OD1       23.3010    5.2160  -36.2960 O.2   319  ASN319     -0.2716
    111  ND2       21.8570    6.9210  -36.0700 N.am  319  ASN319     -0.0877
    112  N         24.8910    2.5870  -37.1070 N.3   322  ALA322     -0.1245
    113  CA        24.4150    1.2820  -37.5520 C.3   322  ALA322      0.1562
    114  C         25.2970    0.7190  -38.6540 C.2   322  ALA322      0.2260
    115  O         25.5990   -0.4810  -38.6650 O.2   322  ALA322     -0.2867
    116  CB        22.9680    1.3790  -38.0360 C.3   322  ALA322      0.0290
    117  N         21.2970    5.1810  -46.6430 N.3   340  GLY340     -0.1210
    118  CA        20.0820    5.1310  -47.4290 C.3   340  GLY340      0.1956
    119  C         18.9090    5.1720  -46.4850 C.2   340  GLY340      0.2612
    120  O         19.0680    5.0860  -45.2660 O.2   340  GLY340     -0.2717
    121  N         17.7200    5.2850  -47.0760 N.am  341  ASP341     -0.1959
    122  CA        16.5060    5.5690  -46.3280 C.3   341  ASP341      0.1840
    123  C         15.3810    4.7270  -46.9060 C.2   341  ASP341      0.2621
    124  O         15.2750    4.5870  -48.1270 O.2   341  ASP341     -0.2715
    125  CB        16.1560    7.0750  -46.3900 C.3   341  ASP341      0.1450
    126  CG        15.0300    7.4650  -45.4300 C.2   341  ASP341      0.3671
    127  OD1       13.8770    7.0070  -45.6080 O.co2 341  ASP341     -0.2456
    128  OD2       15.3090    8.2320  -44.4800 O.co2 341  ASP341     -0.2456
    129  N         14.5430    4.1740  -46.0230 N.am  342  ILE342     -0.1977
    130  CA        13.4540    3.3030  -46.4600 C.3   342  ILE342      0.1596
    131  C         12.5110    4.0380  -47.4050 C.2   342  ILE342      0.2287
    132  O         11.8700    3.4210  -48.2690 O.2   342  ILE342     -0.2864
    133  CB        12.7110    2.7410  -45.2270 C.3   342  ILE342      0.0276
    134  CG1       11.5500    1.8410  -45.6480 C.3   342  ILE342      0.0022
    135  CG2       12.1710    3.8620  -44.3620 C.3   342  ILE342      0.0022
    136  CD1       11.9640    0.6680  -46.4600 C.3   342  ILE342      0.0001
    137  N         13.3600   -6.0160  -42.8220 N.3   367  SER367     -0.1202
    138  CA        12.5360   -6.5690  -41.7510 C.3   367  SER367      0.2020
    139  C         12.0210   -5.4400  -40.8640 C.2   367  SER367      0.2619
    140  O         12.8090   -4.6620  -40.3130 O.2   367  SER367     -0.2717
    141  CB        13.3110   -7.6100  -40.9250 C.3   367  SER367      0.2103
    142  OG        14.5870   -7.1190  -40.5220 O.3   367  SER367     -0.2182
    143  N         10.6940   -5.3480  -40.7470 N.am  368  PHE368     -0.1961
    144  CA        10.0350   -4.5260  -39.7230 C.3   368  PHE368      0.1771
    145  C         10.4090   -3.0510  -39.8420 C.2   368  PHE368      0.2619
    146  O         10.7880   -2.3990  -38.8640 O.2   368  PHE368     -0.2715
    147  CB        10.3530   -5.0730  -38.3290 C.3   368  PHE368      0.0574
    148  CG        10.0680   -6.5420  -38.1870 C.ar  368  PHE368     -0.0200
    149  CD1       11.0990   -7.4490  -37.9710 C.ar  368  PHE368     -0.0042
    150  CD2        8.7670   -7.0240  -38.2950 C.ar  368  PHE368     -0.0042
    151  CE1       10.8390   -8.8190  -37.8380 C.ar  368  PHE368     -0.0003
    152  CE2        8.4900   -8.3890  -38.1770 C.ar  368  PHE368     -0.0003
    153  CZ         9.5290   -9.2920  -37.9370 C.ar  368  PHE368     -0.0000
    154  N         10.2890   -2.5120  -41.0570 N.am  369  LEU369     -0.1977
    155  CA        10.7000   -1.1360  -41.2870 C.3   369  LEU369      0.1596
    156  C          9.6600   -0.3040  -42.0340 C.2   369  LEU369      0.2287
    157  O          9.6230    0.9210  -41.8730 O.2   369  LEU369     -0.2864
    158  CB        12.0240   -1.1130  -42.0500 C.3   369  LEU369      0.0297
    159  CG        12.7760    0.2150  -42.0920 C.3   369  LEU369      0.0022
    160  CD1       13.0490    0.7270  -40.6950 C.3   369  LEU369      0.0001
    161  CD2       14.0590    0.0570  -42.8530 C.3   369  LEU369      0.0001
    162  N          6.5380    0.0800  -41.6210 N.3   371  HIS371     -0.1226
    163  CA         5.6430    0.7970  -40.7100 C.3   371  HIS371      0.1752
    164  C          6.3400    1.9410  -39.9850 C.2   371  HIS371      0.2596
    165  O          5.6560    2.7860  -39.3910 O.2   371  HIS371     -0.2718
    166  CB         5.0350   -0.1760  -39.6880 C.3   371  HIS371      0.0759
    167  CG         5.9900   -0.6000  -38.6130 C.ar  371  HIS371      0.0818
    168  ND1        6.7360   -1.7580  -38.6890 N.ar  371  HIS371     -0.2268
    169  CD2        6.3390   -0.0030  -37.4480 C.ar  371  HIS371      0.1154
    170  CE1        7.4860   -1.8650  -37.6050 C.ar  371  HIS371      0.1986
    171  NE2        7.2710   -0.8100  -36.8400 N.ar  371  HIS371     -0.2212
    172  N          7.6750    2.0070  -40.0350 N.am  372  ASP372     -0.1974
    173  CA         8.4140    3.0420  -39.3250 C.3   372  ASP372      0.1709
    174  C          9.0530    4.0380  -40.2830 C.2   372  ASP372      0.2293
    175  O          9.9580    4.7750  -39.9000 O.2   372  ASP372     -0.2864
    176  CB         9.4680    2.4130  -38.4110 C.3   372  ASP372      0.1436
    177  CG         9.6490    3.1830  -37.1110 C.2   372  ASP372      0.3671
    178  OD1        9.1470    4.3270  -37.0020 O.co2 372  ASP372     -0.2456
    179  OD2       10.2910    2.6350  -36.1900 O.co2 372  ASP372     -0.2456
    180  N          9.3360    7.4650  -42.5510 N.3   374  PRO374     -0.2116
    181  CA         8.7880    8.8230  -42.4780 C.3   374  PRO374      0.1372
    182  C          7.5500    8.9090  -43.3560 C.2   374  PRO374      0.2244
    183  O          7.5840    8.5630  -44.5360 O.2   374  PRO374     -0.2868
    184  CB         9.9280    9.7020  -43.0120 C.3   374  PRO374      0.0268
    185  CG        11.1460    8.8190  -43.0100 C.3   374  PRO374      0.0207
    186  CD        10.6380    7.4230  -43.2280 C.3   374  PRO374      0.0892
@<TRIPOS>BOND
     1    61    60    1
     2   132   131    2
     3   124   123    2
     4    46    47    1
     5   118   117    1
     6   118   119    1
     7   131   130    1
     8   121   119   am
     9   121   122    1
    10    58    59    1
    11    58    55    1
    12   123   122    1
    13   123   129   am
    14    60    59    1
    15    47    48    1
    16    47    50    1
    17   119   120    2
    18   130   129    1
    19   130   133    1
    20   136   134    1
    21    54    48   am
    22    54    55    1
    23   125   122    1
    24   125   126    1
    25    48    49    2
    26    55    56    1
    27   134   133    1
    28   127   126   ar
    29   126   128   ar
    30    50    51    1
    31   133   135    1
    32    56    57    2
    33    56    62   am
    34   183   182    2
    35    52    51   ar
    36    84    85    1
    37    51    53   ar
    38    62    63    1
    39    87    86    2
    40   182   181    1
    41   186   185    1
    42   186   180    1
    43    86    85    1
    44    86    92   am
    45   184   185    1
    46   184   181    1
    47    85    88    1
    48   161   159    1
    49   137   138    1
    50    83    81    1
    51   180   181    1
    52    96    93    1
    53    96    97    1
    54    92    93    1
    55    93    94    1
    56    63    64    1
    57    70    71    1
    58    70    67    1
    59    79    78    2
    60    81    82    1
    61    81    80    1
    62   159   158    1
    63   159   160    1
    64   158   155    1
    65   156   157    2
    66   156   155    1
    67    66    64   am
    68    66    67    1
    69    78    77    1
    70   138   141    1
    71   138   139    1
    72    88    89    1
    73    64    65    2
    74   162   163    1
    75    67    68    1
    76   155   154    1
    77    97    99   ar
    78    97    98   ar
    79    94    95    2
    80    94   104   am
    81    99   101   ar
    82    80    77    1
    83   154   145   am
    84   141   142    1
    85   139   143   am
    86   139   140    2
    87   143   144    1
    88   163   164    1
    89   163   166    1
    90    38    37    2
    91    77    76    1
    92    89    90   ar
    93    89    91   ar
    94   104   105    1
    95   174   175    2
    96   174   173    1
    97    98   100   ar
    98   172   164   am
    99   172   173    1
   100   101   102   ar
   101    68    69    2
   102    68    72   am
   103   164   165    2
   104   145   144    1
   105   145   146    2
   106   144   147    1
   107   166   167    1
   108   107   106    2
   109    37    36    1
   110   106   105    1
   111   173   176    1
   112    72    73    1
   113   105   108    1
   114   100   102   ar
   115   102   103    1
   116    36    39    1
   117    36    35    1
   118   168   167   ar
   119   168   170   ar
   120    41    43   ar
   121    41    40   ar
   122   115   114    2
   123   114   113    1
   124   167   169   ar
   125    43    45   ar
   126   176   177    1
   127    39    40    1
   128   147   148    1
   129   150   148   ar
   130   150   152   ar
   131    40    42   ar
   132   148   149   ar
   133   152   153   ar
   134   116   113    1
   135    75    74    2
   136   108   109    1
   137   149   151   ar
   138    45    44   ar
   139   153   151   ar
   140    73    74    1
   141    42    44   ar
   142   170   171   ar
   143   113   112    1
   144   169   171   ar
   145   177   178   ar
   146   177   179   ar
   147   109   110    2
   148   109   111   am
   149    28    27    2
   150    31    33   ar
   151    31    30   ar
   152    33    34   ar
   153    29    30    1
   154    29    26    1
   155    30    32   ar
   156    34    32   ar
   157    27    26    1
   158    26    25    1
   159    10     9    1
   160    22    21    2
   161    24    23    1
   162     9    11    1
   163     9     8    2
   164    21    20    1
   165    23    20    1
   166    17    16    1
   167     7     8    1
   168     7     6    1
   169    18    16    1
   170    20    19    1
   171    16    13    1
   172     6     5    1
   173    15    14    2
   174    13    14    1
   175    13    12    1
   176     5     2    1
   177     4     3    2
   178     2     3    1
   179     2     1    1
