@<TRIPOS>MOLECULE
tmp/6b3bA01.pdb
 129 123 0 0 0
SMALL
GASTEIGER

@<TRIPOS>ATOM
      1  N         10.5320   -4.0340  -25.3690 N.3   197  THR197     -0.1218
      2  CA        10.0330   -3.1160  -26.3900 C.3   197  THR197      0.1862
      3  C          8.9310   -2.2310  -25.8230 C.2   197  THR197      0.2287
      4  O          8.9770   -1.0010  -25.9500 O.2   197  THR197     -0.2866
      5  CB         9.5280   -3.8890  -27.6130 C.3   197  THR197      0.1770
      6  OG1       10.4740   -4.9110  -27.9630 O.3   197  THR197     -0.2211
      7  CG2        9.3840   -2.9500  -28.7950 C.3   197  THR197      0.0375
      8  N          8.9160    2.4500  -24.2070 N.3   201  TYR201     -0.1241
      9  CA         8.0700    3.6070  -24.4720 C.3   201  TYR201      0.1605
     10  C          7.5170    4.2540  -23.2070 C.2   201  TYR201      0.2264
     11  O          6.6240    5.1040  -23.3090 O.2   201  TYR201     -0.2867
     12  CB         6.9180    3.2170  -25.4070 C.3   201  TYR201      0.0534
     13  CG         7.3660    3.0660  -26.8440 C.ar  201  TYR201     -0.0201
     14  CD1        7.7650    1.8320  -27.3470 C.ar  201  TYR201     -0.0009
     15  CD2        7.4170    4.1630  -27.6910 C.ar  201  TYR201     -0.0009
     16  CE1        8.1930    1.6940  -28.6640 C.ar  201  TYR201      0.0417
     17  CE2        7.8410    4.0350  -29.0050 C.ar  201  TYR201      0.0417
     18  CZ         8.2280    2.8020  -29.4880 C.ar  201  TYR201      0.1957
     19  OH         8.6390    2.6840  -30.8000 O.3   201  TYR201     -0.2866
     20  N         15.6910    4.4980  -26.9040 N.3   233  ARG233     -0.1245
     21  CA        15.9190    3.8160  -28.1790 C.3   233  ARG233      0.1563
     22  C         16.9650    2.7100  -28.0610 C.2   233  ARG233      0.2260
     23  O         16.8390    1.6650  -28.7110 O.2   233  ARG233     -0.2867
     24  CB        16.3180    4.8250  -29.2590 C.3   233  ARG233      0.0307
     25  CG        16.5320    4.2090  -30.6430 C.3   233  ARG233      0.0489
     26  CD        15.2850    3.4800  -31.1800 C.3   233  ARG233      0.2205
     27  NE        14.2650    4.4080  -31.6600 N.pl3 233  ARG233     -0.0865
     28  CZ        13.0820    4.0390  -32.1480 C.cat 233  ARG233      0.5346
     29  NH1       12.2170    4.9560  -32.5660 N.pl3 233  ARG233      0.1354
     30  NH2       12.7600    2.7570  -32.2260 N.pl3 233  ARG233      0.1354
     31  N         15.3030   -0.1740  -26.6820 N.3   236  ASN236     -0.1240
     32  CA        14.3180   -0.5680  -27.6820 C.3   236  ASN236      0.1653
     33  C         14.9460   -1.4630  -28.7480 C.2   236  ASN236      0.2266
     34  O         14.4410   -2.5560  -29.0390 O.2   236  ASN236     -0.2867
     35  CB        13.7080    0.7040  -28.2870 C.3   236  ASN236      0.1155
     36  CG        12.7260    0.4200  -29.4160 C.2   236  ASN236      0.2627
     37  OD1       13.1190    0.2870  -30.5790 O.2   236  ASN236     -0.2716
     38  ND2       11.4400    0.3580  -29.0820 N.am  236  ASN236     -0.0877
     39  N         13.7460   -5.1220  -29.4680 N.3   240  SER240     -0.1217
     40  CA        13.0440   -5.4530  -30.7060 C.3   240  SER240      0.1889
     41  C         13.9180   -6.2840  -31.6410 C.2   240  SER240      0.2288
     42  O         13.3980   -7.1430  -32.3630 O.2   240  SER240     -0.2866
     43  CB        12.5350   -4.1910  -31.4090 C.3   240  SER240      0.2089
     44  OG        13.5890   -3.4000  -31.9150 O.3   240  SER240     -0.2183
     45  N         13.2980   -9.7350  -30.6060 N.3   243  GLN243     -0.1231
     46  CA        12.0110  -10.2600  -31.0520 C.3   243  GLN243      0.1698
     47  C         11.9870  -10.4840  -32.5610 C.2   243  GLN243      0.2592
     48  O         11.4580  -11.4990  -33.0220 O.2   243  GLN243     -0.2718
     49  CB        10.8810   -9.3310  -30.6320 C.3   243  GLN243      0.0381
     50  CG        10.3090   -9.6730  -29.2730 C.3   243  GLN243      0.0905
     51  CD         9.3750   -8.6070  -28.7720 C.2   243  GLN243      0.2608
     52  OE1        9.6230   -7.4120  -28.9590 O.2   243  GLN243     -0.2717
     53  NE2        8.2870   -9.0250  -28.1340 N.am  243  GLN243     -0.0878
     54  N         12.5400   -9.5470  -33.3470 N.am  244  HIS244     -0.1976
     55  CA        12.5580   -9.7120  -34.8030 C.3   244  HIS244      0.1656
     56  C         13.3410  -10.9510  -35.2130 C.2   244  HIS244      0.2291
     57  O         12.9680  -11.6490  -36.1710 O.2   244  HIS244     -0.2864
     58  CB        13.1720   -8.4910  -35.4810 C.3   244  HIS244      0.0771
     59  CG        12.3850   -7.2390  -35.3030 C.ar  244  HIS244      0.0820
     60  ND1       12.9330   -5.9890  -35.4950 N.ar  244  HIS244     -0.2267
     61  CD2       11.0870   -7.0390  -34.9650 C.ar  244  HIS244      0.1154
     62  CE1       12.0060   -5.0710  -35.2730 C.ar  244  HIS244      0.1986
     63  NE2       10.8790   -5.6820  -34.9470 N.ar  244  HIS244     -0.2212
     64  N         10.7070   -5.6360  -41.1640 N.3   361  PHE361     -0.1241
     65  CA        10.0380   -4.8350  -40.1470 C.3   361  PHE361      0.1605
     66  C         10.4040   -3.3580  -40.2590 C.2   361  PHE361      0.2264
     67  O         10.6890   -2.6920  -39.2620 O.2   361  PHE361     -0.2867
     68  CB        10.3460   -5.3760  -38.7470 C.3   361  PHE361      0.0534
     69  CG        10.0610   -6.8440  -38.5910 C.ar  361  PHE361     -0.0203
     70  CD1       11.1000   -7.7510  -38.3630 C.ar  361  PHE361     -0.0042
     71  CD2        8.7530   -7.3260  -38.6650 C.ar  361  PHE361     -0.0042
     72  CE1       10.8370   -9.1130  -38.2100 C.ar  361  PHE361     -0.0003
     73  CE2        8.4840   -8.6900  -38.5270 C.ar  361  PHE361     -0.0003
     74  CZ         9.5280   -9.5830  -38.2990 C.ar  361  PHE361     -0.0000
     75  N          6.5870   -0.1430  -42.0010 N.3   364  HIS364     -0.1226
     76  CA         5.6760    0.5570  -41.0940 C.3   364  HIS364      0.1752
     77  C          6.3590    1.6810  -40.3370 C.2   364  HIS364      0.2596
     78  O          5.6690    2.5010  -39.7220 O.2   364  HIS364     -0.2718
     79  CB         5.0720   -0.4310  -40.0860 C.3   364  HIS364      0.0759
     80  CG         6.0110   -0.8230  -38.9900 C.ar  364  HIS364      0.0818
     81  ND1        6.7380   -1.9930  -39.0120 N.ar  364  HIS364     -0.2268
     82  CD2        6.3480   -0.1910  -37.8390 C.ar  364  HIS364      0.1154
     83  CE1        7.4780   -2.0660  -37.9170 C.ar  364  HIS364      0.1986
     84  NE2        7.2540   -0.9890  -37.1880 N.ar  364  HIS364     -0.2212
     85  N          7.6940    1.7300  -40.3530 N.am  365  ASP365     -0.1974
     86  CA         8.4320    2.7700  -39.6540 C.3   365  ASP365      0.1709
     87  C          9.0890    3.7470  -40.6210 C.2   365  ASP365      0.2293
     88  O         10.0070    4.4720  -40.2360 O.2   365  ASP365     -0.2864
     89  CB         9.4690    2.1370  -38.7210 C.3   365  ASP365      0.1436
     90  CG         9.7360    2.9730  -37.4680 C.2   365  ASP365      0.3671
     91  OD1        9.2400    4.1210  -37.3720 O.co2 365  ASP365     -0.2456
     92  OD2       10.4480    2.4710  -36.5720 O.co2 365  ASP365     -0.2456
     93  N          5.2700   -6.3990  -39.6720 N.3   427  VAL427     -0.1245
     94  CA         4.3560   -6.5670  -38.5500 C.3   427  VAL427      0.1561
     95  C          3.0940   -5.7550  -38.8460 C.2   427  VAL427      0.2260
     96  O          3.1350   -4.7600  -39.5840 O.2   427  VAL427     -0.2867
     97  CB         5.0450   -6.1540  -37.2230 C.3   427  VAL427      0.0252
     98  CG1        5.4860   -4.6890  -37.2510 C.3   427  VAL427      0.0019
     99  CG2        4.1800   -6.4600  -36.0270 C.3   427  VAL427      0.0019
    100  N          0.6100   -3.3070  -28.5690 N.3   447  PHE447     -0.1241
    101  CA         1.5450   -3.0770  -29.6650 C.3   447  PHE447      0.1605
    102  C          0.9880   -2.0860  -30.6870 C.2   447  PHE447      0.2264
    103  O          1.7070   -1.1960  -31.1560 O.2   447  PHE447     -0.2867
    104  CB         1.8750   -4.4140  -30.3330 C.3   447  PHE447      0.0534
    105  CG         2.8930   -4.3200  -31.4260 C.ar  447  PHE447     -0.0203
    106  CD1        2.5070   -4.0630  -32.7330 C.ar  447  PHE447     -0.0042
    107  CD2        4.2360   -4.5230  -31.1520 C.ar  447  PHE447     -0.0042
    108  CE1        3.4470   -3.9810  -33.7340 C.ar  447  PHE447     -0.0003
    109  CE2        5.1840   -4.4540  -32.1630 C.ar  447  PHE447     -0.0003
    110  CZ         4.7890   -4.1890  -33.4530 C.ar  447  PHE447     -0.0000
    111  N          2.4530    1.7900  -31.2730 N.3   451  HIS451     -0.1241
    112  CA         2.8700    2.1060  -32.6350 C.3   451  HIS451      0.1621
    113  C          2.1480    3.3370  -33.1640 C.2   451  HIS451      0.2264
    114  O          2.7810    4.2350  -33.7250 O.2   451  HIS451     -0.2867
    115  CB         2.6630    0.9050  -33.5630 C.3   451  HIS451      0.0745
    116  CG         3.9000    0.0940  -33.7160 C.ar  451  HIS451      0.0817
    117  ND1        4.3810   -0.7090  -32.7040 N.ar  451  HIS451     -0.2268
    118  CD2        4.8240    0.0490  -34.7080 C.ar  451  HIS451      0.1154
    119  CE1        5.5330   -1.2370  -33.0790 C.ar  451  HIS451      0.1986
    120  NE2        5.8220   -0.7950  -34.2900 N.ar  451  HIS451     -0.2212
    121  N          4.0150    5.6950  -35.9350 N.3   456  GLN456     -0.1245
    122  CA         4.3480    4.6480  -36.8820 C.3   456  GLN456      0.1566
    123  C          3.0990    4.2780  -37.6890 C.2   456  GLN456      0.2260
    124  O          1.9920    4.7710  -37.4310 O.2   456  GLN456     -0.2867
    125  CB         4.9370    3.4460  -36.1530 C.3   456  GLN456      0.0367
    126  CG         6.2530    3.7990  -35.4350 C.3   456  GLN456      0.0905
    127  CD         6.9010    2.5970  -34.7910 C.2   456  GLN456      0.2608
    128  OE1        7.3890    1.6930  -35.4780 O.2   456  GLN456     -0.2717
    129  NE2        6.9100    2.5730  -33.4630 N.am  456  GLN456     -0.0878
@<TRIPOS>BOND
     1    75    76    1
     2    64    65    1
     3    76    77    1
     4    76    79    1
     5    87    88    2
     6    87    86    1
     7    85    77   am
     8    85    86    1
     9    77    78    2
    10    66    65    1
    11    66    67    2
    12    65    68    1
    13    79    80    1
    14    93    94    1
    15    86    89    1
    16    96    95    2
    17    81    80   ar
    18    81    83   ar
    19    80    82   ar
    20    95    94    1
    21    68    69    1
    22    89    90    1
    23    71    69   ar
    24    71    73   ar
    25    69    70   ar
    26    94    97    1
    27    73    74   ar
    28    70    72   ar
    29    74    72   ar
    30    83    84   ar
    31    82    84   ar
    32   123   124    2
    33   123   122    1
    34    90    91   ar
    35    90    92   ar
    36    98    97    1
    37    97    99    1
    38   122   125    1
    39   122   121    1
    40    57    56    2
    41   125   126    1
    42    60    59   ar
    43    60    62   ar
    44    58    59    1
    45    58    55    1
    46   128   127    2
    47   126   127    1
    48    59    61   ar
    49    62    63   ar
    50    56    55    1
    51    61    63   ar
    52    55    54    1
    53   127   129   am
    54   118   120   ar
    55   118   116   ar
    56   120   119   ar
    57   108   110   ar
    58   108   106   ar
    59   114   113    2
    60   116   115    1
    61   116   117   ar
    62   115   112    1
    63   110   109   ar
    64    54    47   am
    65   113   112    1
    66   119   117   ar
    67    48    47    2
    68   106   105   ar
    69   112   111    1
    70    29    28    1
    71    47    46    1
    72    42    41    2
    73    30    28    1
    74   109   107   ar
    75    28    27    2
    76    44    43    1
    77    27    26    1
    78    41    40    1
    79   105   107   ar
    80   105   104    1
    81    43    40    1
    82    26    25    1
    83   103   102    2
    84    46    49    1
    85    46    45    1
    86    19    18    1
    87    40    39    1
    88   102   101    1
    89    25    24    1
    90    49    50    1
    91    37    36    2
    92   104   101    1
    93   101   100    1
    94    18    17   ar
    95    18    16   ar
    96    36    38   am
    97    36    35    1
    98    50    51    1
    99    24    21    1
   100    34    33    2
   101    17    15   ar
   102    52    51    2
   103     7     5    1
   104    51    53   am
   105    33    32    1
   106    23    22    2
   107    16    14   ar
   108    35    32    1
   109    21    22    1
   110    21    20    1
   111     6     5    1
   112    15    13   ar
   113    32    31    1
   114     5     2    1
   115    14    13   ar
   116    13    12    1
   117     2     3    1
   118     2     1    1
   119     4     3    2
   120    12     9    1
   121     9     8    1
   122     9    10    1
   123    11    10    2
