@<TRIPOS>MOLECULE
tmp/6b3dB02.pdb
 98 98 0 0 0
SMALL
GASTEIGER

@<TRIPOS>ATOM
      1  N        -11.2070    2.3700   34.9340 N.3    52  LEU52      -0.1231
      2  CA       -10.6890    2.9330   36.1700 C.3    52  LEU52       0.1693
      3  C        -10.8570    4.4460   36.1480 C.2    52  LEU52       0.2593
      4  O        -11.1870    5.0470   35.1220 O.2    52  LEU52      -0.2718
      5  CB        -9.2190    2.5510   36.4000 C.3    52  LEU52       0.0284
      6  CG        -8.1280    3.3590   35.6930 C.3    52  LEU52       0.0019
      7  CD1       -6.7790    3.0640   36.3250 C.3    52  LEU52       0.0001
      8  CD2       -8.0930    3.0550   34.2050 C.3    52  LEU52       0.0001
      9  N        -10.6330    5.0510   37.3110 N.am   53  SER53      -0.1938
     10  CA       -10.6790    6.4950   37.4790 C.3    53  SER53       0.2055
     11  C         -9.7350    6.8690   38.6100 C.2    53  SER53       0.2643
     12  O         -9.6170    6.1330   39.5930 O.2    53  SER53      -0.2714
     13  CB       -12.1000    6.9830   37.7870 C.3    53  SER53       0.2130
     14  OG       -12.0990    8.3400   38.1960 O.3    53  SER53      -0.2179
     15  N         -9.0600    8.0070   38.4660 N.am   54  HIS54      -0.1973
     16  CA        -8.1480    8.4960   39.4900 C.3    54  HIS54       0.1656
     17  C         -8.7870    9.5410   40.3970 C.2    54  HIS54       0.2291
     18  O         -8.0980   10.1130   41.2450 O.2    54  HIS54      -0.2864
     19  CB        -6.8800    9.0600   38.8460 C.3    54  HIS54       0.0771
     20  CG        -5.8640    8.0160   38.5020 C.ar   54  HIS54       0.0820
     21  ND1       -4.5650    8.3240   38.1600 N.ar   54  HIS54      -0.2267
     22  CD2       -5.9540    6.6650   38.4560 C.ar   54  HIS54       0.1154
     23  CE1       -3.9000    7.2090   37.9120 C.ar   54  HIS54       0.1986
     24  NE2       -4.7200    6.1890   38.0870 N.ar   54  HIS54      -0.2212
     25  N         -8.1340    6.0040   46.8910 N.3    61  ARG61      -0.1231
     26  CA        -7.3490    6.8110   45.9660 C.3    61  ARG61       0.1694
     27  C         -7.8840    6.7510   44.5400 C.2    61  ARG61       0.2593
     28  O         -7.1920    7.1790   43.6110 O.2    61  ARG61      -0.2718
     29  CB        -5.8820    6.3720   45.9750 C.3    61  ARG61       0.0321
     30  CG        -5.1920    6.4490   47.3250 C.3    61  ARG61       0.0489
     31  CD        -3.7180    6.0950   47.1840 C.3    61  ARG61       0.2205
     32  NE        -3.0760    5.8360   48.4700 N.pl3  61  ARG61      -0.0865
     33  CZ        -2.5130    6.7700   49.2300 C.cat  61  ARG61       0.5346
     34  NH1       -2.5130    8.0380   48.8380 N.pl3  61  ARG61       0.1354
     35  NH2       -1.9500    6.4350   50.3840 N.pl3  61  ARG61       0.1354
     36  N         -9.0850    6.2240   44.3420 N.am   62  GLY62      -0.1942
     37  CA        -9.6560    6.0560   43.0250 C.3    62  GLY62       0.2014
     38  C        -10.4950    4.7980   42.9690 C.2    62  GLY62       0.2639
     39  O        -10.8260    4.2010   43.9930 O.2    62  GLY62      -0.2714
     40  N        -10.8400    4.3880   41.7480 N.am   63  TRP63      -0.1959
     41  CA       -11.7040    3.2370   41.5280 C.3    63  TRP63       0.1771
     42  C        -11.1880    2.4270   40.3490 C.2    63  TRP63       0.2620
     43  O        -10.7820    2.9950   39.3310 O.2    63  TRP63      -0.2715
     44  CB       -13.1530    3.6630   41.2520 C.3    63  TRP63       0.0590
     45  CG       -13.6960    4.6690   42.2170 C.ar   63  TRP63       0.0006
     46  CD1      -13.5370    6.0240   42.1640 C.ar   63  TRP63       0.0946
     47  CD2      -14.5020    4.4030   43.3720 C.ar   63  TRP63       0.0152
     48  NE1      -14.1860    6.6180   43.2220 N.ar   63  TRP63      -0.2442
     49  CE2      -14.7900    5.6440   43.9740 C.ar   63  TRP63       0.0810
     50  CE3      -15.0060    3.2360   43.9550 C.ar   63  TRP63       0.0012
     51  CZ2      -15.5590    5.7510   45.1330 C.ar   63  TRP63       0.0191
     52  CZ3      -15.7690    3.3430   45.1060 C.ar   63  TRP63       0.0001
     53  CH2      -16.0390    4.5920   45.6810 C.ar   63  TRP63       0.0015
     54  N        -11.2250    1.1020   40.4800 N.am   64  THR64      -0.1951
     55  CA       -10.8100    0.2030   39.4080 C.3    64  THR64       0.1897
     56  C        -11.7580   -0.9840   39.3710 C.2    64  THR64       0.2313
     57  O        -11.9070   -1.6930   40.3710 O.2    64  THR64      -0.2863
     58  CB        -9.3670   -0.2670   39.6000 C.3    64  THR64       0.1794
     59  OG1       -8.5190    0.8730   39.7640 O.3    64  THR64      -0.2208
     60  CG2       -8.9030   -1.0530   38.3840 C.3    64  THR64       0.0378
     61  N        -12.8740   -4.4980   37.2070 N.3    66  HIS66      -0.1241
     62  CA       -12.4260   -5.4970   36.2470 C.3    66  HIS66       0.1621
     63  C        -13.5480   -6.4680   35.9110 C.2    66  HIS66       0.2264
     64  O        -14.4040   -6.7730   36.7490 O.2    66  HIS66      -0.2867
     65  CB       -11.2340   -6.3120   36.7720 C.3    66  HIS66       0.0745
     66  CG       -10.1030   -5.4810   37.2890 C.ar   66  HIS66       0.0817
     67  ND1       -9.9210   -5.2290   38.6310 N.ar   66  HIS66      -0.2268
     68  CD2       -9.0890   -4.8550   36.6460 C.ar   66  HIS66       0.1154
     69  CE1       -8.8460   -4.4780   38.7930 C.ar   66  HIS66       0.1986
     70  NE2       -8.3210   -4.2400   37.6040 N.ar   66  HIS66      -0.2212
     71  N         -5.3050   -9.1920   34.6880 N.3    74  LEU74      -0.1231
     72  CA        -5.5550   -7.8810   34.1090 C.3    74  LEU74       0.1693
     73  C         -4.9760   -6.7780   34.9820 C.2    74  LEU74       0.2593
     74  O         -5.1020   -6.8120   36.2090 O.2    74  LEU74      -0.2718
     75  CB        -7.0580   -7.6610   33.9240 C.3    74  LEU74       0.0284
     76  CG        -7.5350   -6.3510   33.3060 C.3    74  LEU74       0.0019
     77  CD1       -6.9770   -6.1880   31.9010 C.3    74  LEU74       0.0001
     78  CD2       -9.0550   -6.3210   33.2960 C.3    74  LEU74       0.0001
     79  N         -4.3470   -5.7980   34.3390 N.am   75  THR75      -0.1939
     80  CA        -3.8950   -4.5850   35.0050 C.3    75  THR75       0.2028
     81  C         -4.2590   -3.3890   34.1400 C.2    75  THR75       0.2642
     82  O         -3.9930   -3.3830   32.9330 O.2    75  THR75      -0.2714
     83  CB        -2.3850   -4.6040   35.2710 C.3    75  THR75       0.1808
     84  OG1       -2.0510   -5.7540   36.0570 O.3    75  THR75      -0.2208
     85  CG2       -1.9670   -3.3550   36.0280 C.3    75  THR75       0.0379
     86  N         -4.8830   -2.3910   34.7570 N.am   76  LEU76      -0.1963
     87  CA        -5.2520   -1.1520   34.0950 C.3    76  LEU76       0.1728
     88  C         -4.4840   -0.0100   34.7380 C.2    76  LEU76       0.2616
     89  O         -4.1070   -0.0830   35.9100 O.2    76  LEU76      -0.2715
     90  CB        -6.7560   -0.8880   34.1980 C.3    76  LEU76       0.0311
     91  CG        -7.6830   -2.0280   33.7710 C.3    76  LEU76       0.0022
     92  CD1       -9.1410   -1.6520   33.9970 C.3    76  LEU76       0.0001
     93  CD2       -7.4400   -2.3950   32.3110 C.3    76  LEU76       0.0001
     94  N         -4.2460    1.0450   33.9660 N.am   77  ALA77      -0.1977
     95  CA        -3.5010    2.1760   34.4950 C.3    77  ALA77       0.1597
     96  C         -3.8520    3.4260   33.7040 C.2    77  ALA77       0.2287
     97  O         -4.3140    3.3560   32.5610 O.2    77  ALA77      -0.2864
     98  CB        -1.9890    1.9200   34.4630 C.3    77  ALA77       0.0319
@<TRIPOS>BOND
     1    77    76    1
     2    93    91    1
     3    97    96    2
     4    82    81    2
     5    78    76    1
     6    76    75    1
     7    96    95    1
     8    91    92    1
     9    91    90    1
    10    75    72    1
    11    94    95    1
    12    94    88   am
    13    87    90    1
    14    87    88    1
    15    87    86    1
    16    72    71    1
    17    72    73    1
    18    81    86   am
    19    81    80    1
    20     8     6    1
    21    79    73   am
    22    79    80    1
    23    98    95    1
    24    88    89    2
    25     1     2    1
    26    73    74    2
    27    80    83    1
    28     4     3    2
    29    83    85    1
    30    83    84    1
    31     6     7    1
    32     6     5    1
    33    63    62    1
    34    63    64    2
    35     3     2    1
    36     3     9   am
    37     2     5    1
    38    62    65    1
    39    62    61    1
    40    68    66   ar
    41    68    70   ar
    42    65    66    1
    43    66    67   ar
    44     9    10    1
    45    10    13    1
    46    10    11    1
    47    70    69   ar
    48    13    14    1
    49    23    24   ar
    50    23    21   ar
    51    24    22   ar
    52    21    20   ar
    53    60    58    1
    54    22    20   ar
    55    15    11   am
    56    15    16    1
    57    20    19    1
    58    11    12    2
    59    67    69   ar
    60    19    16    1
    61    43    42    2
    62    56    55    1
    63    56    57    2
    64    55    58    1
    65    55    54    1
    66    16    17    1
    67    58    59    1
    68    42    54   am
    69    42    41    1
    70    17    18    2
    71    44    41    1
    72    44    45    1
    73    41    40    1
    74    40    38   am
    75    46    45   ar
    76    46    48   ar
    77    45    47   ar
    78    38    37    1
    79    38    39    2
    80    37    36    1
    81    48    49   ar
    82    47    50   ar
    83    47    49   ar
    84    28    27    2
    85    50    52   ar
    86    49    51   ar
    87    36    27   am
    88    27    26    1
    89    52    53   ar
    90    51    53   ar
    91    26    29    1
    92    26    25    1
    93    29    30    1
    94    31    30    1
    95    31    32    1
    96    32    33    2
    97    34    33    1
    98    33    35    1
