@<TRIPOS>MOLECULE
tmp/6b3eA00.pdb
 181 175 0 0 0
SMALL
GASTEIGER

@<TRIPOS>ATOM
      1  N          9.7090   23.2830  -10.8480 N.3    16  ILE16      -0.1231
      2  CA         9.4170   22.7360   -9.5230 C.3    16  ILE16       0.1692
      3  C          8.0980   23.2850   -8.9790 C.2    16  ILE16       0.2592
      4  O          7.9310   24.4980   -8.9100 O.2    16  ILE16      -0.2718
      5  CB        10.5830   22.9860   -8.5410 C.3    16  ILE16       0.0266
      6  CG1       11.8750   22.3600   -9.0500 C.3    16  ILE16       0.0019
      7  CG2       10.2460   22.4900   -7.1390 C.3    16  ILE16       0.0020
      8  CD1       13.1280   22.7530   -8.3010 C.3    16  ILE16       0.0001
      9  N          7.1800   22.3990   -8.5770 N.am   17  ILE17      -0.1966
     10  CA         5.8940   22.7830   -8.0020 C.3    17  ILE17       0.1730
     11  C          5.7980   22.4740   -6.5340 C.2    17  ILE17       0.2656
     12  O          4.9480   23.0340   -5.8450 O.2    17  ILE17      -0.2711
     13  CB         4.6850   22.2090   -8.7620 C.3    17  ILE17       0.0290
     14  CG1        4.7310   20.7060   -8.8640 C.3    17  ILE17       0.0022
     15  CG2        4.6220   22.7920  -10.1340 C.3    17  ILE17       0.0023
     16  CD1        3.4380   20.1280   -9.0540 C.3    17  ILE17       0.0001
     17  N          6.6610   21.6060   -6.0500 N.am   18  GLY18      -0.1716
     18  CA         6.5870   21.2460   -4.6560 C.2    18  GLY18       0.1480
     19  C          7.8180   20.6260   -4.0930 C.2    18  GLY18       0.2820
     20  O          8.7390   20.2290   -4.8050 O.2    18  GLY18      -0.2669
     21  N          7.8120   20.5720   -2.7960 N.am   19  GLU19      -0.1943
     22  CA         8.8370   19.9070   -2.0590 C.3    19  GLU19       0.1605
     23  C          8.1320   18.6920   -1.5680 C.2    19  GLU19       0.2287
     24  O          6.9980   18.7700   -1.0990 O.2    19  GLU19      -0.2864
     25  CB         9.3620   20.7590   -0.9000 C.3    19  GLU19       0.0415
     26  CG        10.8680   20.9170   -0.9470 C.3    19  GLU19       0.1163
     27  CD        11.3210   21.8530   -2.0500 C.2    19  GLU19       0.3649
     28  OE1       11.0220   21.5630   -3.2300 O.co2  19  GLU19      -0.2457
     29  OE2       11.9470   22.8890   -1.7430 O.co2  19  GLU19      -0.2457
     30  N          8.8670   17.7810   -6.4180 N.3    25  VAL25      -0.1245
     31  CA         7.7270   17.5120   -7.2760 C.3    25  VAL25       0.1561
     32  C          7.8370   18.4800   -8.4530 C.2    25  VAL25       0.2260
     33  O          8.0460   19.6670   -8.2420 O.2    25  VAL25      -0.2867
     34  CB         6.3840   17.6190   -6.5420 C.3    25  VAL25       0.0252
     35  CG1        5.2390   17.2710   -7.4550 C.3    25  VAL25       0.0019
     36  CG2        6.3550   16.7280   -5.3310 C.3    25  VAL25       0.0019
     37  N          6.4450   19.8580  -12.4420 N.3    27  LYS27      -0.1245
     38  CA         5.4470   19.9820  -13.5070 C.3    27  LYS27       0.1561
     39  C          6.2470   19.6320  -14.7460 C.2    27  LYS27       0.2260
     40  O          7.4210   19.9920  -14.8380 O.2    27  LYS27      -0.2867
     41  CB         4.9210   21.4190  -13.6290 C.3    27  LYS27       0.0271
     42  CG         3.9330   21.6080  -14.7690 C.3    27  LYS27       0.0035
     43  CD         3.4110   22.9890  -14.7320 C.3    27  LYS27       0.0206
     44  CE         2.3960   23.2600  -15.7930 C.3    27  LYS27       0.1093
     45  NZ         1.9530   24.6820  -15.7730 N.3    27  LYS27      -0.1314
     46  N          2.5380   15.6430  -13.3120 N.3    38  ALA38      -0.1245
     47  CA         3.3720   15.9490  -12.1710 C.3    38  ALA38       0.1562
     48  C          4.3140   14.7460  -11.9600 C.2    38  ALA38       0.2260
     49  O          3.8870   13.5800  -12.0660 O.2    38  ALA38      -0.2867
     50  CB         2.5360   16.1790  -10.9390 C.3    38  ALA38       0.0290
     51  N          6.8990   13.1180   -9.1800 N.3    40  LYS40      -0.1245
     52  CA         7.4070   13.0780   -7.8090 C.3    40  LYS40       0.1561
     53  C          8.6970   12.2930   -7.8010 C.2    40  LYS40       0.2260
     54  O          8.6910   11.0850   -8.0540 O.2    40  LYS40      -0.2867
     55  CB         6.3200   12.4910   -6.8800 C.3    40  LYS40       0.0271
     56  CG         6.7450   11.7540   -5.6080 C.3    40  LYS40       0.0035
     57  CD         6.1830   12.3450   -4.3190 C.3    40  LYS40       0.0206
     58  CE         4.7220   12.0780   -4.0850 C.3    40  LYS40       0.1093
     59  NZ         4.3840   12.2660   -2.6580 N.3    40  LYS40      -0.1314
     60  N         -5.7810   10.5610   -6.0720 N.3    71  VAL71      -0.1245
     61  CA        -4.6760   10.6550   -7.0040 C.3    71  VAL71       0.1561
     62  C         -4.3380    9.2780   -7.5940 C.2    71  VAL71       0.2260
     63  O         -4.3510    8.2640   -6.8970 O.2    71  VAL71      -0.2867
     64  CB        -3.5280   11.3770   -6.3060 C.3    71  VAL71       0.0252
     65  CG1       -2.3640   10.4530   -5.9710 C.3    71  VAL71       0.0019
     66  CG2       -3.1040   12.6050   -7.0920 C.3    71  VAL71       0.0019
     67  N          1.9260   11.3790  -12.2620 N.3    87  PHE87      -0.1227
     68  CA         0.5070   11.6520  -12.0350 C.3    87  PHE87       0.1736
     69  C         -0.0100   12.6670  -13.0610 C.2    87  PHE87       0.2595
     70  O          0.7570   13.4510  -13.6000 O.2    87  PHE87      -0.2718
     71  CB         0.3030   12.2060  -10.6380 C.3    87  PHE87       0.0547
     72  CG         0.7830   11.3380   -9.5010 C.ar   87  PHE87      -0.0202
     73  CD1        2.0900   11.4320   -9.0270 C.ar   87  PHE87      -0.0042
     74  CD2       -0.0830   10.4830   -8.8540 C.ar   87  PHE87      -0.0042
     75  CE1        2.5270   10.6330   -7.9670 C.ar   87  PHE87      -0.0003
     76  CE2        0.3520    9.7320   -7.7630 C.ar   87  PHE87      -0.0003
     77  CZ         1.6550    9.8010   -7.3450 C.ar   87  PHE87      -0.0000
     78  N         -1.3060   12.6600  -13.3250 N.am   88  GLU88      -0.1965
     79  CA        -1.9420   13.6480  -14.1870 C.3    88  GLU88       0.1733
     80  C         -1.7220   15.0250  -13.5080 C.2    88  GLU88       0.2616
     81  O         -1.8030   15.1480  -12.2820 O.2    88  GLU88      -0.2715
     82  CB        -3.4440   13.3340  -14.2440 C.3    88  GLU88       0.0429
     83  CG        -4.2410   14.0590  -15.3060 C.3    88  GLU88       0.1163
     84  CD        -5.6720   14.4020  -14.9300 C.2    88  GLU88       0.3649
     85  OE1       -6.3710   13.5290  -14.3600 O.co2  88  GLU88      -0.2457
     86  OE2       -6.0960   15.5470  -15.2210 O.co2  88  GLU88      -0.2457
     87  N         -1.3940   16.0310  -14.2780 N.am   89  TYR89      -0.1960
     88  CA        -1.1740   17.3140  -13.6520 C.3    89  TYR89       0.1771
     89  C         -2.5270   17.9790  -13.3480 C.2    89  TYR89       0.2619
     90  O         -3.4260   17.9890  -14.2020 O.2    89  TYR89      -0.2715
     91  CB        -0.2720   18.1940  -14.5150 C.3    89  TYR89       0.0574
     92  CG        -0.0810   19.5750  -13.9400 C.ar   89  TYR89      -0.0198
     93  CD1        0.7240   19.7830  -12.8250 C.ar   89  TYR89      -0.0009
     94  CD2       -0.7940   20.6590  -14.4370 C.ar   89  TYR89      -0.0009
     95  CE1        0.8350   21.0470  -12.2420 C.ar   89  TYR89       0.0417
     96  CE2       -0.6810   21.9190  -13.8760 C.ar   89  TYR89       0.0417
     97  CZ         0.1310   22.1110  -12.7830 C.ar   89  TYR89       0.1957
     98  OH         0.2220   23.3980  -12.3270 O.3    89  TYR89      -0.2866
     99  N         -2.6720   18.5200  -12.1210 N.am   90  MET90      -0.1963
    100  CA        -3.9020   19.1730  -11.6300 C.3    90  MET90       0.1736
    101  C         -3.6580   20.6560  -11.6070 C.2    90  MET90       0.2616
    102  O         -2.6430   21.0770  -11.0670 O.2    90  MET90      -0.2715
    103  CB        -4.2750   18.6620  -10.2200 C.3    90  MET90       0.0427
    104  CG        -4.6690   17.2020  -10.1410 C.3    90  MET90       0.0599
    105  SD        -6.1510   16.7880  -11.0750 S.3    90  MET90      -0.1393
    106  CE        -7.5400   17.2750   -9.9060 C.3    90  MET90       0.0692
    107  N         -4.5760   21.4550  -12.1510 N.am   91  ASP91      -0.1957
    108  CA        -4.3770   22.8980  -12.2790 C.3    91  ASP91       0.1840
    109  C         -4.0430   23.6300  -10.9740 C.2    91  ASP91       0.2622
    110  O         -3.1450   24.4740  -10.9590 O.2    91  ASP91      -0.2715
    111  CB        -5.5750   23.5420  -12.9700 C.3    91  ASP91       0.1450
    112  CG        -5.8430   22.9270  -14.3240 C.2    91  ASP91       0.3671
    113  OD1       -5.0240   23.1290  -15.2420 O.co2  91  ASP91      -0.2456
    114  OD2       -6.8620   22.2450  -14.4680 O.co2  91  ASP91      -0.2456
    115  N         -4.6850   23.2570   -9.8810 N.am   92  HIS92      -0.1959
    116  CA        -4.5010   23.9510   -8.6140 C.3    92  HIS92       0.1787
    117  C         -4.4760   23.0290   -7.4290 C.2    92  HIS92       0.2620
    118  O         -4.7790   21.8500   -7.5440 O.2    92  HIS92      -0.2715
    119  CB        -5.6960   24.9170   -8.3740 C.3    92  HIS92       0.0785
    120  CG        -6.0920   25.7290   -9.5610 C.ar   92  HIS92       0.0821
    121  ND1       -5.4190   26.8960   -9.8830 N.ar   92  HIS92      -0.2267
    122  CD2       -7.0790   25.5170  -10.4670 C.ar   92  HIS92       0.1154
    123  CE1       -5.9990   27.3390  -10.9810 C.ar   92  HIS92       0.1986
    124  NE2       -7.0100   26.5450  -11.3610 N.ar   92  HIS92      -0.2212
    125  N         -4.1680   23.6110   -6.2690 N.am   93  ASP93      -0.1971
    126  CA        -4.3600   22.9860   -4.9920 C.3    93  ASP93       0.1709
    127  C         -5.1160   24.0020   -4.1200 C.2    93  ASP93       0.2293
    128  O         -5.0230   25.2270   -4.3400 O.2    93  ASP93      -0.2864
    129  CB        -3.0660   22.4500   -4.3680 C.3    93  ASP93       0.1436
    130  CG        -2.1060   23.5280   -3.8550 C.2    93  ASP93       0.3671
    131  OD1       -2.4250   24.1850   -2.8460 O.co2  93  ASP93      -0.2456
    132  OD2       -1.0530   23.7480   -4.4950 O.co2  93  ASP93      -0.2456
    133  N         -3.0040   22.0730    0.9270 N.3   137  SER137     -0.1202
    134  CA        -1.9770   21.8380   -0.0860 C.3   137  SER137      0.2020
    135  C         -2.0260   20.3950   -0.6860 C.2   137  SER137      0.2618
    136  O         -1.4500   20.1550   -1.7550 O.2   137  SER137     -0.2717
    137  CB        -0.6030   22.1670    0.4790 C.3   137  SER137      0.2103
    138  OG         0.0610   21.0370    1.0200 O.3   137  SER137     -0.2182
    139  N         -2.7230   19.4560   -0.0010 N.am  138  ASN138     -0.1974
    140  CA        -2.8410   18.0630   -0.4290 C.3   138  ASN138      0.1688
    141  C         -4.1840   17.7770   -1.0930 C.2   138  ASN138      0.2292
    142  O         -4.4810   16.6300   -1.4390 O.2   138  ASN138     -0.2864
    143  CB        -2.5320   17.0740    0.7030 C.3   138  ASN138      0.1181
    144  CG        -1.1110   17.0380    1.0690 C.2   138  ASN138      0.2629
    145  OD1       -0.2410   17.4030    0.2800 O.2   138  ASN138     -0.2716
    146  ND2       -0.8320   16.6040    2.2810 N.am  138  ASN138     -0.0877
    147  N         -6.1480   18.6620   -4.4450 N.3   140  LEU140     -0.1245
    148  CA        -5.9490   19.2020   -5.7690 C.3   140  LEU140      0.1561
    149  C         -7.2760   19.4280   -6.4410 C.2   140  LEU140      0.2260
    150  O         -8.2310   18.6970   -6.2200 O.2   140  LEU140     -0.2867
    151  CB        -5.0780   18.2440   -6.6040 C.3   140  LEU140      0.0270
    152  CG        -3.7850   17.7130   -5.9760 C.3   140  LEU140      0.0019
    153  CD1       -3.2320   16.5580   -6.7520 C.3   140  LEU140      0.0001
    154  CD2       -2.7730   18.7960   -5.7770 C.3   140  LEU140      0.0001
    155  N         -4.6820   13.9790   -2.4650 N.3   150  ALA150     -0.1231
    156  CA        -3.3020   13.6840   -2.8350 C.3   150  ALA150      0.1694
    157  C         -2.3860   13.3890   -1.6600 C.2   150  ALA150      0.2592
    158  O         -2.8270   13.4480   -0.5160 O.2   150  ALA150     -0.2718
    159  CB        -2.7580   14.8350   -3.6440 C.3   150  ALA150      0.0304
    160  N         -1.1090   13.0880   -1.9320 N.am  151  ASP151     -0.1974
    161  CA        -0.0400   12.8870   -0.9510 C.3   151  ASP151      0.1709
    162  C         -0.3110   11.7610    0.0400 C.2   151  ASP151      0.2293
    163  O         -0.6780   12.0010    1.1970 O.2   151  ASP151     -0.2864
    164  CB         0.3010   14.2030   -0.2370 C.3   151  ASP151      0.1436
    165  CG         1.5660   14.1670    0.5680 C.2   151  ASP151      0.3671
    166  OD1        2.2170   13.1050    0.6010 O.co2 151  ASP151     -0.2456
    167  OD2        1.9150   15.2060    1.1700 O.co2 151  ASP151     -0.2456
    168  N         -4.6800   31.2910  -14.2430 N.3   309  TRP309     -0.1241
    169  CA        -3.4100   31.8580  -13.8080 C.3   309  TRP309      0.1605
    170  C         -2.2340   31.6120  -14.7290 C.2   309  TRP309      0.2264
    171  O         -1.4490   32.5240  -14.9770 O.2   309  TRP309     -0.2867
    172  CB        -3.1220   31.4080  -12.3600 C.3   309  TRP309      0.0550
    173  CG        -1.6950   31.4290  -11.9350 C.ar  309  TRP309      0.0003
    174  CD1       -1.0250   32.4670  -11.3670 C.ar  309  TRP309      0.0946
    175  CD2       -0.7590   30.3530  -12.0310 C.ar  309  TRP309      0.0152
    176  NE1        0.2770   32.1110  -11.1130 N.ar  309  TRP309     -0.2442
    177  CE2        0.4650   30.8170  -11.5170 C.ar  309  TRP309      0.0810
    178  CE3       -0.8340   29.0450  -12.5190 C.ar  309  TRP309      0.0012
    179  CZ2        1.6010   30.0180  -11.4670 C.ar  309  TRP309      0.0191
    180  CZ3        0.2960   28.2530  -12.4680 C.ar  309  TRP309      0.0001
    181  CH2        1.4950   28.7390  -11.9450 C.ar  309  TRP309      0.0015
@<TRIPOS>BOND
     1    44    45    1
     2    44    43    1
     3    83    84    1
     4    83    82    1
     5   113   112   ar
     6    86    84   ar
     7   171   170    2
     8    84    85   ar
     9    40    39    2
    10    42    43    1
    11    42    41    1
    12    39    38    1
    13   170   169    1
    14    91    92    1
    15    91    88    1
    16   114   112   ar
    17    94    92   ar
    18    94    96   ar
    19   112   111    1
    20    87    88    1
    21    87    80   am
    22    82    79    1
    23   168   169    1
    24    90    89    2
    25    79    80    1
    26    79    78    1
    27    92    93   ar
    28    96    97   ar
    29   169   172    1
    30    88    89    1
    31    41    38    1
    32    70    69    2
    33    80    81    2
    34    38    37    1
    35    89    99   am
    36    78    69   am
    37    46    47    1
    38    69    68    1
    39   111   108    1
    40    93    95   ar
    41    97    98    1
    42    97    95   ar
    43   178   180   ar
    44   178   175   ar
    45   180   181   ar
    46   172   173    1
    47   108   107    1
    48   108   109    1
    49    67    68    1
    50    47    48    1
    51    47    50    1
    52   107   101   am
    53    99   100    1
    54    49    48    2
    55    68    71    1
    56   175   173   ar
    57   175   177   ar
    58   181   179   ar
    59   173   174   ar
    60   100   101    1
    61   100   103    1
    62   101   102    2
    63   177   179   ar
    64   177   176   ar
    65   174   176   ar
    66   124   123   ar
    67   124   122   ar
    68   105   104    1
    69   105   106    1
    70   123   121   ar
    71   109   110    2
    72   109   115   am
    73     1     2    1
    74    71    72    1
    75   122   120   ar
    76   103   104    1
    77    15    13    1
    78   121   120   ar
    79   115   116    1
    80   120   119    1
    81     2     3    1
    82     2     5    1
    83    72    73   ar
    84    72    74   ar
    85    51    52    1
    86    16    14    1
    87     6     5    1
    88     6     8    1
    89    73    75   ar
    90     3     4    2
    91     3     9   am
    92    14    13    1
    93    74    76   ar
    94    13    10    1
    95   116   119    1
    96   116   117    1
    97     9    10    1
    98     5     7    1
    99    32    33    2
   100    32    31    1
   101    54    53    2
   102    10    11    1
   103    75    77   ar
   104    52    53    1
   105    52    55    1
   106    76    77   ar
   107    62    61    1
   108    62    63    2
   109   118   117    2
   110    35    34    1
   111   117   125   am
   112    31    34    1
   113    31    30    1
   114    66    64    1
   115    61    64    1
   116    61    60    1
   117    55    56    1
   118   153   152    1
   119   151   152    1
   120   151   148    1
   121    34    36    1
   122    11    17    1
   123    11    12    2
   124   149   150    2
   125   149   148    1
   126    64    65    1
   127   125   126    1
   128    17    18    2
   129   152   154    1
   130   148   147    1
   131    56    57    1
   132   126   129    1
   133   126   127    1
   134    20    19    2
   135    18    19    1
   136   132   130   ar
   137   129   130    1
   138   128   127    2
   139    57    58    1
   140    19    21   am
   141    58    59    1
   142   130   131   ar
   143   159   156    1
   144    28    27   ar
   145   156   155    1
   146   156   157    1
   147    21    22    1
   148    22    23    1
   149    22    25    1
   150    27    29   ar
   151    27    26    1
   152   160   157   am
   153   160   161    1
   154   136   135    2
   155   157   158    2
   156    23    24    2
   157   142   141    2
   158   141   140    1
   159   161   164    1
   160   161   162    1
   161    26    25    1
   162   135   134    1
   163   135   139   am
   164   140   139    1
   165   140   143    1
   166   164   165    1
   167   134   137    1
   168   134   133    1
   169   162   163    2
   170   145   144    2
   171   137   138    1
   172   165   166   ar
   173   165   167   ar
   174   143   144    1
   175   144   146   am
