@<TRIPOS>MOLECULE
tmp/6b3hA00.pdb
 100 95 0 0 0
SMALL
GASTEIGER

@<TRIPOS>ATOM
      1  N        -14.8220   13.9270   -2.3700 N.3    27  GLY27      -0.1210
      2  CA       -16.0790   14.6240   -2.0950 C.3    27  GLY27       0.1956
      3  C        -17.1480   14.4180   -3.1620 C.2    27  GLY27       0.2612
      4  O        -18.3160   14.7540   -2.9420 O.2    27  GLY27      -0.2717
      5  N        -16.7660   13.8700   -4.3410 N.am   28  ALA28      -0.1965
      6  CA       -17.7000   13.6820   -5.4330 C.3    28  ALA28       0.1728
      7  C        -18.2680   12.2740   -5.3920 C.2    28  ALA28       0.2616
      8  O        -17.5070   11.3110   -5.4260 O.2    28  ALA28      -0.2715
      9  CB       -16.9960   13.9030   -6.7640 C.3    28  ALA28       0.0334
     10  N        -19.5960   12.1500   -5.3720 N.am   29  ASP29      -0.1957
     11  CA       -20.2150   10.8160   -5.3500 C.3    29  ASP29       0.1840
     12  C        -19.9840   10.0870   -6.6570 C.2    29  ASP29       0.2622
     13  O        -19.8230    8.8530   -6.6740 O.2    29  ASP29      -0.2715
     14  CB       -21.7400   10.9430   -5.1630 C.3    29  ASP29       0.1450
     15  CG       -22.2150   11.5190   -3.8430 C.2    29  ASP29       0.3671
     16  OD1      -21.3900   11.5940   -2.8830 O.co2  29  ASP29      -0.2456
     17  OD2      -23.3980   11.9060   -3.7690 O.co2  29  ASP29      -0.2456
     18  N        -19.9970   10.8420   -7.7700 N.am   30  ASP30      -0.1971
     19  CA       -19.8320   10.2490   -9.0950 C.3    30  ASP30       0.1709
     20  C        -18.8530   11.0210   -9.9430 C.2    30  ASP30       0.2293
     21  O        -18.4860   12.1480   -9.6180 O.2    30  ASP30      -0.2864
     22  CB       -21.1900   10.1020   -9.8040 C.3    30  ASP30       0.1436
     23  CG       -22.1420    9.1590   -9.0870 C.2    30  ASP30       0.3671
     24  OD1      -21.9700    7.9380   -9.2160 O.co2  30  ASP30      -0.2456
     25  OD2      -23.0490    9.6500   -8.3880 O.co2  30  ASP30      -0.2456
     26  N        -17.3750   13.0610  -13.1290 N.3    32  VAL32      -0.1245
     27  CA       -17.8480   14.1190  -14.0360 C.3    32  VAL32       0.1561
     28  C        -16.7180   14.4910  -14.9790 C.2    32  VAL32       0.2260
     29  O        -15.6430   14.9110  -14.5240 O.2    32  VAL32      -0.2867
     30  CB       -18.3760   15.3830  -13.3050 C.3    32  VAL32       0.0252
     31  CG1      -19.1460   16.2790  -14.2790 C.3    32  VAL32       0.0019
     32  CG2      -19.2340   15.0150  -12.0870 C.3    32  VAL32       0.0019
     33  N        -29.5020   15.0940  -16.5240 N.3    45  LYS45      -0.1231
     34  CA       -29.4860   15.1920  -15.0670 C.3    45  LYS45       0.1693
     35  C        -28.9270   16.5510  -14.7090 C.2    45  LYS45       0.2592
     36  O        -28.1610   17.1200  -15.4850 O.2    45  LYS45      -0.2718
     37  CB       -28.5340   14.0780  -14.5470 C.3    45  LYS45       0.0285
     38  CG       -28.3700   13.9350  -13.0320 C.3    45  LYS45       0.0035
     39  CD       -27.5350   12.7020  -12.7200 C.3    45  LYS45       0.0206
     40  CE       -27.4040   12.4120  -11.2330 C.3    45  LYS45       0.1093
     41  NZ       -28.7040   12.0080  -10.6210 N.3    45  LYS45      -0.1314
     42  N        -29.2910   17.0580  -13.5240 N.am   46  MET46      -0.1965
     43  CA       -28.7340   18.2880  -12.9900 C.3    46  MET46       0.1736
     44  C        -27.9810   17.9040  -11.7170 C.2    46  MET46       0.2616
     45  O        -28.5080   17.1520  -10.8790 O.2    46  MET46      -0.2715
     46  CB       -29.8360   19.3240  -12.6590 C.3    46  MET46       0.0427
     47  CG       -30.4070   19.9830  -13.8840 C.3    46  MET46       0.0599
     48  SD       -29.3910   21.3950  -14.4090 S.3    46  MET46      -0.1393
     49  CE       -30.0330   22.6950  -13.2820 C.3    46  MET46       0.0692
     50  N        -26.7570   18.4230  -11.5580 N.am   47  ILE47      -0.1963
     51  CA       -25.9620   18.1310  -10.3600 C.3    47  ILE47       0.1727
     52  C        -25.4620   19.4550   -9.7740 C.2    47  ILE47       0.2617
     53  O        -25.0990   20.3660  -10.5070 O.2    47  ILE47      -0.2715
     54  CB       -24.8120   17.1420  -10.6260 C.3    47  ILE47       0.0290
     55  CG1      -23.8160   17.6810  -11.7040 C.3    47  ILE47       0.0022
     56  CG2      -25.3660   15.7460  -11.0090 C.3    47  ILE47       0.0023
     57  CD1      -22.5170   16.8800  -11.8170 C.3    47  ILE47       0.0001
     58  N        -25.4950   19.5420   -8.4590 N.am   48  GLY48      -0.1940
     59  CA       -25.0990   20.7630   -7.7740 C.3    48  GLY48       0.2014
     60  C        -23.9040   20.6440   -6.8770 C.2    48  GLY48       0.2639
     61  O        -23.4210   19.5500   -6.5650 O.2    48  GLY48      -0.2714
     62  N        -23.4070   21.8010   -6.4970 N.am   49  GLY49      -0.1939
     63  CA       -22.2490   21.8630   -5.6210 C.3    49  GLY49       0.2014
     64  C        -21.9350   23.3120   -5.3680 C.2    49  GLY49       0.2638
     65  O        -22.8050   24.1660   -5.5640 O.2    49  GLY49      -0.2714
     66  N        -20.6920   23.5950   -4.9380 N.am   50  ILE50      -0.1977
     67  CA       -20.2640   24.9800   -4.7300 C.3    50  ILE50       0.1596
     68  C        -20.4990   25.7150   -6.0660 C.2    50  ILE50       0.2287
     69  O        -20.0780   25.2250   -7.1170 O.2    50  ILE50      -0.2864
     70  CB       -18.7480   24.9990   -4.3630 C.3    50  ILE50       0.0276
     71  CG1      -18.5110   24.3640   -2.9360 C.3    50  ILE50       0.0022
     72  CG2      -18.1320   26.4320   -4.5380 C.3    50  ILE50       0.0022
     73  CD1      -18.2460   25.2380   -1.8240 C.3    50  ILE50       0.0001
     74  N        -25.6120   24.7150   -9.9270 N.3    53  PHE53      -0.1241
     75  CA       -25.8140   23.4830  -10.6990 C.3    53  PHE53       0.1605
     76  C        -25.3730   23.5430  -12.1330 C.2    53  PHE53       0.2264
     77  O        -25.3280   24.6150  -12.7430 O.2    53  PHE53      -0.2867
     78  CB       -27.3340   23.1430  -10.7420 C.3    53  PHE53       0.0534
     79  CG       -27.8760   22.6500   -9.4330 C.ar   53  PHE53      -0.0203
     80  CD1      -28.0620   23.5230   -8.3670 C.ar   53  PHE53      -0.0042
     81  CD2      -28.1750   21.3110   -9.2510 C.ar   53  PHE53      -0.0042
     82  CE1      -28.5270   23.0570   -7.1400 C.ar   53  PHE53      -0.0003
     83  CE2      -28.6340   20.8440   -8.0160 C.ar   53  PHE53      -0.0003
     84  CZ       -28.8150   21.7280   -6.9760 C.ar   53  PHE53      -0.0000
     85  N        -20.7650   11.1370  -15.7970 N.3    76  LEU76      -0.1245
     86  CA       -21.6320   12.2900  -16.0840 C.3    76  LEU76       0.1561
     87  C        -20.8170   13.2030  -16.9810 C.2    76  LEU76       0.2260
     88  O        -19.6870   13.5590  -16.6360 O.2    76  LEU76      -0.2867
     89  CB       -22.0090   13.0400  -14.7880 C.3    76  LEU76       0.0270
     90  CG       -22.6190   12.1650  -13.7010 C.3    76  LEU76       0.0019
     91  CD1      -22.9350   12.9830  -12.4780 C.3    76  LEU76       0.0001
     92  CD2      -23.8760   11.4660  -14.1980 C.3    76  LEU76       0.0001
     93  N        -13.3790   15.1890  -12.8730 N.3    84  ILE84      -0.1245
     94  CA       -13.2750   14.6460  -11.5120 C.3    84  ILE84       0.1561
     95  C        -13.6130   13.1740  -11.4630 C.2    84  ILE84       0.2260
     96  O        -14.6230   12.7490  -12.0380 O.2    84  ILE84      -0.2867
     97  CB       -14.0910   15.4670  -10.4710 C.3    84  ILE84       0.0252
     98  CG1      -15.5860   15.4720  -10.7910 C.3    84  ILE84       0.0019
     99  CG2      -13.5090   16.9060  -10.2900 C.3    84  ILE84       0.0019
    100  CD1      -16.4790   16.4160   -9.8490 C.3    84  ILE84       0.0001
@<TRIPOS>BOND
     1    87    88    2
     2    87    86    1
     3    33    34    1
     4    86    85    1
     5    86    89    1
     6    36    35    2
     7    34    35    1
     8    34    37    1
     9    28    29    2
    10    28    27    1
    11    89    90    1
    12    35    42   am
    13    37    38    1
    14    48    47    1
    15    48    49    1
    16    31    30    1
    17    92    90    1
    18    27    30    1
    19    27    26    1
    20    47    46    1
    21    90    91    1
    22    42    43    1
    23    30    32    1
    24    38    39    1
    25    43    46    1
    26    43    44    1
    27    93    94    1
    28    77    76    2
    29    39    40    1
    30    76    75    1
    31    96    95    2
    32    57    55    1
    33    44    50   am
    34    44    45    2
    35    55    54    1
    36    50    51    1
    37    94    95    1
    38    94    97    1
    39    40    41    1
    40    56    54    1
    41    98    97    1
    42    98   100    1
    43    78    75    1
    44    78    79    1
    45    75    74    1
    46    54    51    1
    47    53    52    2
    48    97    99    1
    49    51    52    1
    50    20    21    2
    51    20    19    1
    52    22    19    1
    53    22    23    1
    54    52    58   am
    55    79    81   ar
    56    79    80   ar
    57    81    83   ar
    58    24    23   ar
    59    19    18    1
    60    23    25   ar
    61    58    59    1
    62    80    82   ar
    63    83    84   ar
    64    59    60    1
    65    18    12   am
    66    82    84   ar
    67    69    68    2
    68    60    61    2
    69    60    62   am
    70     9     6    1
    71    13    12    2
    72    12    11    1
    73    62    63    1
    74    68    67    1
    75    63    64    1
    76    65    64    2
    77     6     7    1
    78     6     5    1
    79     8     7    2
    80     7    10   am
    81    10    11    1
    82    64    66   am
    83    11    14    1
    84    14    15    1
    85    66    67    1
    86    67    70    1
    87    72    70    1
    88    70    71    1
    89     5     3   am
    90    15    17   ar
    91    15    16   ar
    92     3     4    2
    93     3     2    1
    94    71    73    1
    95     1     2    1
