@<TRIPOS>MOLECULE
tmp/6b3hA01.pdb
 89 82 0 0 0
SMALL
GASTEIGER

@<TRIPOS>ATOM
      1  N         -2.9240   19.2540   -5.7720 N.3     8  ARG8       -0.1245
      2  CA        -4.1140   18.5680   -6.3190 C.3     8  ARG8        0.1563
      3  C         -3.7450   17.1700   -6.8230 C.2     8  ARG8        0.2260
      4  O         -2.7690   17.0220   -7.5850 O.2     8  ARG8       -0.2867
      5  CB        -4.6700   19.3850   -7.4890 C.3     8  ARG8        0.0307
      6  CG        -5.2000   20.7280   -7.0530 C.3     8  ARG8        0.0489
      7  CD        -5.6530   21.5290   -8.2350 C.3     8  ARG8        0.2205
      8  NE        -6.3120   22.7510   -7.7870 N.pl3   8  ARG8       -0.0865
      9  CZ        -6.4690   23.8370   -8.5460 C.cat   8  ARG8        0.5346
     10  NH1       -6.0150   23.8560   -9.7970 N.pl3   8  ARG8        0.1354
     11  NH2       -7.0890   24.9040   -8.0650 N.pl3   8  ARG8        0.1354
     12  N         -3.8820   14.9750   -9.2380 N.3    10  LEU10      -0.1245
     13  CA        -4.1980   14.8390  -10.6580 C.3    10  LEU10       0.1561
     14  C         -3.5980   13.5780  -11.2260 C.2    10  LEU10       0.2260
     15  O         -2.4530   13.2410  -10.9200 O.2    10  LEU10      -0.2867
     16  CB        -3.7370   16.0850  -11.4370 C.3    10  LEU10       0.0270
     17  CG        -4.5190   17.3650  -11.0990 C.3    10  LEU10       0.0019
     18  CD1       -3.8060   18.6170  -11.6440 C.3    10  LEU10       0.0001
     19  CD2       -5.9650   17.2880  -11.6120 C.3    10  LEU10       0.0001
     20  N         -8.9820   14.8220  -11.6310 N.3    23  LEU23      -0.1245
     21  CA        -8.7290   14.9830  -10.2110 C.3    23  LEU23       0.1561
     22  C         -9.3870   13.8720   -9.3860 C.2    23  LEU23       0.2260
     23  O        -10.5830   13.6010   -9.5650 O.2    23  LEU23      -0.2867
     24  CB        -9.3280   16.3540   -9.8210 C.3    23  LEU23       0.0270
     25  CG        -9.2320   16.8040   -8.3660 C.3    23  LEU23       0.0019
     26  CD1       -7.8100   17.1970   -8.0270 C.3    23  LEU23       0.0001
     27  CD2      -10.1290   18.0170   -8.1350 C.3    23  LEU23       0.0001
     28  N        -11.2670   12.8200   -6.5270 N.3    25  ASP25      -0.1239
     29  CA       -12.1400   13.6220   -5.6670 C.3    25  ASP25       0.1674
     30  C        -13.0530   12.8270   -4.7380 C.2    25  ASP25       0.2266
     31  O        -14.1460   12.4270   -5.1460 O.2    25  ASP25      -0.2867
     32  CB       -12.9750   14.5120   -6.6110 C.3    25  ASP25       0.1410
     33  CG       -13.8290   15.5950   -5.9990 C.2    25  ASP25       0.3668
     34  OD1      -13.9370   15.6380   -4.7590 O.co2  25  ASP25      -0.2456
     35  OD2      -14.4100   16.3970   -6.7700 O.co2  25  ASP25      -0.2456
     36  N        -14.8220   13.9270   -2.3700 N.3    27  GLY27      -0.1210
     37  CA       -16.0790   14.6240   -2.0950 C.3    27  GLY27       0.1956
     38  C        -17.1480   14.4180   -3.1620 C.2    27  GLY27       0.2611
     39  O        -18.3160   14.7540   -2.9420 O.2    27  GLY27      -0.2717
     40  N        -16.7660   13.8700   -4.3410 N.am   28  ALA28      -0.1979
     41  CA       -17.7000   13.6820   -5.4330 C.3    28  ALA28       0.1597
     42  C        -18.2680   12.2740   -5.3920 C.2    28  ALA28       0.2287
     43  O        -17.5070   11.3110   -5.4260 O.2    28  ALA28      -0.2864
     44  CB       -16.9960   13.9030   -6.7640 C.3    28  ALA28       0.0319
     45  N        -25.4950   19.5420   -8.4590 N.3    48  GLY48      -0.1210
     46  CA       -25.0990   20.7630   -7.7740 C.3    48  GLY48       0.1956
     47  C        -23.9040   20.6440   -6.8770 C.2    48  GLY48       0.2612
     48  O        -23.4210   19.5500   -6.5650 O.2    48  GLY48      -0.2717
     49  N        -23.4070   21.8010   -6.4970 N.am   49  GLY49      -0.1942
     50  CA       -22.2490   21.8630   -5.6210 C.3    49  GLY49       0.2014
     51  C        -21.9350   23.3120   -5.3680 C.2    49  GLY49       0.2638
     52  O        -22.8050   24.1660   -5.5640 O.2    49  GLY49      -0.2714
     53  N        -20.6920   23.5950   -4.9380 N.am   50  ILE50      -0.1977
     54  CA       -20.2640   24.9800   -4.7300 C.3    50  ILE50       0.1596
     55  C        -20.4990   25.7150   -6.0660 C.2    50  ILE50       0.2287
     56  O        -20.0780   25.2250   -7.1170 O.2    50  ILE50      -0.2864
     57  CB       -18.7480   24.9990   -4.3630 C.3    50  ILE50       0.0276
     58  CG1      -18.5110   24.3640   -2.9360 C.3    50  ILE50       0.0022
     59  CG2      -18.1320   26.4320   -4.5380 C.3    50  ILE50       0.0022
     60  CD1      -18.2460   25.2380   -1.8240 C.3    50  ILE50       0.0001
     61  N        -18.1480   20.8320  -16.6080 N.3    80  THR80      -0.1204
     62  CA       -17.4350   20.9050  -15.3340 C.3    80  THR80       0.1979
     63  C        -16.1180   21.6670  -15.5730 C.2    80  THR80       0.2460
     64  O        -15.5030   21.4530  -16.6270 O.2    80  THR80      -0.2732
     65  CB       -17.1400   19.4880  -14.7880 C.3    80  THR80       0.1783
     66  OG1      -16.3120   19.6160  -13.6350 O.3    80  THR80      -0.2211
     67  CG2      -16.4560   18.5550  -15.8300 C.3    80  THR80       0.0376
     68  N        -15.6300   22.4920  -14.6100 N.am   81  PRO81      -0.2717
     69  CA       -14.3480   23.2090  -14.8260 C.3    81  PRO81       0.1535
     70  C        -13.1150   22.3060  -14.7260 C.2    81  PRO81       0.2598
     71  O        -12.0170   22.7350  -15.0690 O.2    81  PRO81      -0.2715
     72  CB       -14.3440   24.2710  -13.7230 C.3    81  PRO81       0.0310
     73  CG       -15.1660   23.6740  -12.6380 C.3    81  PRO81       0.0237
     74  CD       -16.2430   22.8700  -13.3150 C.3    81  PRO81       0.0939
     75  N        -13.2900   21.0550  -14.2460 N.am   82  VAL82      -0.1978
     76  CA       -12.1950   20.0810  -14.1290 C.3    82  VAL82       0.1596
     77  C        -12.7900   18.6750  -14.1830 C.2    82  VAL82       0.2287
     78  O        -13.8880   18.4690  -13.6400 O.2    82  VAL82      -0.2864
     79  CB       -11.3040   20.3000  -12.8610 C.3    82  VAL82       0.0276
     80  CG1      -12.1190   20.2770  -11.5820 C.3    82  VAL82       0.0022
     81  CG2      -10.1310   19.3090  -12.7780 C.3    82  VAL82       0.0022
     82  N        -13.3790   15.1890  -12.8730 N.3    84  ILE84      -0.1245
     83  CA       -13.2750   14.6460  -11.5120 C.3    84  ILE84       0.1561
     84  C        -13.6130   13.1740  -11.4630 C.2    84  ILE84       0.2260
     85  O        -14.6230   12.7490  -12.0380 O.2    84  ILE84      -0.2867
     86  CB       -14.0910   15.4670  -10.4710 C.3    84  ILE84       0.0252
     87  CG1      -15.5860   15.4720  -10.7910 C.3    84  ILE84       0.0019
     88  CG2      -13.5090   16.9060  -10.2900 C.3    84  ILE84       0.0019
     89  CD1      -16.4790   16.4160   -9.8490 C.3    84  ILE84       0.0001
@<TRIPOS>BOND
     1    64    63    2
     2    61    62    1
     3    67    65    1
     4    63    62    1
     5    63    68   am
     6    62    65    1
     7    71    70    2
     8    69    70    1
     9    69    68    1
    10    69    72    1
    11    65    66    1
    12    70    75   am
    13    68    74    1
    14    75    76    1
    15    77    76    1
    16    77    78    2
    17    76    79    1
    18    72    73    1
    19    74    73    1
    20    82    83    1
    21    79    81    1
    22    79    80    1
    23    85    84    2
    24    18    17    1
    25    20    21    1
    26    19    17    1
    27    83    84    1
    28    83    86    1
    29    16    17    1
    30    16    13    1
    31    14    15    2
    32    14    13    1
    33    87    86    1
    34    87    89    1
    35    13    12    1
    36    86    88    1
    37    21    24    1
    38    21    22    1
    39    24    25    1
    40    10     9    1
    41    23    22    2
    42     9    11    1
    43     9     8    2
    44    45    46    1
    45    25    27    1
    46    25    26    1
    47     7     8    1
    48     7     6    1
    49    46    47    1
    50     4     3    2
    51     5     6    1
    52     5     2    1
    53    56    55    2
    54    47    48    2
    55    47    49   am
    56     3     2    1
    57    35    33   ar
    58    44    41    1
    59    32    33    1
    60    32    29    1
    61    28    29    1
    62    49    50    1
    63     2     1    1
    64    55    54    1
    65    33    34   ar
    66    29    30    1
    67    50    51    1
    68    52    51    2
    69    41    42    1
    70    41    40    1
    71    43    42    2
    72    51    53   am
    73    31    30    2
    74    53    54    1
    75    54    57    1
    76    59    57    1
    77    57    58    1
    78    40    38   am
    79    38    39    2
    80    38    37    1
    81    58    60    1
    82    36    37    1
