@<TRIPOS>MOLECULE
tmp/6b3tA00.pdb
 215 214 0 0 0
SMALL
GASTEIGER

@<TRIPOS>ATOM
      1  N         12.6410  -15.7660   39.9050 N.3    22  PHE22      -0.1241
      2  CA        13.0710  -14.3930   40.1970 C.3    22  PHE22       0.1605
      3  C         11.9410  -13.4050   39.9120 C.2    22  PHE22       0.2264
      4  O         11.4670  -13.3070   38.7770 O.2    22  PHE22      -0.2867
      5  CB        14.3040  -14.0180   39.3620 C.3    22  PHE22       0.0534
      6  CG        15.3270  -15.1120   39.2510 C.ar   22  PHE22      -0.0203
      7  CD1       15.7000  -15.6090   38.0040 C.ar   22  PHE22      -0.0042
      8  CD2       15.9190  -15.6530   40.3910 C.ar   22  PHE22      -0.0042
      9  CE1       16.6420  -16.6180   37.8930 C.ar   22  PHE22      -0.0003
     10  CE2       16.8640  -16.6660   40.2850 C.ar   22  PHE22      -0.0003
     11  CZ        17.2240  -17.1470   39.0330 C.ar   22  PHE22      -0.0000
     12  N         28.9400  -15.5230   39.4270 N.3    76  LEU76      -0.1231
     13  CA        27.8140  -16.4680   39.4460 C.3    76  LEU76       0.1693
     14  C         26.4710  -15.7540   39.4770 C.2    76  LEU76       0.2593
     15  O         26.3040  -14.7520   40.1690 O.2    76  LEU76      -0.2718
     16  CB        27.8920  -17.4480   40.6220 C.3    76  LEU76       0.0284
     17  CG        28.6760  -18.7250   40.3160 C.3    76  LEU76       0.0019
     18  CD1       30.1690  -18.4330   40.3550 C.3    76  LEU76       0.0001
     19  CD2       28.2980  -19.8380   41.2820 C.3    76  LEU76       0.0001
     20  N         25.5250  -16.2970   38.7200 N.am   77  SER77      -0.1938
     21  CA        24.2110  -15.6930   38.5460 C.3    77  SER77       0.2055
     22  C         23.2510  -16.6730   37.8880 C.2    77  SER77       0.2643
     23  O         23.6550  -17.7550   37.4500 O.2    77  SER77      -0.2714
     24  CB        24.3150  -14.4370   37.6790 C.3    77  SER77       0.2130
     25  OG        23.0580  -13.7920   37.5820 O.3    77  SER77      -0.2179
     26  N         21.9810  -16.2750   37.8320 N.am   78  PHE78      -0.1959
     27  CA        20.9240  -17.0340   37.1520 C.3    78  PHE78       0.1771
     28  C         20.8050  -18.4600   37.7120 C.2    78  PHE78       0.2619
     29  O         20.4760  -19.4050   36.9930 O.2    78  PHE78      -0.2715
     30  CB        21.1900  -17.0380   35.6340 C.3    78  PHE78       0.0574
     31  CG        19.9620  -16.8310   34.7890 C.ar   78  PHE78      -0.0200
     32  CD1       19.6170  -17.7490   33.8000 C.ar   78  PHE78      -0.0042
     33  CD2       19.1620  -15.7040   34.9620 C.ar   78  PHE78      -0.0042
     34  CE1       18.4930  -17.5510   33.0100 C.ar   78  PHE78      -0.0003
     35  CE2       18.0350  -15.5040   34.1790 C.ar   78  PHE78      -0.0003
     36  CZ        17.7030  -16.4260   33.1980 C.ar   78  PHE78      -0.0000
     37  N         21.0750  -18.5880   39.0090 N.am   79  VAL79      -0.1963
     38  CA        21.0630  -19.8670   39.7040 C.3    79  VAL79       0.1727
     39  C         19.6190  -20.1270   40.1000 C.2    79  VAL79       0.2616
     40  O         18.9530  -19.2400   40.6300 O.2    79  VAL79      -0.2715
     41  CB        21.9760  -19.8440   40.9530 C.3    79  VAL79       0.0290
     42  CG1       21.9500  -21.1800   41.6890 C.3    79  VAL79       0.0023
     43  CG2       23.4050  -19.4960   40.5590 C.3    79  VAL79       0.0023
     44  N         19.1350  -21.3330   39.8330 N.am   80  ALA80      -0.1963
     45  CA        17.7550  -21.6860   40.1450 C.3    80  ALA80       0.1728
     46  C         17.5590  -23.1890   40.1100 C.2    80  ALA80       0.2616
     47  O         18.1670  -23.8860   39.2970 O.2    80  ALA80      -0.2715
     48  CB        16.7950  -21.0170   39.1700 C.3    80  ALA80       0.0334
     49  N         16.7090  -23.6720   41.0090 N.am   81  VAL81      -0.1977
     50  CA        16.2330  -25.0490   40.9930 C.3    81  VAL81       0.1596
     51  C         14.7120  -24.9820   40.9850 C.2    81  VAL81       0.2287
     52  O         14.1150  -24.1230   41.6400 O.2    81  VAL81      -0.2864
     53  CB        16.7620  -25.8590   42.1950 C.3    81  VAL81       0.0276
     54  CG1       16.0600  -27.2070   42.3120 C.3    81  VAL81       0.0022
     55  CG2       18.2620  -26.0610   42.0600 C.3    81  VAL81       0.0022
     56  N         11.7270  -29.9850   42.1930 N.3    85  HIS85      -0.1226
     57  CA        12.9560  -30.7960   42.3020 C.3    85  HIS85       0.1752
     58  C         13.8820  -30.3610   43.4400 C.2    85  HIS85       0.2596
     59  O         15.1080  -30.4790   43.3390 O.2    85  HIS85      -0.2718
     60  CB        13.7080  -30.7600   40.9700 C.3    85  HIS85       0.0759
     61  CG        13.0300  -31.5320   39.8890 C.ar   85  HIS85       0.0818
     62  ND1       13.4500  -32.7820   39.4930 N.ar   85  HIS85      -0.2268
     63  CD2       11.9390  -31.2470   39.1460 C.ar   85  HIS85       0.1154
     64  CE1       12.6550  -33.2250   38.5360 C.ar   85  HIS85       0.1986
     65  NE2       11.7270  -32.3140   38.3100 N.ar   85  HIS85      -0.2212
     66  N         13.2930  -29.8840   44.5330 N.am   86  ARG86      -0.1966
     67  CA        14.0720  -29.4660   45.6900 C.3    86  ARG86       0.1729
     68  C         14.5650  -30.6620   46.4870 C.2    86  ARG86       0.2616
     69  O         14.0800  -31.7850   46.3310 O.2    86  ARG86      -0.2715
     70  CB        13.2700  -28.5430   46.6030 C.3    86  ARG86       0.0348
     71  CG        12.7380  -27.2940   45.9140 C.3    86  ARG86       0.0492
     72  CD        13.2140  -26.0000   46.5640 C.3    86  ARG86       0.2205
     73  NE        14.1010  -25.2420   45.6770 N.pl3  86  ARG86      -0.0865
     74  CZ        13.7390  -24.2410   44.8650 C.cat  86  ARG86       0.5346
     75  NH1       14.6550  -23.6540   44.1110 N.pl3  86  ARG86       0.1354
     76  NH2       12.4860  -23.8090   44.7830 N.pl3  86  ARG86       0.1354
     77  N         15.5230  -30.3760   47.3570 N.am   87  ARG87      -0.1963
     78  CA        16.2340  -31.3600   48.1640 C.3    87  ARG87       0.1729
     79  C         16.5800  -32.6770   47.4610 C.2    87  ARG87       0.2616
     80  O         16.1400  -33.7650   47.8430 O.2    87  ARG87      -0.2715
     81  CB        15.5810  -31.5540   49.5420 C.3    87  ARG87       0.0348
     82  CG        15.9780  -30.4700   50.5400 C.3    87  ARG87       0.0492
     83  CD        17.4630  -30.4810   50.9440 C.3    87  ARG87       0.2205
     84  NE        18.3350  -31.3310   50.1080 N.pl3  87  ARG87      -0.0865
     85  CZ        19.2450  -32.2110   50.5310 C.cat  87  ARG87       0.5346
     86  NH1       19.9420  -32.9040   49.6280 N.pl3  87  ARG87       0.1354
     87  NH2       19.4970  -32.3960   51.8260 N.pl3  87  ARG87       0.1354
     88  N         17.3870  -32.5220   46.4180 N.am   88  ARG88      -0.1963
     89  CA        17.8030  -33.6100   45.5340 C.3    88  ARG88       0.1729
     90  C         19.2610  -33.4850   45.0330 C.2    88  ARG88       0.2617
     91  O         19.6500  -34.1680   44.0830 O.2    88  ARG88      -0.2715
     92  CB        16.8430  -33.6420   44.3410 C.3    88  ARG88       0.0348
     93  CG        16.6020  -35.0220   43.7530 C.3    88  ARG88       0.0492
     94  CD        15.5120  -35.7790   44.5000 C.3    88  ARG88       0.2205
     95  NE        14.2220  -35.0870   44.4450 N.pl3  88  ARG88      -0.0865
     96  CZ        13.4250  -35.0140   43.3770 C.cat  88  ARG88       0.5346
     97  NH1       13.7520  -35.5920   42.2190 N.pl3  88  ARG88       0.1354
     98  NH2       12.2770  -34.3470   43.4650 N.pl3  88  ARG88       0.1354
     99  N         20.0580  -32.6230   45.6670 N.am   89  GLY89      -0.1940
    100  CA        21.4700  -32.4310   45.3130 C.3    89  GLY89       0.2014
    101  C         21.8070  -31.7480   43.9920 C.2    89  GLY89       0.2639
    102  O         22.9600  -31.7920   43.5620 O.2    89  GLY89      -0.2714
    103  N         20.8210  -31.1190   43.3520 N.am   90  LEU90      -0.1963
    104  CA        21.0310  -30.4230   42.0670 C.3    90  LEU90       0.1728
    105  C         21.9440  -29.2000   42.1740 C.2    90  LEU90       0.2616
    106  O         22.7850  -28.9880   41.3020 O.2    90  LEU90      -0.2715
    107  CB        19.6970  -30.0220   41.4130 C.3    90  LEU90       0.0311
    108  CG        19.0680  -31.0550   40.4730 C.3    90  LEU90       0.0022
    109  CD1       18.8030  -32.3730   41.1800 C.3    90  LEU90       0.0001
    110  CD2       17.7810  -30.5050   39.8760 C.3    90  LEU90       0.0001
    111  N         21.7750  -28.4030   43.2290 N.am   91  LEU91      -0.1963
    112  CA        22.6010  -27.2080   43.4250 C.3    91  LEU91       0.1728
    113  C         24.0560  -27.5780   43.6770 C.2    91  LEU91       0.2616
    114  O         24.9520  -27.0500   43.0150 O.2    91  LEU91      -0.2715
    115  CB        22.1000  -26.3400   44.5820 C.3    91  LEU91       0.0311
    116  CG        22.9010  -25.0330   44.7380 C.3    91  LEU91       0.0022
    117  CD1       22.5710  -24.0360   43.6340 C.3    91  LEU91       0.0001
    118  CD2       22.6810  -24.4120   46.1010 C.3    91  LEU91       0.0001
    119  N         24.2790  -28.4630   44.6480 N.am   92  ARG92      -0.1977
    120  CA        25.6290  -28.9530   44.9630 C.3    92  ARG92       0.1597
    121  C         26.3150  -29.5550   43.7320 C.2    92  ARG92       0.2287
    122  O         27.5190  -29.3840   43.5480 O.2    92  ARG92      -0.2864
    123  CB        25.5990  -29.9760   46.1080 C.3    92  ARG92       0.0334
    124  CG        26.9860  -30.3740   46.6080 C.3    92  ARG92       0.0492
    125  CD        26.9360  -31.1790   47.8970 C.3    92  ARG92       0.2205
    126  NE        26.6340  -30.3500   49.0680 N.pl3  92  ARG92      -0.0865
    127  CZ        27.5190  -29.6480   49.7850 C.cat  92  ARG92       0.5346
    128  NH1       28.8190  -29.6350   49.4790 N.pl3  92  ARG92       0.1354
    129  NH2       27.0960  -28.9380   50.8300 N.pl3  92  ARG92       0.1354
    130  N         29.3890  -13.4270   43.7650 N.3   112  LEU112     -0.1231
    131  CA        27.9310  -13.4450   43.6210 C.3   112  LEU112      0.1693
    132  C         27.2330  -12.4840   44.5810 C.2   112  LEU112      0.2592
    133  O         27.8490  -11.9440   45.5070 O.2   112  LEU112     -0.2718
    134  CB        27.3770  -14.8680   43.8180 C.3   112  LEU112      0.0284
    135  CG        27.6350  -15.6090   45.1430 C.3   112  LEU112      0.0019
    136  CD1       26.6580  -15.2210   46.2490 C.3   112  LEU112      0.0001
    137  CD2       27.5550  -17.1140   44.9240 C.3   112  LEU112      0.0001
    138  N         25.9390  -12.2910   44.3330 N.am  113  HIS113     -0.1976
    139  CA        25.0200  -11.6290   45.2620 C.3   113  HIS113      0.1656
    140  C         24.0130  -12.6650   45.7570 C.2   113  HIS113      0.2291
    141  O         23.3610  -13.3360   44.9550 O.2   113  HIS113     -0.2864
    142  CB        24.2980  -10.4720   44.5770 C.3   113  HIS113      0.0771
    143  CG        25.1570   -9.2650   44.3740 C.ar  113  HIS113      0.0820
    144  ND1       25.0940   -8.1610   45.1960 N.ar  113  HIS113     -0.2267
    145  CD2       26.1110   -8.9950   43.4520 C.ar  113  HIS113      0.1154
    146  CE1       25.9640   -7.2570   44.7810 C.ar  113  HIS113      0.1986
    147  NE2       26.5950   -7.7390   43.7260 N.ar  113  HIS113     -0.2212
    148  N         20.7680  -14.4170   47.4070 N.3   115  SER115     -0.1202
    149  CA        19.3180  -14.3140   47.6230 C.3   115  SER115      0.2020
    150  C         18.9530  -14.5640   49.0870 C.2   115  SER115      0.2618
    151  O         18.0390  -13.9310   49.6180 O.2   115  SER115     -0.2717
    152  CB        18.5660  -15.3010   46.7310 C.3   115  SER115      0.2103
    153  OG        18.9900  -16.6310   46.9730 O.3   115  SER115     -0.2182
    154  N         19.6550  -15.5080   49.7160 N.am  116  GLU116     -0.1979
    155  CA        19.5720  -15.7430   51.1660 C.3   116  GLU116      0.1602
    156  C         20.9790  -15.8760   51.7490 C.2   116  GLU116      0.2287
    157  O         21.8900  -16.3790   51.0890 O.2   116  GLU116     -0.2864
    158  CB        18.7650  -17.0050   51.4890 C.3   116  GLU116      0.0415
    159  CG        17.4220  -17.1310   50.7770 C.3   116  GLU116      0.1163
    160  CD        16.7700  -18.4920   50.9640 C.2   116  GLU116      0.3649
    161  OE1       15.9380  -18.8700   50.1110 O.co2 116  GLU116     -0.2457
    162  OE2       17.0880  -19.1920   51.9510 O.co2 116  GLU116     -0.2457
    163  N         23.1500  -19.8380   52.6400 N.3   119  ILE119     -0.1231
    164  CA        23.2770  -20.8490   51.5840 C.3   119  ILE119      0.1692
    165  C         24.7130  -21.0180   51.0930 C.2   119  ILE119      0.2592
    166  O         25.2050  -22.1400   50.9910 O.2   119  ILE119     -0.2718
    167  CB        22.3550  -20.5060   50.3910 C.3   119  ILE119      0.0266
    168  CG1       20.9030  -20.4750   50.8820 C.3   119  ILE119      0.0019
    169  CG2       22.5300  -21.5110   49.2480 C.3   119  ILE119      0.0020
    170  CD1       19.9060  -19.9400   49.8910 C.3   119  ILE119      0.0001
    171  N         25.3690  -19.9040   50.7880 N.am  120  TYR120     -0.1976
    172  CA        26.6130  -19.9120   50.0120 C.3   120  TYR120      0.1639
    173  C         27.9210  -20.0150   50.8110 C.2   120  TYR120      0.2290
    174  O         28.9820  -20.2350   50.2220 O.2   120  TYR120     -0.2864
    175  CB        26.6150  -18.7120   49.0590 C.3   120  TYR120      0.0560
    176  CG        25.6990  -18.9330   47.8720 C.ar  120  TYR120     -0.0198
    177  CD1       25.9920  -19.9210   46.9270 C.ar  120  TYR120     -0.0009
    178  CD2       24.5340  -18.1810   47.6960 C.ar  120  TYR120     -0.0009
    179  CE1       25.1640  -20.1500   45.8420 C.ar  120  TYR120      0.0417
    180  CE2       23.6960  -18.4020   46.6060 C.ar  120  TYR120      0.0417
    181  CZ        24.0200  -19.3910   45.6830 C.ar  120  TYR120      0.1957
    182  OH        23.2210  -19.6350   44.5930 O.3   120  TYR120     -0.2866
    183  N         28.7850  -22.5030   52.7520 N.3   122  ARG122     -0.1231
    184  CA        29.2480  -23.8930   52.6310 C.3   122  ARG122      0.1694
    185  C         29.9280  -24.2110   51.2850 C.2   122  ARG122      0.2592
    186  O         30.6640  -25.1950   51.1850 O.2   122  ARG122     -0.2718
    187  CB        28.0980  -24.8740   52.9080 C.3   122  ARG122      0.0321
    188  CG        27.0320  -24.9670   51.8250 C.3   122  ARG122      0.0489
    189  CD        25.9040  -25.9020   52.2370 C.3   122  ARG122      0.2205
    190  NE        24.9180  -25.2420   53.0970 N.pl3 122  ARG122     -0.0865
    191  CZ        23.8540  -24.5500   52.6770 C.cat 122  ARG122      0.5346
    192  NH1       23.5890  -24.3910   51.3770 N.pl3 122  ARG122      0.1354
    193  NH2       23.0360  -24.0020   53.5750 N.pl3 122  ARG122      0.1354
    194  N         29.6690  -23.3860   50.2660 N.am  123  PHE123     -0.1976
    195  CA        30.3510  -23.4730   48.9630 C.3   123  PHE123      0.1639
    196  C         31.6090  -22.5960   48.8460 C.2   123  PHE123      0.2290
    197  O         32.1510  -22.4380   47.7500 O.2   123  PHE123     -0.2864
    198  CB        29.3700  -23.1250   47.8370 C.3   123  PHE123      0.0560
    199  CG        28.1850  -24.0440   47.7660 C.ar  123  PHE123     -0.0200
    200  CD1       28.3410  -25.3650   47.3600 C.ar  123  PHE123     -0.0042
    201  CD2       26.9120  -23.5950   48.1080 C.ar  123  PHE123     -0.0042
    202  CE1       27.2510  -26.2220   47.2960 C.ar  123  PHE123     -0.0003
    203  CE2       25.8180  -24.4460   48.0450 C.ar  123  PHE123     -0.0003
    204  CZ        25.9870  -25.7620   47.6380 C.ar  123  PHE123     -0.0000
    205  N         24.0950   -8.4350   40.3780 N.3   396  PHE396     -0.1241
    206  CA        24.0130   -9.3710   39.2650 C.3   396  PHE396      0.1605
    207  C         23.6120  -10.7480   39.7810 C.2   396  PHE396      0.2264
    208  O         23.3590  -11.6650   39.0060 O.2   396  PHE396     -0.2867
    209  CB        25.3400   -9.4310   38.4980 C.3   396  PHE396      0.0534
    210  CG        26.5100   -9.9120   39.3180 C.ar  396  PHE396     -0.0203
    211  CD1       26.8050  -11.2710   39.4100 C.ar  396  PHE396     -0.0042
    212  CD2       27.3290   -9.0060   39.9840 C.ar  396  PHE396     -0.0042
    213  CE1       27.8820  -11.7160   40.1650 C.ar  396  PHE396     -0.0003
    214  CE2       28.4100   -9.4440   40.7370 C.ar  396  PHE396     -0.0003
    215  CZ        28.6870  -10.8010   40.8280 C.ar  396  PHE396     -0.0000
@<TRIPOS>BOND
     1    34    36   ar
     2    34    32   ar
     3    36    35   ar
     4    32    31   ar
     5    35    33   ar
     6    31    33   ar
     7    31    30    1
     8    30    27    1
     9    29    28    2
    10    27    28    1
    11    27    26    1
    12    23    22    2
    13    25    24    1
    14    24    21    1
    15    28    37   am
    16    26    22   am
    17    22    21    1
    18     9     7   ar
    19     9    11   ar
    20     7     6   ar
    21    65    64   ar
    22    65    63   ar
    23   209   206    1
    24   209   210    1
    25    64    62   ar
    26    21    20    1
    27    20    14   am
    28     4     3    2
    29   208   207    2
    30    37    38    1
    31    11    10   ar
    32    63    61   ar
    33    48    45    1
    34     6     5    1
    35     6     8   ar
    36   206   207    1
    37   206   205    1
    38    47    46    2
    39   210   211   ar
    40   210   212   ar
    41     5     2    1
    42   211   213   ar
    43    12    13    1
    44    13    14    1
    45    13    16    1
    46    14    15    2
    47    62    61   ar
    48    38    39    1
    49    38    41    1
    50    44    39   am
    51    44    45    1
    52   110   108    1
    53    61    60    1
    54     1     2    1
    55     3     2    1
    56   212   214   ar
    57    39    40    2
    58    46    45    1
    59    46    49   am
    60   213   215   ar
    61    10     8   ar
    62    17    18    1
    63    17    16    1
    64    17    19    1
    65   108   109    1
    66   108   107    1
    67    43    41    1
    68   214   215   ar
    69    41    42    1
    70    60    57    1
    71    51    50    1
    72    51    52    2
    73    50    49    1
    74    50    53    1
    75   106   105    2
    76   107   104    1
    77    55    53    1
    78   104   105    1
    79   104   103    1
    80   105   111   am
    81    56    57    1
    82    53    54    1
    83    97    96    1
    84    57    58    1
    85   114   113    2
    86   111   112    1
    87    59    58    2
    88   103   101   am
    89    96    98    1
    90    96    95    2
    91   112   113    1
    92   112   115    1
    93    58    66   am
    94   145   147   ar
    95   145   143   ar
    96   122   121    2
    97   102   101    2
    98   131   130    1
    99   131   134    1
   100   131   132    1
   101   117   116    1
   102   113   119   am
   103   147   146   ar
   104   121   120    1
   105    93    92    1
   106    93    94    1
   107   134   135    1
   108   101   100    1
   109    91    90    2
   110    75    74    1
   111   138   132   am
   112   138   139    1
   113    92    89    1
   114   143   142    1
   115   143   144   ar
   116    95    94    1
   117    66    67    1
   118   142   139    1
   119   132   133    2
   120   115   116    1
   121   182   181    1
   122   119   120    1
   123   116   118    1
   124   146   144   ar
   125    76    74    1
   126    74    73    2
   127   137   135    1
   128   141   140    2
   129   120   123    1
   130    90    89    1
   131    90    99   am
   132   135   136    1
   133   139   140    1
   134   100    99    1
   135    89    88    1
   136    73    72    1
   137   181   179   ar
   138   181   180   ar
   139    67    68    1
   140    67    70    1
   141   179   177   ar
   142    71    72    1
   143    71    70    1
   144   123   124    1
   145    69    68    2
   146    88    79   am
   147    68    77   am
   148   180   178   ar
   149   124   125    1
   150   152   153    1
   151   152   149    1
   152   177   176   ar
   153   202   200   ar
   154   202   204   ar
   155    77    78    1
   156   200   199   ar
   157   148   149    1
   158    79    80    2
   159    79    78    1
   160   149   150    1
   161   204   203   ar
   162   178   176   ar
   163   197   196    2
   164   199   198    1
   165   199   201   ar
   166   198   195    1
   167   176   175    1
   168   125   126    1
   169   203   201   ar
   170    78    81    1
   171   196   195    1
   172   195   194    1
   173   175   172    1
   174   126   127    2
   175   150   151    2
   176   150   154   am
   177   169   167    1
   178   128   127    1
   179    81    82    1
   180    86    85    1
   181   154   155    1
   182   127   129    1
   183   170   168    1
   184   172   171    1
   185   172   173    1
   186    84    85    2
   187    84    83    1
   188   161   160   ar
   189   174   173    2
   190   194   185   am
   191   167   168    1
   192   167   164    1
   193    85    87    1
   194    82    83    1
   195   159   160    1
   196   159   158    1
   197   171   165   am
   198   160   162   ar
   199   166   165    2
   200   157   156    2
   201   165   164    1
   202   155   158    1
   203   155   156    1
   204   186   185    2
   205   185   184    1
   206   192   191    1
   207   164   163    1
   208   188   189    1
   209   188   187    1
   210   189   190    1
   211   184   183    1
   212   184   187    1
   213   191   190    2
   214   191   193    1
