@<TRIPOS>MOLECULE
tmp/6b3tA01.pdb
 157 154 0 0 0
SMALL
GASTEIGER

@<TRIPOS>ATOM
      1  N         17.2410  -22.7350   26.2230 N.3    11  TRP11      -0.1241
      2  CA        17.0960  -21.3610   26.7460 C.3    11  TRP11       0.1605
      3  C         15.6680  -20.8420   26.9820 C.2    11  TRP11       0.2264
      4  O         15.4530  -20.0910   27.9360 O.2    11  TRP11      -0.2867
      5  CB        17.9280  -20.3760   25.9110 C.3    11  TRP11       0.0550
      6  CG        19.3940  -20.4540   26.2550 C.ar   11  TRP11       0.0003
      7  CD1       20.3440  -21.2020   25.6260 C.ar   11  TRP11       0.0946
      8  CD2       20.0620  -19.7890   27.3380 C.ar   11  TRP11       0.0152
      9  NE1       21.5650  -21.0360   26.2350 N.ar   11  TRP11      -0.2442
     10  CE2       21.4220  -20.1710   27.2870 C.ar   11  TRP11       0.0810
     11  CE3       19.6450  -18.9000   28.3400 C.ar   11  TRP11       0.0012
     12  CZ2       22.3720  -19.6990   28.2030 C.ar   11  TRP11       0.0191
     13  CZ3       20.5920  -18.4280   29.2530 C.ar   11  TRP11       0.0001
     14  CH2       21.9400  -18.8290   29.1750 C.ar   11  TRP11       0.0015
     15  N         12.6410  -15.7660   39.9050 N.3    22  PHE22      -0.1241
     16  CA        13.0710  -14.3930   40.1970 C.3    22  PHE22       0.1605
     17  C         11.9410  -13.4050   39.9120 C.2    22  PHE22       0.2264
     18  O         11.4670  -13.3070   38.7770 O.2    22  PHE22      -0.2867
     19  CB        14.3040  -14.0180   39.3620 C.3    22  PHE22       0.0534
     20  CG        15.3270  -15.1120   39.2510 C.ar   22  PHE22      -0.0203
     21  CD1       15.7000  -15.6090   38.0040 C.ar   22  PHE22      -0.0042
     22  CD2       15.9190  -15.6530   40.3910 C.ar   22  PHE22      -0.0042
     23  CE1       16.6420  -16.6180   37.8930 C.ar   22  PHE22      -0.0003
     24  CE2       16.8640  -16.6660   40.2850 C.ar   22  PHE22      -0.0003
     25  CZ        17.2240  -17.1470   39.0330 C.ar   22  PHE22      -0.0000
     26  N         12.2310  -10.1890   39.9540 N.3    24  ASP24      -0.1225
     27  CA        12.8100   -9.0920   39.1500 C.3    24  ASP24       0.1805
     28  C         13.0820   -9.4440   37.6710 C.2    24  ASP24       0.2598
     29  O         13.5880   -8.6040   36.9240 O.2    24  ASP24      -0.2718
     30  CB        14.0840   -8.5350   39.8210 C.3    24  ASP24       0.1424
     31  CG        15.1980   -9.5690   39.9580 C.2    24  ASP24       0.3668
     32  OD1       14.9110  -10.7820   39.9160 O.co2  24  ASP24      -0.2456
     33  OD2       16.3670   -9.1630   40.1230 O.co2  24  ASP24      -0.2456
     34  N         12.7400  -10.6640   37.2510 N.am   25  PHE25      -0.1962
     35  CA        12.9030  -11.0850   35.8520 C.3    25  PHE25       0.1771
     36  C         11.9900  -10.2730   34.9300 C.2    25  PHE25       0.2619
     37  O         10.7930  -10.1410   35.1920 O.2    25  PHE25      -0.2715
     38  CB        12.6170  -12.5820   35.6850 C.3    25  PHE25       0.0574
     39  CG        12.9610  -13.1170   34.3180 C.ar   25  PHE25      -0.0200
     40  CD1       14.2850  -13.3790   33.9710 C.ar   25  PHE25      -0.0042
     41  CD2       11.9650  -13.3550   33.3720 C.ar   25  PHE25      -0.0042
     42  CE1       14.6080  -13.8670   32.7110 C.ar   25  PHE25      -0.0003
     43  CE2       12.2830  -13.8460   32.1120 C.ar   25  PHE25      -0.0003
     44  CZ        13.6060  -14.1030   31.7800 C.ar   25  PHE25      -0.0000
     45  N         12.5710   -9.7390   33.8570 N.am   26  ILE26      -0.1977
     46  CA        11.8800   -8.8220   32.9460 C.3    26  ILE26       0.1596
     47  C         11.3160   -9.5940   31.7550 C.2    26  ILE26       0.2287
     48  O         10.1080   -9.5710   31.5110 O.2    26  ILE26      -0.2864
     49  CB        12.8270   -7.6870   32.4810 C.3    26  ILE26       0.0276
     50  CG1       13.2320   -6.8200   33.6820 C.3    26  ILE26       0.0022
     51  CG2       12.1710   -6.8060   31.4200 C.3    26  ILE26       0.0022
     52  CD1       14.5000   -6.0190   33.4730 C.3    26  ILE26       0.0001
     53  N         15.6220   -8.7300   27.6310 N.3    30  SER30      -0.1202
     54  CA        16.5360   -8.3720   28.7160 C.3    30  SER30       0.2020
     55  C         17.5010   -9.5150   29.0390 C.2    30  SER30       0.2618
     56  O         18.7040   -9.2960   29.1710 O.2    30  SER30      -0.2717
     57  CB        15.7340   -7.9810   29.9650 C.3    30  SER30       0.2103
     58  OG        16.5710   -7.7820   31.0950 O.3    30  SER30      -0.2182
     59  N         16.9620  -10.7280   29.1460 N.am   31  ALA31      -0.1979
     60  CA        17.7580  -11.9180   29.4570 C.3    31  ALA31       0.1597
     61  C         18.7970  -12.2560   28.3850 C.2    31  ALA31       0.2287
     62  O         19.9130  -12.6540   28.7160 O.2    31  ALA31      -0.2864
     63  CB        16.8460  -13.1100   29.7050 C.3    31  ALA31       0.0319
     64  N         21.8420   -9.8010   28.8960 N.3    34  TRP34      -0.1227
     65  CA        22.6770  -10.3520   29.9830 C.3    34  TRP34       0.1737
     66  C         23.4760  -11.5860   29.5410 C.2    34  TRP34       0.2595
     67  O         24.6200  -11.7750   29.9590 O.2    34  TRP34      -0.2718
     68  CB        21.8140  -10.7530   31.1840 C.3    34  TRP34       0.0564
     69  CG        21.4340   -9.6430   32.1190 C.ar   34  TRP34       0.0003
     70  CD1       20.2730   -8.9270   32.1110 C.ar   34  TRP34       0.0946
     71  CD2       22.2000   -9.1490   33.2260 C.ar   34  TRP34       0.0152
     72  NE1       20.2730   -8.0070   33.1300 N.ar   34  TRP34      -0.2442
     73  CE2       21.4440   -8.1200   33.8320 C.ar   34  TRP34       0.0810
     74  CE3       23.4570   -9.4680   33.7580 C.ar   34  TRP34       0.0012
     75  CZ2       21.9020   -7.4050   34.9470 C.ar   34  TRP34       0.0191
     76  CZ3       23.9160   -8.7570   34.8690 C.ar   34  TRP34       0.0001
     77  CH2       23.1360   -7.7370   35.4510 C.ar   34  TRP34       0.0015
     78  N         22.8530  -12.4140   28.7020 N.am   35  ARG35      -0.1980
     79  CA        23.4540  -13.6570   28.1940 C.3    35  ARG35       0.1597
     80  C         24.7320  -13.4540   27.3660 C.2    35  ARG35       0.2287
     81  O         25.5540  -14.3670   27.2750 O.2    35  ARG35      -0.2864
     82  CB        22.4240  -14.4560   27.3740 C.3    35  ARG35       0.0334
     83  CG        22.5260  -15.9680   27.5360 C.3    35  ARG35       0.0492
     84  CD        22.9730  -16.6840   26.2750 C.3    35  ARG35       0.2205
     85  NE        21.8600  -16.8560   25.3410 N.pl3  35  ARG35      -0.0865
     86  CZ        21.8370  -17.7020   24.3100 C.cat  35  ARG35       0.5346
     87  NH1       22.8720  -18.4990   24.0390 N.pl3  35  ARG35       0.1354
     88  NH2       20.7560  -17.7540   23.5390 N.pl3  35  ARG35       0.1354
     89  N         27.9230  -14.0840   29.3780 N.3    38  VAL38      -0.1245
     90  CA        28.2160  -15.4690   29.7360 C.3    38  VAL38       0.1561
     91  C         29.1450  -16.0470   28.6660 C.2    38  VAL38       0.2260
     92  O         28.7920  -16.0370   27.4830 O.2    38  VAL38      -0.2867
     93  CB        26.9210  -16.3110   29.8140 C.3    38  VAL38       0.0252
     94  CG1       27.2110  -17.7440   30.2530 C.3    38  VAL38       0.0019
     95  CG2       25.9230  -15.6710   30.7720 C.3    38  VAL38       0.0019
     96  N         24.9930  -20.4360   36.0780 N.3    57  LEU57      -0.1245
     97  CA        26.0070  -19.9220   35.1710 C.3    57  LEU57       0.1561
     98  C         26.8800  -18.9090   35.8790 C.2    57  LEU57       0.2260
     99  O         26.5810  -18.4880   36.9980 O.2    57  LEU57      -0.2867
    100  CB        25.3620  -19.3020   33.9200 C.3    57  LEU57       0.0270
    101  CG        24.2810  -18.2280   34.1170 C.3    57  LEU57       0.0019
    102  CD1       24.8740  -16.8490   34.3750 C.3    57  LEU57       0.0001
    103  CD2       23.3510  -18.1680   32.9120 C.3    57  LEU57       0.0001
    104  N         29.2740  -15.2140   34.7240 N.3    59  MET59      -0.1245
    105  CA        29.6280  -14.2150   33.7240 C.3    59  MET59       0.1570
    106  C         31.0690  -13.7850   33.9280 C.2    59  MET59       0.2261
    107  O         31.6100  -13.8780   35.0350 O.2    59  MET59      -0.2867
    108  CB        28.7300  -12.9910   33.8490 C.3    59  MET59       0.0387
    109  CG        27.2480  -13.2830   33.6840 C.3    59  MET59       0.0595
    110  SD        26.2270  -11.8590   34.0860 S.3    59  MET59      -0.1393
    111  CE        26.5430  -11.6850   35.8390 C.3    59  MET59       0.0692
    112  N         25.5250  -16.2970   38.7200 N.3    77  SER77      -0.1202
    113  CA        24.2110  -15.6930   38.5460 C.3    77  SER77       0.2020
    114  C         23.2510  -16.6730   37.8880 C.2    77  SER77       0.2618
    115  O         23.6550  -17.7550   37.4500 O.2    77  SER77      -0.2717
    116  CB        24.3150  -14.4370   37.6790 C.3    77  SER77       0.2103
    117  OG        23.0580  -13.7920   37.5820 O.3    77  SER77      -0.2182
    118  N         21.9810  -16.2750   37.8320 N.am   78  PHE78      -0.1975
    119  CA        20.9240  -17.0340   37.1520 C.3    78  PHE78       0.1639
    120  C         20.8050  -18.4600   37.7120 C.2    78  PHE78       0.2290
    121  O         20.4760  -19.4050   36.9930 O.2    78  PHE78      -0.2864
    122  CB        21.1900  -17.0380   35.6340 C.3    78  PHE78       0.0560
    123  CG        19.9620  -16.8310   34.7890 C.ar   78  PHE78      -0.0200
    124  CD1       19.6170  -17.7490   33.8000 C.ar   78  PHE78      -0.0042
    125  CD2       19.1620  -15.7040   34.9620 C.ar   78  PHE78      -0.0042
    126  CE1       18.4930  -17.5510   33.0100 C.ar   78  PHE78      -0.0003
    127  CE2       18.0350  -15.5040   34.1790 C.ar   78  PHE78      -0.0003
    128  CZ        17.7030  -16.4260   33.1980 C.ar   78  PHE78      -0.0000
    129  N         15.5800    1.2140   32.4240 N.3   197  GLU197     -0.1245
    130  CA        14.9170    1.3160   33.7340 C.3   197  GLU197      0.1567
    131  C         14.5970    2.7550   34.1720 C.2   197  GLU197      0.2260
    132  O         13.7250    2.9590   35.0170 O.2   197  GLU197     -0.2867
    133  CB        15.7720    0.6410   34.8120 C.3   197  GLU197      0.0388
    134  CG        15.8400   -0.8750   34.7000 C.3   197  GLU197      0.1160
    135  CD        16.9830   -1.4760   35.5010 C.2   197  GLU197      0.3649
    136  OE1       17.2060   -1.0430   36.6530 O.co2 197  GLU197     -0.2457
    137  OE2       17.6600   -2.3890   34.9790 O.co2 197  GLU197     -0.2457
    138  N         24.4460   -4.9710   41.3060 N.3   395  GLU395     -0.1231
    139  CA        23.9460   -6.3240   41.5350 C.3   395  GLU395      0.1699
    140  C         23.8970   -7.1290   40.2390 C.2   395  GLU395      0.2592
    141  O         23.6930   -6.5800   39.1550 O.2   395  GLU395     -0.2718
    142  CB        22.5640   -6.2930   42.2030 C.3   395  GLU395      0.0402
    143  CG        22.6440   -6.1310   43.7160 C.3   395  GLU395      0.1161
    144  CD        21.3150   -5.8110   44.3820 C.2   395  GLU395      0.3649
    145  OE1       21.3350   -5.4830   45.5880 O.co2 395  GLU395     -0.2457
    146  OE2       20.2540   -5.8840   43.7260 O.co2 395  GLU395     -0.2457
    147  N         24.0950   -8.4350   40.3780 N.am  396  PHE396     -0.1976
    148  CA        24.0130   -9.3710   39.2650 C.3   396  PHE396      0.1639
    149  C         23.6120  -10.7480   39.7810 C.2   396  PHE396      0.2290
    150  O         23.3590  -11.6650   39.0060 O.2   396  PHE396     -0.2864
    151  CB        25.3400   -9.4310   38.4980 C.3   396  PHE396      0.0560
    152  CG        26.5100   -9.9120   39.3180 C.ar  396  PHE396     -0.0200
    153  CD1       26.8050  -11.2710   39.4100 C.ar  396  PHE396     -0.0042
    154  CD2       27.3290   -9.0060   39.9840 C.ar  396  PHE396     -0.0042
    155  CE1       27.8820  -11.7160   40.1650 C.ar  396  PHE396     -0.0003
    156  CE2       28.4100   -9.4440   40.7370 C.ar  396  PHE396     -0.0003
    157  CZ        28.6870  -10.8010   40.8280 C.ar  396  PHE396     -0.0000
@<TRIPOS>BOND
     1    88    86    1
     2    87    86    1
     3    86    85    2
     4    85    84    1
     5     7     9   ar
     6     7     6   ar
     7     5     6    1
     8     5     2    1
     9     1     2    1
    10     9    10   ar
    11     6     8   ar
    12    84    83    1
    13     2     3    1
    14     3     4    2
    15    81    80    2
    16    10     8   ar
    17    10    12   ar
    18     8    11   ar
    19    80    79    1
    20    82    83    1
    21    82    79    1
    22    92    91    2
    23    53    54    1
    24    79    78    1
    25    12    14   ar
    26    11    13   ar
    27    61    62    2
    28    61    60    1
    29    91    90    1
    30    78    66   am
    31    54    55    1
    32    54    57    1
    33    64    65    1
    34    55    59   am
    35    55    56    2
    36    59    60    1
    37    14    13   ar
    38    89    90    1
    39    60    63    1
    40    66    67    2
    41    66    65    1
    42    90    93    1
    43    93    94    1
    44    93    95    1
    45    57    58    1
    46    65    68    1
    47    68    69    1
    48    51    49    1
    49    48    47    2
    50    47    46    1
    51    44    43   ar
    52    44    42   ar
    53    70    69   ar
    54    70    72   ar
    55    43    41   ar
    56    69    71   ar
    57   129   130    1
    58    49    46    1
    59    49    50    1
    60    42    40   ar
    61   103   101    1
    62    46    45    1
    63   126   128   ar
    64   126   124   ar
    65    72    73   ar
    66   128   127   ar
    67    71    74   ar
    68    71    73   ar
    69    41    39   ar
    70    52    50    1
    71   109   108    1
    72   109   110    1
    73   105   108    1
    74   105   106    1
    75   105   104    1
    76   130   131    1
    77   130   133    1
    78    74    76   ar
    79   124   123   ar
    80    73    75   ar
    81    45    36   am
    82   100   101    1
    83   100    97    1
    84   106   107    2
    85    40    39   ar
    86   110   111    1
    87   101   102    1
    88   131   132    2
    89   127   125   ar
    90    39    38    1
    91   134   133    1
    92   134   135    1
    93   123   125   ar
    94   123   122    1
    95    76    77   ar
    96    36    37    2
    97    36    35    1
    98    75    77   ar
    99   137   135   ar
   100    97    98    1
   101    97    96    1
   102   135   136   ar
   103   122   119    1
   104    38    35    1
   105    35    34    1
   106    98    99    2
   107    29    28    2
   108   121   120    2
   109   119   120    1
   110   119   118    1
   111    34    28   am
   112   115   114    2
   113   117   116    1
   114    28    27    1
   115   116   113    1
   116   118   114   am
   117   114   113    1
   118    23    21   ar
   119    23    25   ar
   120    21    20   ar
   121   151   148    1
   122   151   152    1
   123   113   112    1
   124    18    17    2
   125   150   149    2
   126    25    24   ar
   127    27    30    1
   128    27    26    1
   129   141   140    2
   130    20    19    1
   131    20    22   ar
   132   148   149    1
   133   148   147    1
   134   152   153   ar
   135   152   154   ar
   136    19    16    1
   137   153   155   ar
   138    30    31    1
   139    15    16    1
   140    17    16    1
   141    32    31   ar
   142    31    33   ar
   143   154   156   ar
   144   155   157   ar
   145   140   147   am
   146   140   139    1
   147    24    22   ar
   148   156   157   ar
   149   138   139    1
   150   139   142    1
   151   142   143    1
   152   143   144    1
   153   146   144   ar
   154   144   145   ar
