@<TRIPOS>MOLECULE
tmp/6b3vA00.pdb
 186 174 0 0 0
SMALL
GASTEIGER

@<TRIPOS>ATOM
      1  N        -29.7710  -20.5460    6.5310 N.3     7  ASP7       -0.1239
      2  CA       -30.0270  -19.8960    5.2460 C.3     7  ASP7        0.1674
      3  C        -28.6760  -19.7610    4.5510 C.2     7  ASP7        0.2266
      4  O        -27.8290  -18.9690    4.9910 O.2     7  ASP7       -0.2867
      5  CB       -30.6890  -18.5430    5.4940 C.3     7  ASP7        0.1410
      6  CG       -31.0050  -17.7650    4.2190 C.2     7  ASP7        0.3668
      7  OD1      -30.6110  -18.1810    3.1090 O.co2   7  ASP7       -0.2456
      8  OD2      -31.6710  -16.7170    4.3530 O.co2   7  ASP7       -0.2456
      9  N        -26.8720  -18.4510    1.6420 N.3     9  GLY9       -0.1210
     10  CA       -27.0090  -17.5060    0.5550 C.3     9  GLY9        0.1956
     11  C        -25.8380  -17.5730   -0.4060 C.2     9  GLY9        0.2612
     12  O        -24.9060  -18.3620   -0.2560 O.2     9  GLY9       -0.2717
     13  N        -25.9000  -16.7050   -1.4190 N.am   10  GLY10      -0.1942
     14  CA       -24.8100  -16.6000   -2.3630 C.3    10  GLY10       0.2014
     15  C        -23.5310  -16.0470   -1.7670 C.2    10  GLY10       0.2640
     16  O        -22.4500  -16.3230   -2.3000 O.2    10  GLY10      -0.2714
     17  N        -23.6170  -15.3080   -0.6540 N.am   11  THR11      -0.1936
     18  CA       -22.4300  -14.7520   -0.0080 C.3    11  THR11       0.2028
     19  C        -22.2770  -15.2080    1.4350 C.2    11  THR11       0.2642
     20  O        -21.1650  -15.5600    1.8520 O.2    11  THR11      -0.2714
     21  CB       -22.4640  -13.2150   -0.0620 C.3    11  THR11       0.1808
     22  OG1      -22.5160  -12.7900   -1.4450 O.3    11  THR11      -0.2208
     23  CG2      -21.2040  -12.6260    0.5970 C.3    11  THR11       0.0379
     24  N        -23.3530  -15.1720    2.2220 N.am   12  LEU12      -0.1977
     25  CA       -23.2710  -15.4860    3.6480 C.3    12  LEU12       0.1596
     26  C        -24.1950  -16.6330    4.0270 C.2    12  LEU12       0.2287
     27  O        -25.2920  -16.7740    3.4780 O.2    12  LEU12      -0.2864
     28  CB       -23.6140  -14.2650    4.5190 C.3    12  LEU12       0.0297
     29  CG       -22.7540  -13.0190    4.3410 C.3    12  LEU12       0.0022
     30  CD1      -23.3080  -11.9330    5.2750 C.3    12  LEU12       0.0001
     31  CD2      -21.3070  -13.3500    4.6720 C.3    12  LEU12       0.0001
     32  N        -26.3530  -17.8760    7.1780 N.3    14  LYS14      -0.1245
     33  CA       -26.9300  -17.4190    8.4320 C.3    14  LYS14       0.1561
     34  C        -27.4900  -18.6230    9.1590 C.2    14  LYS14       0.2260
     35  O        -28.1400  -19.4820    8.5560 O.2    14  LYS14      -0.2867
     36  CB       -28.0400  -16.3890    8.1850 C.3    14  LYS14       0.0271
     37  CG       -27.5340  -14.9910    7.8010 C.3    14  LYS14       0.0035
     38  CD       -26.9530  -14.8800    6.3520 C.3    14  LYS14       0.0206
     39  CE       -27.9880  -15.1990    5.2820 C.3    14  LYS14       0.1093
     40  NZ       -27.4250  -14.8610    3.9080 N.3    14  LYS14      -0.1314
     41  N        -19.0640  -15.6650   13.2420 N.3    53  ILE53      -0.1245
     42  CA       -19.3520  -14.6400   14.2490 C.3    53  ILE53       0.1561
     43  C        -20.7450  -14.8700   14.8160 C.2    53  ILE53       0.2260
     44  O        -21.7020  -15.0720   14.0640 O.2    53  ILE53      -0.2867
     45  CB       -19.2700  -13.2140   13.6680 C.3    53  ILE53       0.0252
     46  CG1      -17.8970  -12.9510   13.0500 C.3    53  ILE53       0.0019
     47  CG2      -19.5770  -12.1880   14.7580 C.3    53  ILE53       0.0019
     48  CD1      -17.8040  -11.6240   12.3160 C.3    53  ILE53       0.0001
     49  N        -23.3030  -16.0550   11.8020 N.3    76  ARG76      -0.1245
     50  CA       -23.0740  -15.9250   10.3660 C.3    76  ARG76       0.1563
     51  C        -21.6280  -16.2620   10.0150 C.2    76  ARG76       0.2260
     52  O        -20.7170  -16.1000   10.8280 O.2    76  ARG76      -0.2867
     53  CB       -23.4290  -14.5140    9.8770 C.3    76  ARG76       0.0307
     54  CG       -22.7410  -13.3960   10.6380 C.3    76  ARG76       0.0489
     55  CD       -23.1510  -12.0000   10.1530 C.3    76  ARG76       0.2205
     56  NE       -22.8190  -11.0190   11.1790 N.pl3  76  ARG76      -0.0865
     57  CZ       -21.6640  -10.3660   11.2470 C.cat  76  ARG76       0.5346
     58  NH1      -21.4400   -9.5370   12.2520 N.pl3  76  ARG76       0.1354
     59  NH2      -20.7460  -10.5220   10.3000 N.pl3  76  ARG76       0.1354
     60  N        -19.0430  -16.8190    6.0510 N.3    78  PRO78      -0.2116
     61  CA       -19.1160  -16.7530    4.5830 C.3    78  PRO78       0.1372
     62  C        -19.4720  -18.1010    3.9860 C.2    78  PRO78       0.2244
     63  O        -19.0260  -19.1490    4.4510 O.2    78  PRO78      -0.2868
     64  CB       -17.7020  -16.3200    4.1690 C.3    78  PRO78       0.0268
     65  CG       -17.1050  -15.7390    5.3950 C.3    78  PRO78       0.0207
     66  CD       -17.6920  -16.4990    6.5410 C.3    78  PRO78       0.0892
     67  N        -30.2730  -20.4910   -1.7500 N.3    99  GLY99      -0.1225
     68  CA       -29.8440  -21.2740   -2.8940 C.3    99  GLY99       0.1811
     69  C        -28.9050  -22.3970   -2.5230 C.2    99  GLY99       0.2280
     70  O        -28.8930  -23.4510   -3.1720 O.2    99  GLY99      -0.2866
     71  N        -36.5100  -19.9440   -0.0150 N.3   121  GLU121     -0.1245
     72  CA       -35.8090  -18.8290    0.6170 C.3   121  GLU121      0.1567
     73  C        -36.7320  -17.6520    0.8800 C.2   121  GLU121      0.2260
     74  O        -36.5530  -16.9450    1.8820 O.2   121  GLU121     -0.2867
     75  CB       -34.5980  -18.3890   -0.2170 C.3   121  GLU121      0.0388
     76  CG       -34.8110  -17.2090   -1.1640 C.3   121  GLU121      0.1160
     77  CD       -33.5030  -16.7020   -1.7740 C.2   121  GLU121      0.3649
     78  OE1      -33.1520  -15.5080   -1.5800 O.co2 121  GLU121     -0.2457
     79  OE2      -32.8230  -17.5030   -2.4520 O.co2 121  GLU121     -0.2457
     80  N        -35.5240   -7.3750   -0.1150 N.3   172  ASN172     -0.1240
     81  CA       -34.4700   -8.2040    0.4730 C.3   172  ASN172      0.1653
     82  C        -33.1800   -7.9400   -0.2840 C.2   172  ASN172      0.2266
     83  O        -33.0320   -8.3920   -1.4290 O.2   172  ASN172     -0.2867
     84  CB       -34.8510   -9.6780    0.3970 C.3   172  ASN172      0.1155
     85  CG       -33.8260  -10.5800    1.0640 C.2   172  ASN172      0.2627
     86  OD1      -33.1250  -10.1670    1.9940 O.2   172  ASN172     -0.2716
     87  ND2      -33.7660  -11.8170    0.6180 N.am  172  ASN172     -0.0877
     88  N        -29.6700   -8.7650   -0.6140 N.3   174  GLY174     -0.1210
     89  CA       -28.5550   -9.6650   -0.3790 C.3   174  GLY174      0.1956
     90  C        -27.5060   -9.4860   -1.4520 C.2   174  GLY174      0.2613
     91  O        -27.1710   -8.3490   -1.7900 O.2   174  GLY174     -0.2717
     92  N        -26.9660  -10.5900   -1.9720 N.am  175  SER175     -0.1938
     93  CA       -26.0950  -10.5020   -3.1400 C.3   175  SER175      0.2055
     94  C        -26.8190   -9.7740   -4.2560 C.2   175  SER175      0.2643
     95  O        -26.2940   -8.8230   -4.8470 O.2   175  SER175     -0.2714
     96  CB       -25.6680  -11.9020   -3.6020 C.3   175  SER175      0.2130
     97  OG       -25.1470  -12.6680   -2.5270 O.3   175  SER175     -0.2179
     98  N        -28.0400  -10.2210   -4.5460 N.am  176  GLY176     -0.1954
     99  CA       -28.9640   -9.5430   -5.4270 C.3   176  GLY176      0.1869
    100  C        -30.1910   -9.1510   -4.6240 C.2   176  GLY176      0.2309
    101  O        -30.2310   -9.3830   -3.4070 O.2   176  GLY176     -0.2863
    102  N        -26.1600   -6.0130   -2.9790 N.3   198  GLY198     -0.1210
    103  CA       -25.0030   -5.9130   -2.1090 C.3   198  GLY198      0.1956
    104  C        -23.7410   -6.4630   -2.7310 C.2   198  GLY198      0.2612
    105  O        -22.6420   -5.9990   -2.4220 O.2   198  GLY198     -0.2717
    106  N        -23.8760   -7.4540   -3.6210 N.am  199  GLY199     -0.1956
    107  CA       -22.7110   -7.9950   -4.2940 C.3   199  GLY199      0.1869
    108  C        -22.1510   -7.0510   -5.3340 C.2   199  GLY199      0.2309
    109  O        -20.9480   -7.0720   -5.6100 O.2   199  GLY199     -0.2863
    110  N        -22.2850   -3.6930   -4.9110 N.3   201  PHE201     -0.1227
    111  CA       -21.5390   -2.7610   -4.0880 C.3   201  PHE201      0.1736
    112  C        -20.1680   -3.3190   -3.7450 C.2   201  PHE201      0.2595
    113  O        -19.1430   -2.6630   -3.9570 O.2   201  PHE201     -0.2718
    114  CB       -22.3080   -2.4330   -2.8070 C.3   201  PHE201      0.0547
    115  CG       -21.4860   -1.6630   -1.8390 C.ar  201  PHE201     -0.0202
    116  CD1      -21.0800   -0.3660   -2.1410 C.ar  201  PHE201     -0.0042
    117  CD2      -21.0540   -2.2350   -0.6430 C.ar  201  PHE201     -0.0042
    118  CE1      -20.2800    0.3480   -1.2560 C.ar  201  PHE201     -0.0003
    119  CE2      -20.2560   -1.5220    0.2410 C.ar  201  PHE201     -0.0003
    120  CZ       -19.8720   -0.2290   -0.0650 C.ar  201  PHE201     -0.0000
    121  N        -20.1260   -4.5370   -3.2030 N.am  202  LEU202     -0.1980
    122  CA       -18.8590   -5.0790   -2.7310 C.3   202  LEU202      0.1596
    123  C        -17.9220   -5.3950   -3.8940 C.2   202  LEU202      0.2287
    124  O        -16.7190   -5.1180   -3.8200 O.2   202  LEU202     -0.2864
    125  CB       -19.1220   -6.3180   -1.8780 C.3   202  LEU202      0.0297
    126  CG       -17.9400   -6.8600   -1.0900 C.3   202  LEU202      0.0022
    127  CD1      -17.2990   -5.7280   -0.3040 C.3   202  LEU202      0.0001
    128  CD2      -18.4270   -7.9710   -0.1460 C.3   202  LEU202      0.0001
    129  N        -16.2280   -5.8140    3.3190 N.3   214  PHE214     -0.1227
    130  CA       -17.4280   -4.9850    3.3430 C.3   214  PHE214      0.1736
    131  C        -17.2630   -3.8190    4.3040 C.2   214  PHE214      0.2595
    132  O        -17.5900   -2.6720    3.9730 O.2   214  PHE214     -0.2718
    133  CB       -18.6150   -5.8640    3.7410 C.3   214  PHE214      0.0547
    134  CG       -19.9160   -5.1170    3.9260 C.ar  214  PHE214     -0.0202
    135  CD1      -20.6960   -4.7590    2.8430 C.ar  214  PHE214     -0.0042
    136  CD2      -20.3620   -4.8090    5.2140 C.ar  214  PHE214     -0.0042
    137  CE1      -21.9070   -4.0830    3.0330 C.ar  214  PHE214     -0.0003
    138  CE2      -21.5580   -4.1400    5.4170 C.ar  214  PHE214     -0.0003
    139  CZ       -22.3400   -3.7860    4.3320 C.ar  214  PHE214     -0.0000
    140  N        -16.7500   -4.0940    5.5070 N.am  215  GLU215     -0.1979
    141  CA       -16.5740   -3.0320    6.4840 C.3   215  GLU215      0.1602
    142  C        -15.5750   -1.9870    6.0000 C.2   215  GLU215      0.2287
    143  O        -15.7660   -0.7880    6.2360 O.2   215  GLU215     -0.2864
    144  CB       -16.1330   -3.6140    7.8320 C.3   215  GLU215      0.0415
    145  CG       -17.2300   -4.4130    8.5280 C.3   215  GLU215      0.1163
    146  CD       -17.3090   -5.8780    8.0890 C.2   215  GLU215      0.3649
    147  OE1      -18.1830   -6.6000    8.6200 O.co2 215  GLU215     -0.2457
    148  OE2      -16.5180   -6.3220    7.2260 O.co2 215  GLU215     -0.2457
    149  N        -31.9360   -7.6690    4.7290 N.3   304  GLY304     -0.1210
    150  CA       -30.7730   -8.2190    4.0590 C.3   304  GLY304      0.1956
    151  C        -29.4770   -7.5960    4.5650 C.2   304  GLY304      0.2612
    152  O        -29.4460   -6.4850    5.1010 O.2   304  GLY304     -0.2717
    153  N        -28.3720   -8.3160    4.3820 N.am  305  ASN305     -0.1960
    154  CA       -27.1690   -7.8540    5.0630 C.3   305  ASN305      0.1819
    155  C        -26.4200   -6.7460    4.3290 C.2   305  ASN305      0.2621
    156  O        -25.4170   -6.2600    4.8600 O.2   305  ASN305     -0.2715
    157  CB       -26.2420   -9.0360    5.3540 C.3   305  ASN305      0.1195
    158  CG       -26.7360   -9.8610    6.5220 C.2   305  ASN305      0.2630
    159  OD1      -26.9650   -9.3320    7.6230 O.2   305  ASN305     -0.2716
    160  ND2      -26.9120  -11.1510    6.3100 N.am  305  ASN305     -0.0877
    161  N        -26.8710   -6.3090    3.1470 N.am  306  PHE306     -0.1974
    162  CA       -26.3270   -5.0660    2.6090 C.3   306  PHE306      0.1639
    163  C        -26.4620   -3.9300    3.6100 C.2   306  PHE306      0.2290
    164  O        -25.6240   -3.0170    3.6420 O.2   306  PHE306     -0.2864
    165  CB       -27.0300   -4.6910    1.3030 C.3   306  PHE306      0.0560
    166  CG       -26.6210   -3.3440    0.7570 C.ar  306  PHE306     -0.0200
    167  CD1      -25.3090   -3.1350    0.3300 C.ar  306  PHE306     -0.0042
    168  CD2      -27.5270   -2.2920    0.6930 C.ar  306  PHE306     -0.0042
    169  CE1      -24.9090   -1.8900   -0.1630 C.ar  306  PHE306     -0.0003
    170  CE2      -27.1440   -1.0490    0.1780 C.ar  306  PHE306     -0.0003
    171  CZ       -25.8250   -0.8480   -0.2420 C.ar  306  PHE306     -0.0000
    172  N        -26.4780   -4.2510    7.0320 N.3   308  ARG308     -0.1245
    173  CA       -25.8950   -4.4080    8.3620 C.3   308  ARG308      0.1563
    174  C        -24.7280   -3.4340    8.5210 C.2   308  ARG308      0.2260
    175  O        -23.9880   -3.1580    7.5700 O.2   308  ARG308     -0.2867
    176  CB       -25.4790   -5.8650    8.6310 C.3   308  ARG308      0.0307
    177  CG       -24.3510   -6.4390    7.8270 C.3   308  ARG308      0.0489
    178  CD       -23.7800   -7.7140    8.5170 C.3   308  ARG308      0.2205
    179  NE       -23.0750   -7.3690    9.7300 N.pl3 308  ARG308     -0.0865
    180  CZ       -21.7950   -6.9990    9.7800 C.cat 308  ARG308      0.5346
    181  NH1      -21.0550   -6.9380    8.6830 N.pl3 308  ARG308      0.1354
    182  NH2      -21.2550   -6.6690   10.9310 N.pl3 308  ARG308      0.1354
    183  N        -30.3450   -9.7050    8.4590 N.3   338  GLY338     -0.1225
    184  CA       -30.2620  -10.7230    7.4710 C.3   338  GLY338      0.1811
    185  C        -30.6610  -12.0850    7.9550 C.2   338  GLY338      0.2280
    186  O        -30.3860  -13.0620    7.2480 O.2   338  GLY338     -0.2866
@<TRIPOS>BOND
     1   109   108    2
     2    99   100    1
     3    99    98    1
     4   108   107    1
     5   110   111    1
     6    95    94    2
     7   100   101    2
     8    98    94   am
     9   107   106    1
    10    94    93    1
    11   111   112    1
    12   111   114    1
    13   113   112    2
    14   123   124    2
    15   123   122    1
    16   112   121   am
    17   106   104   am
    18    96    93    1
    19    96    97    1
    20   121   122    1
    21    70    69    2
    22    93    92    1
    23   102   103    1
    24    68    69    1
    25    68    67    1
    26   114   115    1
    27   122   125    1
    28   104   105    2
    29   104   103    1
    30    79    77   ar
    31    14    15    1
    32    14    13    1
    33    16    15    2
    34   116   115   ar
    35   116   118   ar
    36    92    90   am
    37   125   126    1
    38   115   117   ar
    39    91    90    2
    40    77    78   ar
    41    77    76    1
    42    15    17   am
    43    90    89    1
    44    22    21    1
    45    83    82    2
    46    13    11   am
    47   118   120   ar
    48    76    75    1
    49   126   127    1
    50   126   128    1
    51    17    18    1
    52   117   119   ar
    53    88    89    1
    54    11    12    2
    55    11    10    1
    56    82    81    1
    57   171   169   ar
    58   171   170   ar
    59    75    72    1
    60   169   167   ar
    61    80    81    1
    62   120   119   ar
    63    21    18    1
    64    21    23    1
    65    71    72    1
    66    18    19    1
    67   170   168   ar
    68   167   166   ar
    69    84    81    1
    70    84    85    1
    71    10     9    1
    72    72    73    1
    73    87    85   am
    74   168   166   ar
    75   166   165    1
    76    73    74    2
    77    85    86    2
    78   165   162    1
    79    19    20    2
    80    19    24   am
    81    24    25    1
    82   162   161    1
    83   162   163    1
    84   135   137   ar
    85   135   134   ar
    86   137   139   ar
    87     7     6   ar
    88   161   155   am
    89   129   130    1
    90   130   133    1
    91   130   131    1
    92    27    26    2
    93   163   164    2
    94    25    26    1
    95    25    28    1
    96   133   134    1
    97    40    39    1
    98   134   136   ar
    99   132   131    2
   100    62    63    2
   101    62    61    1
   102   150   151    1
   103   150   149    1
   104    64    61    1
   105    64    65    1
   106     6     8   ar
   107     6     5    1
   108   131   140   am
   109   155   156    2
   110   155   154    1
   111   139   138   ar
   112    29    28    1
   113    29    31    1
   114    29    30    1
   115   153   151   am
   116   153   154    1
   117     3     4    2
   118     3     2    1
   119   151   152    2
   120    61    60    1
   121   154   157    1
   122   136   138   ar
   123     2     5    1
   124     2     1    1
   125    39    38    1
   126   157   158    1
   127    65    66    1
   128   140   141    1
   129   142   143    2
   130   142   141    1
   131    60    66    1
   132   160   158   am
   133    38    37    1
   134   141   144    1
   135   158   159    2
   136   172   173    1
   137    32    33    1
   138   148   146   ar
   139   186   185    2
   140   184   185    1
   141   184   183    1
   142   175   174    2
   143    37    36    1
   144   177   178    1
   145   177   176    1
   146   144   145    1
   147   146   145    1
   148   146   147   ar
   149    36    33    1
   150   173   174    1
   151   173   176    1
   152    33    34    1
   153   178   179    1
   154    35    34    2
   155   181   180    1
   156   179   180    2
   157   180   182    1
   158    53    50    1
   159    53    54    1
   160    51    50    1
   161    51    52    2
   162    55    54    1
   163    55    56    1
   164    59    57    1
   165    50    49    1
   166    56    57    2
   167    57    58    1
   168    48    46    1
   169    46    45    1
   170    41    42    1
   171    45    42    1
   172    45    47    1
   173    44    43    2
   174    42    43    1
