@<TRIPOS>MOLECULE
tmp/6b3vA01.pdb
 75 71 0 0 0
SMALL
GASTEIGER

@<TRIPOS>ATOM
      1  N        -36.5100  -19.9440   -0.0150 N.3   121  GLU121     -0.1231
      2  CA       -35.8090  -18.8290    0.6170 C.3   121  GLU121      0.1699
      3  C        -36.7320  -17.6520    0.8800 C.2   121  GLU121      0.2592
      4  O        -36.5530  -16.9450    1.8820 O.2   121  GLU121     -0.2718
      5  CB       -34.5980  -18.3890   -0.2170 C.3   121  GLU121      0.0402
      6  CG       -34.8110  -17.2090   -1.1640 C.3   121  GLU121      0.1161
      7  CD       -33.5030  -16.7020   -1.7740 C.2   121  GLU121      0.3649
      8  OE1      -33.1520  -15.5080   -1.5800 O.co2 121  GLU121     -0.2457
      9  OE2      -32.8230  -17.5030   -2.4520 O.co2 121  GLU121     -0.2457
     10  N        -37.7310  -17.4360    0.0290 N.am  122  LEU122     -0.1980
     11  CA       -38.6260  -16.3140    0.2690 C.3   122  LEU122      0.1596
     12  C        -39.7690  -16.6900    1.2150 C.2   122  LEU122      0.2287
     13  O        -40.1720  -15.8560    2.0340 O.2   122  LEU122     -0.2864
     14  CB       -39.1300  -15.7530   -1.0700 C.3   122  LEU122      0.0297
     15  CG       -37.9460  -15.2900   -1.9510 C.3   122  LEU122      0.0022
     16  CD1      -38.4230  -14.8220   -3.3280 C.3   122  LEU122      0.0001
     17  CD2      -37.1030  -14.2020   -1.2770 C.3   122  LEU122      0.0001
     18  N        -26.9660  -10.5900   -1.9720 N.3   175  SER175     -0.1202
     19  CA       -26.0950  -10.5020   -3.1400 C.3   175  SER175      0.2020
     20  C        -26.8190   -9.7740   -4.2560 C.2   175  SER175      0.2619
     21  O        -26.2940   -8.8230   -4.8470 O.2   175  SER175     -0.2717
     22  CB       -25.6680  -11.9020   -3.6020 C.3   175  SER175      0.2103
     23  OG       -25.1470  -12.6680   -2.5270 O.3   175  SER175     -0.2182
     24  N        -28.0400  -10.2210   -4.5460 N.am  176  GLY176     -0.1942
     25  CA       -28.9640   -9.5430   -5.4270 C.3   176  GLY176      0.2014
     26  C        -30.1910   -9.1510   -4.6240 C.2   176  GLY176      0.2639
     27  O        -30.2310   -9.3830   -3.4070 O.2   176  GLY176     -0.2714
     28  N        -31.1980   -8.5800   -5.2750 N.am  177  VAL177     -0.1963
     29  CA       -32.3540   -8.0100   -4.5820 C.3   177  VAL177      0.1727
     30  C        -33.6230   -8.7380   -5.0170 C.2   177  VAL177      0.2616
     31  O        -33.8900   -8.8660   -6.2150 O.2   177  VAL177     -0.2715
     32  CB       -32.4850   -6.5040   -4.8700 C.3   177  VAL177      0.0290
     33  CG1      -33.6690   -5.9110   -4.0980 C.3   177  VAL177      0.0023
     34  CG2      -31.1910   -5.7750   -4.5180 C.3   177  VAL177      0.0023
     35  N        -34.4140   -9.2070   -4.0470 N.am  178  SER178     -0.1950
     36  CA       -35.7670   -9.6900   -4.3220 C.3   178  SER178      0.1924
     37  C        -36.7700   -8.7330   -3.7000 C.2   178  SER178      0.2314
     38  O        -36.5660   -8.2680   -2.5820 O.2   178  SER178     -0.2863
     39  CB       -36.0120  -11.0900   -3.7410 C.3   178  SER178      0.2116
     40  OG       -35.2270  -12.0840   -4.3860 O.3   178  SER178     -0.2180
     41  N        -43.4570  -12.6160   -5.4290 N.3   190  ARG190     -0.1245
     42  CA       -42.1900  -11.9540   -5.7300 C.3   190  ARG190      0.1563
     43  C        -42.4350  -11.0230   -6.9100 C.2   190  ARG190      0.2260
     44  O        -42.5040  -11.4620   -8.0650 O.2   190  ARG190     -0.2867
     45  CB       -41.0910  -12.9740   -6.0270 C.3   190  ARG190      0.0307
     46  CG       -39.6990  -12.3590   -6.1700 C.3   190  ARG190      0.0489
     47  CD       -38.6570  -13.4060   -6.5850 C.3   190  ARG190      0.2205
     48  NE       -37.2730  -12.9230   -6.5320 N.pl3 190  ARG190     -0.0865
     49  CZ       -36.6160  -12.4000   -7.5750 C.cat 190  ARG190      0.5346
     50  NH1      -37.2190  -12.2610   -8.7480 N.pl3 190  ARG190      0.1354
     51  NH2      -35.3580  -11.9980   -7.4340 N.pl3 190  ARG190      0.1354
     52  N        -40.6700   -8.6430   -8.3500 N.3   192  THR192     -0.1203
     53  CA       -39.5490   -8.5840   -9.2820 C.3   192  THR192      0.1994
     54  C        -38.2660   -8.7220   -8.4710 C.2   192  THR192      0.2618
     55  O        -38.2960   -9.0390   -7.2750 O.2   192  THR192     -0.2717
     56  CB       -39.5780   -7.2890  -10.1020 C.3   192  THR192      0.1784
     57  OG1      -38.6250   -7.3760  -11.1720 O.3   192  THR192     -0.2211
     58  CG2      -39.2600   -6.0960   -9.2350 C.3   192  THR192      0.0376
     59  N        -37.1300   -8.4940   -9.1250 N.am  193  GLY193     -0.1942
     60  CA       -35.8640   -8.3930   -8.4310 C.3   193  GLY193      0.2014
     61  C        -34.9540   -7.5000   -9.2430 C.2   193  GLY193      0.2640
     62  O        -35.3060   -7.0670  -10.3420 O.2   193  GLY193     -0.2714
     63  N        -33.7860   -7.2170   -8.6880 N.am  194  THR194     -0.1936
     64  CA       -32.7540   -6.5060   -9.4250 C.3   194  THR194      0.2028
     65  C        -31.4130   -7.1550   -9.1300 C.2   194  THR194      0.2642
     66  O        -31.1870   -7.6940   -8.0480 O.2   194  THR194     -0.2714
     67  CB       -32.7270   -4.9860   -9.1060 C.3   194  THR194      0.1808
     68  OG1      -31.5950   -4.3710   -9.7290 O.3   194  THR194     -0.2208
     69  CG2      -32.6370   -4.7050   -7.6450 C.3   194  THR194      0.0379
     70  N        -30.5300   -7.1470  -10.1190 N.am  195  SER195     -0.1949
     71  CA       -29.2080   -7.7030   -9.8700 C.3   195  SER195      0.1924
     72  C        -28.2190   -6.6690   -9.3560 C.2   195  SER195      0.2314
     73  O        -27.0620   -7.0130   -9.1100 O.2   195  SER195     -0.2863
     74  CB       -28.6450   -8.3500  -11.1400 C.3   195  SER195      0.2116
     75  OG       -28.3610   -7.3530  -12.0970 O.3   195  SER195     -0.2180
@<TRIPOS>BOND
     1    75    74    1
     2    57    56    1
     3    74    71    1
     4    62    61    2
     5    70    71    1
     6    70    65   am
     7    56    53    1
     8    56    58    1
     9    71    72    1
    10    68    67    1
    11    64    65    1
    12    64    67    1
    13    64    63    1
    14    72    73    2
    15    53    54    1
    16    53    52    1
    17    61    63   am
    18    61    60    1
    19    65    66    2
    20    59    54   am
    21    59    60    1
    22    67    69    1
    23    50    49    1
    24    54    55    2
    25    44    43    2
    26    49    51    1
    27    49    48    2
    28    43    42    1
    29    47    48    1
    30    47    46    1
    31    31    30    2
    32    46    45    1
    33    45    42    1
    34    42    41    1
    35    25    26    1
    36    25    24    1
    37    28    26   am
    38    28    29    1
    39    30    29    1
    40    30    35   am
    41    32    29    1
    42    32    34    1
    43    32    33    1
    44    21    20    2
    45    26    27    2
    46    24    20   am
    47    40    39    1
    48    36    35    1
    49    36    39    1
    50    36    37    1
    51    20    19    1
    52    37    38    2
    53    22    19    1
    54    22    23    1
    55    16    15    1
    56    19    18    1
    57     9     7   ar
    58    15    17    1
    59    15    14    1
    60     7     8   ar
    61     7     6    1
    62     6     5    1
    63    14    11    1
    64     5     2    1
    65     1     2    1
    66    10    11    1
    67    10     3   am
    68    11    12    1
    69     2     3    1
    70     3     4    2
    71    12    13    2
