@<TRIPOS>MOLECULE
tmp/6b3wA00.pdb
 176 176 0 0 0
SMALL
GASTEIGER

@<TRIPOS>ATOM
      1  N         32.9050   18.2240   46.7780 N.3    92  ILE92      -0.1231
      2  CA        32.9010   19.4020   47.6100 C.3    92  ILE92       0.1692
      3  C         33.5030   19.1080   48.9690 C.2    92  ILE92       0.2592
      4  O         33.2590   18.0530   49.5500 O.2    92  ILE92      -0.2718
      5  CB        31.4860   19.9000   47.8010 C.3    92  ILE92       0.0266
      6  CG1       31.0770   20.7340   46.5990 C.3    92  ILE92       0.0019
      7  CG2       31.3800   20.6820   49.0640 C.3    92  ILE92       0.0020
      8  CD1       29.7160   21.3350   46.7480 C.3    92  ILE92       0.0001
      9  N         34.3000   20.0420   49.4740 N.am   93  MET93      -0.1965
     10  CA        34.7850   19.9490   50.8340 C.3    93  MET93       0.1736
     11  C         34.9810   21.3240   51.4070 C.2    93  MET93       0.2616
     12  O         35.6830   22.1320   50.8100 O.2    93  MET93      -0.2715
     13  CB        36.1170   19.2270   50.8950 C.3    93  MET93       0.0427
     14  CG        36.5920   19.0310   52.3330 C.3    93  MET93       0.0599
     15  SD        37.8080   17.7430   52.5010 S.3    93  MET93      -0.1393
     16  CE        39.3150   18.7360   52.7940 C.3    93  MET93       0.0692
     17  N         34.3800   21.5820   52.5700 N.am   94  TYR94      -0.1960
     18  CA        34.6460   22.8140   53.3140 C.3    94  TYR94       0.1771
     19  C         35.8270   22.6860   54.2930 C.2    94  TYR94       0.2620
     20  O         36.1170   21.6000   54.7960 O.2    94  TYR94      -0.2715
     21  CB        33.3890   23.2420   54.0700 C.3    94  TYR94       0.0574
     22  CG        32.3220   23.8620   53.1850 C.ar   94  TYR94      -0.0198
     23  CD1       32.3470   25.2170   52.8680 C.ar   94  TYR94      -0.0009
     24  CD2       31.2670   23.0930   52.6900 C.ar   94  TYR94      -0.0009
     25  CE1       31.3480   25.7860   52.0850 C.ar   94  TYR94       0.0417
     26  CE2       30.2620   23.6510   51.9080 C.ar   94  TYR94       0.0417
     27  CZ        30.2990   24.9920   51.6060 C.ar   94  TYR94       0.1957
     28  OH        29.2820   25.5370   50.8350 O.3    94  TYR94      -0.2866
     29  N         36.5000   23.8040   54.5530 N.am   95  SER95      -0.1950
     30  CA        37.6110   23.8680   55.4960 C.3    95  SER95       0.1924
     31  C         37.3200   23.1800   56.8200 C.2    95  SER95       0.2314
     32  O         36.2680   23.4150   57.4230 O.2    95  SER95      -0.2863
     33  CB        37.9580   25.3230   55.7820 C.3    95  SER95       0.2116
     34  OG        39.1850   25.6700   55.1780 O.3    95  SER95      -0.2180
     35  N         28.9680    8.5510   47.3470 N.3   352  ALA352     -0.1231
     36  CA        28.8690    9.9900   47.0920 C.3   352  ALA352      0.1694
     37  C         29.9140   10.8220   47.8450 C.2   352  ALA352      0.2593
     38  O         30.3760   10.4390   48.9180 O.2   352  ALA352     -0.2718
     39  CB        27.4790   10.4690   47.4430 C.3   352  ALA352      0.0304
     40  N         30.2790   11.9700   47.2880 N.am  353  GLY353     -0.1942
     41  CA        31.1060   12.8960   48.0380 C.3   353  GLY353      0.2014
     42  C         32.4880   12.3250   48.2760 C.2   353  GLY353      0.2638
     43  O         33.0180   11.6370   47.4040 O.2   353  GLY353     -0.2714
     44  N         33.0700   12.6200   49.4430 N.am  354  TRP354     -0.1973
     45  CA        34.3110   11.9870   49.9160 C.3   354  TRP354      0.1640
     46  C         34.0470   10.7620   50.8140 C.2   354  TRP354      0.2290
     47  O         33.0930   10.7340   51.5970 O.2   354  TRP354     -0.2864
     48  CB        35.1420   12.9910   50.7030 C.3   354  TRP354      0.0576
     49  CG        35.6330   14.1450   49.9090 C.ar  354  TRP354      0.0006
     50  CD1       35.0420   15.3750   49.7960 C.ar  354  TRP354      0.0946
     51  CD2       36.8400   14.2080   49.1400 C.ar  354  TRP354      0.0152
     52  NE1       35.8080   16.1990   49.0050 N.ar  354  TRP354     -0.2442
     53  CE2       36.9170   15.5070   48.5880 C.ar  354  TRP354      0.0810
     54  CE3       37.8660   13.2940   48.8640 C.ar  354  TRP354      0.0012
     55  CZ2       37.9800   15.9140   47.7740 C.ar  354  TRP354      0.0191
     56  CZ3       38.9250   13.7010   48.0520 C.ar  354  TRP354      0.0001
     57  CH2       38.9700   15.0020   47.5180 C.ar  354  TRP354      0.0015
     58  N         21.2190   26.0180   60.9800 N.3   387  VAL387     -0.1231
     59  CA        22.1350   26.3320   59.8800 C.3   387  VAL387      0.1692
     60  C         22.5380   25.1320   59.0130 C.2   387  VAL387      0.2592
     61  O         22.8450   25.2960   57.8370 O.2   387  VAL387     -0.2718
     62  CB        23.4390   26.9820   60.3890 C.3   387  VAL387      0.0266
     63  CG1       24.3610   27.2470   59.2220 C.3   387  VAL387      0.0020
     64  CG2       23.1280   28.2680   61.1340 C.3   387  VAL387      0.0020
     65  N         22.5590   23.9340   59.5870 N.am  388  TYR388     -0.1976
     66  CA        23.0380   22.7680   58.8460 C.3   388  TYR388      0.1639
     67  C         21.9870   22.2330   57.8700 C.2   388  TYR388      0.2290
     68  O         22.3120   21.8790   56.7390 O.2   388  TYR388     -0.2864
     69  CB        23.4630   21.6500   59.8060 C.3   388  TYR388      0.0560
     70  CG        24.7080   21.9470   60.6050 C.ar  388  TYR388     -0.0198
     71  CD1       25.6460   22.8630   60.1530 C.ar  388  TYR388     -0.0009
     72  CD2       24.9630   21.2850   61.8060 C.ar  388  TYR388     -0.0009
     73  CE1       26.8120   23.1130   60.8730 C.ar  388  TYR388      0.0417
     74  CE2       26.1300   21.5280   62.5340 C.ar  388  TYR388      0.0417
     75  CZ        27.0490   22.4410   62.0620 C.ar  388  TYR388      0.1957
     76  OH        28.2040   22.6740   62.7730 O.3   388  TYR388     -0.2866
     77  N         21.8830   22.2490   54.2180 N.3   391  TYR391     -0.1241
     78  CA        22.7950   21.4800   53.3860 C.3   391  TYR391      0.1605
     79  C         22.3410   20.0480   53.1940 C.2   391  TYR391      0.2264
     80  O         22.9860   19.2870   52.4750 O.2   391  TYR391     -0.2867
     81  CB        24.2070   21.4920   53.9760 C.3   391  TYR391      0.0534
     82  CG        24.8400   22.8600   54.0700 C.ar  391  TYR391     -0.0201
     83  CD1       25.5080   23.4090   52.9870 C.ar  391  TYR391     -0.0009
     84  CD2       24.7980   23.5880   55.2520 C.ar  391  TYR391     -0.0009
     85  CE1       26.1220   24.6480   53.0720 C.ar  391  TYR391      0.0417
     86  CE2       25.4070   24.8220   55.3510 C.ar  391  TYR391      0.0417
     87  CZ        26.0710   25.3510   54.2550 C.ar  391  TYR391      0.1957
     88  OH        26.6790   26.5840   54.3370 O.3   391  TYR391     -0.2866
     89  N         22.5370   17.7420   55.3590 N.3   393  CYS393     -0.1221
     90  CA        23.8510   17.2870   55.8090 C.3   393  CYS393      0.1808
     91  C         23.8990   17.4120   57.3180 C.2   393  CYS393      0.2602
     92  O         23.0830   18.1240   57.9120 O.2   393  CYS393     -0.2717
     93  CB        24.9340   18.1650   55.2240 C.3   393  CYS393      0.0970
     94  SG        26.0520   17.2690   54.2010 S.3   393  CYS393     -0.0800
     95  N         24.8550   16.7300   57.9360 N.am  394  SER394     -0.1938
     96  CA        24.9930   16.7590   59.3880 C.3   394  SER394      0.2055
     97  C         26.1880   15.9210   59.7930 C.2   394  SER394      0.2643
     98  O         26.3610   14.7940   59.3420 O.2   394  SER394     -0.2714
     99  CB        23.7230   16.2050   60.0630 C.3   394  SER394      0.2130
    100  OG        23.8680   16.0530   61.4730 O.3   394  SER394     -0.2179
    101  N         27.0200   16.4750   60.6570 N.am  395  PHE395     -0.1973
    102  CA        28.0830   15.6890   61.2340 C.3   395  PHE395      0.1639
    103  C         28.0210   15.8740   62.7260 C.2   395  PHE395      0.2290
    104  O         29.0350   15.8940   63.4010 O.2   395  PHE395     -0.2864
    105  CB        29.4190   16.1120   60.6150 C.3   395  PHE395      0.0560
    106  CG        29.4350   15.9540   59.1160 C.ar  395  PHE395     -0.0200
    107  CD1       29.4890   14.6970   58.5400 C.ar  395  PHE395     -0.0042
    108  CD2       29.2610   17.0490   58.2830 C.ar  395  PHE395     -0.0042
    109  CE1       29.3580   14.5390   57.1740 C.ar  395  PHE395     -0.0003
    110  CE2       29.1300   16.8940   56.9050 C.ar  395  PHE395     -0.0003
    111  CZ        29.1760   15.6410   56.3570 C.ar  395  PHE395     -0.0000
    112  N         31.8010   18.9710   62.1420 N.3   408  THR408     -0.1203
    113  CA        31.6500   19.8550   61.0030 C.3   408  THR408      0.1994
    114  C         32.9030   20.6900   60.8650 C.2   408  THR408      0.2617
    115  O         33.5380   20.6650   59.8110 O.2   408  THR408     -0.2717
    116  CB        30.4240   20.8010   61.1580 C.3   408  THR408      0.1784
    117  OG1       29.2080   20.0360   61.2590 O.3   408  THR408     -0.2211
    118  CG2       30.3220   21.7180   59.9600 C.3   408  THR408      0.0376
    119  N         33.2670   21.4080   61.9350 N.am  409  ARG409     -0.1979
    120  CA        34.3560   22.4110   61.8870 C.3   409  ARG409      0.1597
    121  C         35.7380   21.8400   62.2140 C.2   409  ARG409      0.2287
    122  O         36.7410   22.2220   61.5960 O.2   409  ARG409     -0.2864
    123  CB        34.0610   23.5850   62.8360 C.3   409  ARG409      0.0334
    124  CG        33.2590   24.7260   62.2200 C.3   409  ARG409      0.0492
    125  CD        32.5400   25.5520   63.2920 C.3   409  ARG409      0.2205
    126  NE        31.0910   25.5890   63.0750 N.pl3 409  ARG409     -0.0865
    127  CZ        30.3580   26.7020   63.0550 C.cat 409  ARG409      0.5346
    128  NH1       30.9450   27.8880   63.2410 N.pl3 409  ARG409      0.1354
    129  NH2       29.0390   26.6270   62.8500 N.pl3 409  ARG409      0.1354
    130  N         35.8280   11.0060   59.9970 N.3   415  ARG415     -0.1231
    131  CA        34.6020   11.7530   59.6910 C.3   415  ARG415      0.1694
    132  C         34.2210   11.6520   58.2180 C.2   415  ARG415      0.2592
    133  O         33.0690   11.9180   57.8620 O.2   415  ARG415     -0.2718
    134  CB        34.7580   13.2260   60.0410 C.3   415  ARG415      0.0321
    135  CG        35.7880   13.9250   59.1950 C.3   415  ARG415      0.0489
    136  CD        35.8740   15.3890   59.5580 C.3   415  ARG415      0.2205
    137  NE        35.9470   16.1950   58.3550 N.pl3 415  ARG415     -0.0865
    138  CZ        35.3270   17.3530   58.2280 C.cat 415  ARG415      0.5346
    139  NH1       34.6140   17.8120   59.2440 N.pl3 415  ARG415      0.1354
    140  NH2       35.3920   18.0320   57.0870 N.pl3 415  ARG415      0.1354
    141  N         35.1910   11.2850   57.3760 N.am  416  PHE416     -0.1962
    142  CA        34.9390   11.0020   55.9690 C.3   416  PHE416      0.1771
    143  C         34.4190    9.5890   55.7770 C.2   416  PHE416      0.2619
    144  O         34.4550    9.0610   54.6790 O.2   416  PHE416     -0.2715
    145  CB        36.2140   11.1700   55.1330 C.3   416  PHE416      0.0574
    146  CG        36.6690   12.5940   54.9940 C.ar  416  PHE416     -0.0200
    147  CD1       35.9040   13.5230   54.2910 C.ar  416  PHE416     -0.0042
    148  CD2       37.8510   13.0210   55.5840 C.ar  416  PHE416     -0.0042
    149  CE1       36.3070   14.8530   54.1830 C.ar  416  PHE416     -0.0003
    150  CE2       38.2610   14.3530   55.4800 C.ar  416  PHE416     -0.0003
    151  CZ        37.4860   15.2650   54.7810 C.ar  416  PHE416     -0.0000
    152  N         33.9480    8.9510   56.8340 N.am  417  ALA417     -0.1963
    153  CA        33.3180    7.6480   56.6490 C.3   417  ALA417      0.1728
    154  C         31.8310    7.8560   56.3640 C.2   417  ALA417      0.2616
    155  O         31.1770    8.6130   57.0720 O.2   417  ALA417     -0.2715
    156  CB        33.5070    6.7850   57.9070 C.3   417  ALA417      0.0334
    157  N         31.2890    7.1930   55.3430 N.am  418  ASN418     -0.1972
    158  CA        29.9020    7.4660   54.9540 C.3   418  ASN418      0.1688
    159  C         28.8900    6.5990   55.6420 C.2   418  ASN418      0.2292
    160  O         29.2340    5.5780   56.2230 O.2   418  ASN418     -0.2864
    161  CB        29.7230    7.3460   53.4520 C.3   418  ASN418      0.1181
    162  CG        30.5640    8.3460   52.7030 C.2   418  ASN418      0.2629
    163  OD1       30.0840    9.4220   52.3340 O.2   418  ASN418     -0.2716
    164  ND2       31.8440    8.0060   52.4860 N.am  418  ASN418     -0.0877
    165  N         24.8410    5.7220   60.7480 N.3   456  TYR456     -0.1241
    166  CA        24.6560    6.9780   61.4740 C.3   456  TYR456      0.1605
    167  C         23.4000    7.0140   62.3250 C.2   456  TYR456      0.2264
    168  O         23.1850    7.9520   63.0830 O.2   456  TYR456     -0.2867
    169  CB        24.6050    8.1640   60.5240 C.3   456  TYR456      0.0534
    170  CG        25.9210    8.5780   59.9130 C.ar  456  TYR456     -0.0201
    171  CD1       26.0480    9.8110   59.2740 C.ar  456  TYR456     -0.0009
    172  CD2       27.0200    7.7380   59.9210 C.ar  456  TYR456     -0.0009
    173  CE1       27.2260   10.1950   58.6540 C.ar  456  TYR456      0.0417
    174  CE2       28.2120    8.1160   59.3000 C.ar  456  TYR456      0.0417
    175  CZ        28.2990    9.3420   58.6710 C.ar  456  TYR456      0.1957
    176  OH        29.4590    9.7190   58.0480 O.3   456  TYR456     -0.2866
@<TRIPOS>BOND
     1     6     8    1
     2     6     5    1
     3     1     2    1
     4    36    35    1
     5    36    39    1
     6    36    37    1
     7    40    37   am
     8    40    41    1
     9    43    42    2
    10    57    55   ar
    11    57    56   ar
    12     2     5    1
    13     2     3    1
    14    55    53   ar
    15     5     7    1
    16    37    38    2
    17    41    42    1
    18    56    54   ar
    19    42    44   am
    20    53    52   ar
    21    53    51   ar
    22    54    51   ar
    23     3     9   am
    24     3     4    2
    25    52    50   ar
    26    51    49   ar
    27    44    45    1
    28     9    10    1
    29    50    49   ar
    30    49    48    1
    31    45    48    1
    32    45    46    1
    33    12    11    2
    34    46    47    2
    35    10    13    1
    36    10    11    1
    37    28    27    1
    38    13    14    1
    39    11    17   am
    40    27    26   ar
    41    27    25   ar
    42    26    24   ar
    43    25    23   ar
    44    14    15    1
    45   163   162    2
    46    80    79    2
    47   164   162   am
    48    15    16    1
    49    17    18    1
    50    24    22   ar
    51   162   161    1
    52    23    22   ar
    53    83    85   ar
    54    83    82   ar
    55    85    87   ar
    56    22    21    1
    57    79    78    1
    58    18    21    1
    59    18    19    1
    60    78    81    1
    61    78    77    1
    62   161   158    1
    63    81    82    1
    64    82    84   ar
    65   149   147   ar
    66   149   151   ar
    67    94    93    1
    68    87    88    1
    69    87    86   ar
    70   147   146   ar
    71    19    29   am
    72    19    20    2
    73    29    30    1
    74   144   143    2
    75   151   150   ar
    76   158   157    1
    77   158   159    1
    78   146   145    1
    79   146   148   ar
    80   145   142    1
    81    34    33    1
    82    93    90    1
    83    84    86   ar
    84   157   154   am
    85    89    90    1
    86   150   148   ar
    87    30    33    1
    88    30    31    1
    89   159   160    2
    90   143   142    1
    91   143   152   am
    92    90    91    1
    93   142   141    1
    94   111   110   ar
    95   111   109   ar
    96   154   153    1
    97   154   155    2
    98   153   152    1
    99   153   156    1
   100    68    67    2
   101    31    32    2
   102   110   108   ar
   103   140   138    1
   104   109   107   ar
   105    91    92    2
   106    91    95   am
   107   141   132   am
   108    61    60    2
   109   133   132    2
   110    67    66    1
   111    95    96    1
   112   176   175    1
   113   132   131    1
   114   138   137    2
   115   138   139    1
   116   108   106   ar
   117   137   136    1
   118   107   106   ar
   119   173   175   ar
   120   173   171   ar
   121   175   174   ar
   122    66    65    1
   123    66    69    1
   124    60    65   am
   125    60    59    1
   126   106   105    1
   127   135   136    1
   128   135   134    1
   129    63    62    1
   130   171   170   ar
   131   174   172   ar
   132    98    97    2
   133    96    97    1
   134    96    99    1
   135   131   130    1
   136   131   134    1
   137    97   101   am
   138    69    70    1
   139   115   114    2
   140    59    62    1
   141    59    58    1
   142   170   172   ar
   143   170   169    1
   144   118   116    1
   145    99   100    1
   146    71    70   ar
   147    71    73   ar
   148    62    64    1
   149   169   166    1
   150    70    72   ar
   151   105   102    1
   152   101   102    1
   153   165   166    1
   154   114   113    1
   155   114   119   am
   156    73    75   ar
   157   113   116    1
   158   113   112    1
   159   116   117    1
   160   102   103    1
   161   166   167    1
   162   122   121    2
   163    72    74   ar
   164   120   119    1
   165   120   121    1
   166   120   123    1
   167    75    74   ar
   168    75    76    1
   169   124   123    1
   170   124   125    1
   171   167   168    2
   172   103   104    2
   173   129   127    1
   174   127   126    2
   175   127   128    1
   176   126   125    1
