@<TRIPOS>MOLECULE
tmp/6b4dA00.pdb
 165 163 0 0 0
SMALL
GASTEIGER

@<TRIPOS>ATOM
      1  N         11.4320   -0.1510    8.6110 N.3     1  HIS1       -0.1226
      2  CA        10.1050    0.2990    9.0100 C.3     1  HIS1        0.1752
      3  C          9.3240   -0.8890    9.5820 C.2     1  HIS1        0.2596
      4  O          9.6120   -2.0520    9.2780 O.2     1  HIS1       -0.2718
      5  CB         9.3910    0.9070    7.7870 C.3     1  HIS1        0.0759
      6  CG         7.9490    1.2530    8.0070 C.ar    1  HIS1        0.0818
      7  ND1        7.5230    2.5380    8.2710 N.ar    1  HIS1       -0.2268
      8  CD2        6.8310    0.4900    7.9590 C.ar    1  HIS1        0.1154
      9  CE1        6.2070    2.5460    8.3990 C.ar    1  HIS1        0.1986
     10  NE2        5.7630    1.3160    8.2150 N.ar    1  HIS1       -0.2212
     11  N          8.3690   -0.5890   10.4530 N.am    2  TRP2       -0.1976
     12  CA         7.7770   -1.6070   11.3040 C.3     2  TRP2        0.1640
     13  C          6.7520   -2.4250   10.5240 C.2     2  TRP2        0.2290
     14  O          6.2060   -1.9860    9.5100 O.2     2  TRP2       -0.2864
     15  CB         7.1060   -0.9520   12.5150 C.3     2  TRP2        0.0576
     16  CG         5.9220   -0.1050   12.1570 C.ar    2  TRP2        0.0006
     17  CD1        5.9260    1.2310   11.8520 C.ar    2  TRP2        0.0946
     18  CD2        4.5550   -0.5360   12.0720 C.ar    2  TRP2        0.0152
     19  NE1        4.6520    1.6530   11.5770 N.ar    2  TRP2       -0.2442
     20  CE2        3.7900    0.5900   11.7020 C.ar    2  TRP2        0.0810
     21  CE3        3.9060   -1.7620   12.2720 C.ar    2  TRP2        0.0012
     22  CZ2        2.4040    0.5250   11.5310 C.ar    2  TRP2        0.0191
     23  CZ3        2.5320   -1.8200   12.1000 C.ar    2  TRP2        0.0001
     24  CH2        1.7980   -0.6790   11.7270 C.ar    2  TRP2        0.0015
     25  N         -0.6550   -2.3430    6.2930 N.3    61  HIS61      -0.1241
     26  CA        -0.7840   -3.0480    7.5640 C.3    61  HIS61       0.1621
     27  C         -2.1770   -3.6170    7.7980 C.2    61  HIS61       0.2264
     28  O         -2.3080   -4.6520    8.4670 O.2    61  HIS61      -0.2867
     29  CB        -0.4460   -2.1180    8.7380 C.3    61  HIS61       0.0745
     30  CG         0.8330   -1.3700    8.5640 C.ar   61  HIS61       0.0817
     31  ND1        2.0640   -1.9870    8.6170 N.ar   61  HIS61      -0.2268
     32  CD2        1.0750   -0.0570    8.3450 C.ar   61  HIS61       0.1154
     33  CE1        3.0120   -1.0850    8.4380 C.ar   61  HIS61       0.1986
     34  NE2        2.4390    0.0930    8.2660 N.ar   61  HIS61      -0.2212
     35  N        -12.6240    6.1190   11.3640 N.3    89  GLN89      -0.1245
     36  CA       -12.3650    4.9690   10.5000 C.3    89  GLN89       0.1566
     37  C        -12.6320    3.6970   11.2870 C.2    89  GLN89       0.2260
     38  O        -12.6410    3.7050   12.5270 O.2    89  GLN89      -0.2867
     39  CB       -10.9180    4.9420    9.9820 C.3    89  GLN89       0.0367
     40  CG        -9.8670    5.0620   11.0700 C.3    89  GLN89       0.0905
     41  CD        -9.0960    3.7910   11.3740 C.2    89  GLN89       0.2608
     42  OE1       -9.6290    2.6770   11.3680 O.2    89  GLN89      -0.2717
     43  NE2       -7.8370    3.9670   11.7140 N.am   89  GLN89      -0.0878
     44  N        -11.2080   -0.6080   11.0330 N.3    91  HIS91      -0.1241
     45  CA       -10.2960   -1.5670   10.4240 C.3    91  HIS91       0.1621
     46  C        -10.3740   -2.8510   11.2340 C.2    91  HIS91       0.2264
     47  O        -11.0120   -2.8980   12.2900 O.2    91  HIS91      -0.2867
     48  CB        -8.8630   -1.0220   10.4140 C.3    91  HIS91       0.0745
     49  CG        -8.3170   -0.7920   11.7910 C.ar   91  HIS91       0.0817
     50  ND1       -8.4490    0.4040   12.4590 N.ar   91  HIS91      -0.2268
     51  CD2       -7.6950   -1.6330   12.6510 C.ar   91  HIS91       0.1154
     52  CE1       -7.9120    0.2960   13.6660 C.ar   91  HIS91       0.1986
     53  NE2       -7.4570   -0.9400   13.8150 N.ar   91  HIS91      -0.2212
     54  N        -12.0460   -2.8270   14.9360 N.3   116  HIS116     -0.1241
     55  CA       -11.8050   -1.6150   15.7120 C.3   116  HIS116      0.1621
     56  C        -12.4770   -0.4270   15.0300 C.2   116  HIS116      0.2264
     57  O        -12.0830   -0.0440   13.9170 O.2   116  HIS116     -0.2867
     58  CB       -10.3060   -1.3530   15.8130 C.3   116  HIS116      0.0745
     59  CG        -9.6110   -2.3330   16.6900 C.ar  116  HIS116      0.0817
     60  ND1       -8.2520   -2.5500   16.6630 N.ar  116  HIS116     -0.2268
     61  CD2      -10.1170   -3.1650   17.6280 C.ar  116  HIS116      0.1154
     62  CE1       -7.9560   -3.4860   17.5450 C.ar  116  HIS116      0.1986
     63  NE2       -9.0650   -3.8660   18.1550 N.ar  116  HIS116     -0.2212
     64  N        -12.8020    3.3900   15.3650 N.3   118  VAL118     -0.1245
     65  CA       -11.9500    4.4080   15.9780 C.3   118  VAL118      0.1561
     66  C        -12.6800    5.7420   16.0000 C.2   118  VAL118      0.2260
     67  O        -13.1220    6.2240   14.9470 O.2   118  VAL118     -0.2867
     68  CB       -10.6270    4.5390   15.2010 C.3   118  VAL118      0.0252
     69  CG1       -9.7160    5.6090   15.8280 C.3   118  VAL118      0.0019
     70  CG2       -9.8940    3.1850   15.1080 C.3   118  VAL118      0.0019
     71  N         -8.2080   14.8230   14.8650 N.3   127  PHE127     -0.1227
     72  CA        -7.6670   13.5330   15.2930 C.3   127  PHE127      0.1736
     73  C         -6.2050   13.6470   15.7080 C.2   127  PHE127      0.2596
     74  O         -5.7770   13.0210   16.6840 O.2   127  PHE127     -0.2718
     75  CB        -7.8430   12.5580   14.1320 C.3   127  PHE127      0.0547
     76  CG        -7.2350   11.2040   14.3680 C.ar  127  PHE127     -0.0202
     77  CD1       -7.9130   10.2270   15.0750 C.ar  127  PHE127     -0.0042
     78  CD2       -5.9630   10.9160   13.9040 C.ar  127  PHE127     -0.0042
     79  CE1       -7.3520    8.9860   15.2750 C.ar  127  PHE127     -0.0003
     80  CE2       -5.3850    9.6740   14.1200 C.ar  127  PHE127     -0.0003
     81  CZ        -6.0830    8.7110   14.8150 C.ar  127  PHE127     -0.0000
     82  N         -5.4120   14.4250   14.9680 N.am  128  GLY128     -0.1957
     83  CA        -4.0010   14.5650   15.2980 C.3   128  GLY128      0.1869
     84  C         -3.7520   15.1890   16.6600 C.2   128  GLY128      0.2309
     85  O         -2.7950   14.8310   17.3490 O.2   128  GLY128     -0.2863
     86  N         -4.8580   12.4200   19.5310 N.3   131  VAL131     -0.1245
     87  CA        -3.9640   11.3150   19.8840 C.3   131  VAL131      0.1561
     88  C         -2.8800   11.7230   20.8680 C.2   131  VAL131      0.2260
     89  O         -2.1860   10.8470   21.4150 O.2   131  VAL131     -0.2867
     90  CB        -3.3160   10.6170   18.6670 C.3   131  VAL131      0.0252
     91  CG1       -4.3670    9.9880   17.7760 C.3   131  VAL131      0.0019
     92  CG2       -2.4440   11.5640   17.8680 C.3   131  VAL131      0.0019
     93  N         -9.0790    9.3720   22.3070 N.3   137  LEU137     -0.1245
     94  CA        -9.7410    8.4140   21.4320 C.3   137  LEU137      0.1561
     95  C        -10.6150    7.4710   22.2410 C.2   137  LEU137      0.2260
     96  O        -10.3420    7.1920   23.4130 O.2   137  LEU137     -0.2867
     97  CB        -8.7560    7.5360   20.6490 C.3   137  LEU137      0.0270
     98  CG        -7.8260    8.1940   19.6340 C.3   137  LEU137      0.0019
     99  CD1       -7.1630    7.1380   18.7540 C.3   137  LEU137      0.0001
    100  CD2       -8.4010    9.3480   18.8260 C.3   137  LEU137      0.0001
    101  N        -12.0350    3.5930   21.2280 N.3   139  VAL139     -0.1245
    102  CA       -12.0660    2.5350   20.2260 C.3   139  VAL139      0.1561
    103  C        -13.0200    1.4680   20.7110 C.2   139  VAL139      0.2260
    104  O        -12.8660    0.9310   21.8200 O.2   139  VAL139     -0.2867
    105  CB       -10.6800    1.9660   19.8860 C.3   139  VAL139      0.0252
    106  CG1      -10.8140    0.9200   18.7770 C.3   139  VAL139      0.0019
    107  CG2       -9.7580    3.0710   19.4280 C.3   139  VAL139      0.0019
    108  N         -3.0730    2.9780   21.2470 N.3   194  LEU194     -0.1231
    109  CA        -3.0590    2.4460   19.8900 C.3   194  LEU194      0.1693
    110  C         -2.3180    1.1140   19.8970 C.2   194  LEU194      0.2593
    111  O         -1.3860    0.9160   20.6750 O.2   194  LEU194     -0.2718
    112  CB        -2.3260    3.4080   18.9490 C.3   194  LEU194      0.0284
    113  CG        -2.8070    4.8640   18.9190 C.3   194  LEU194      0.0019
    114  CD1       -1.9480    5.6800   17.9620 C.3   194  LEU194      0.0001
    115  CD2       -4.2590    4.9690   18.5440 C.3   194  LEU194      0.0001
    116  N         -2.7040    0.1900   19.0130 N.am  195  THR195     -0.1939
    117  CA        -2.0500   -1.1100   18.9600 C.3   195  THR195      0.2028
    118  C         -1.0700   -1.2420   17.8160 C.2   195  THR195      0.2643
    119  O         -0.4530   -2.3020   17.6800 O.2   195  THR195     -0.2714
    120  CB        -3.0690   -2.2500   18.9210 C.3   195  THR195      0.1808
    121  OG1       -3.7730   -2.2230   17.6730 O.3   195  THR195     -0.2208
    122  CG2       -4.0330   -2.1980   20.1010 C.3   195  THR195      0.0379
    123  N         -0.8790   -0.1910   17.0200 N.am  196  THR196     -0.1937
    124  CA         0.2240   -0.1050   16.0780 C.3   196  THR196      0.2013
    125  C          1.0500    1.1230   16.4160 C.2   196  THR196      0.2484
    126  O          0.5430    2.0720   17.0230 O.2   196  THR196     -0.2729
    127  CB        -0.2160   -0.0210   14.6030 C.3   196  THR196      0.1807
    128  OG1       -0.7370    1.2760   14.2930 O.3   196  THR196     -0.2208
    129  CG2       -1.2520   -1.0390   14.2690 C.3   196  THR196      0.0379
    130  N          2.3170    1.1610   15.9950 N.am  197  PRO197     -0.2715
    131  CA         3.0740    2.4150   16.0830 C.3   197  PRO197      0.1521
    132  C          2.2430    3.5800   15.5360 C.2   197  PRO197      0.2440
    133  O          1.6160    3.4320   14.4790 O.2   197  PRO197     -0.2731
    134  CB         4.3090    2.1240   15.2300 C.3   197  PRO197      0.0310
    135  CG         4.5220    0.6450   15.4260 C.3   197  PRO197      0.0237
    136  CD         3.1180    0.0850   15.3870 C.3   197  PRO197      0.0939
    137  N          2.2360    4.7270   16.2200 N.am  198  PRO198     -0.2727
    138  CA         3.1260    5.1350   17.3150 C.3   198  PRO198      0.1402
    139  C          2.7460    4.6800   18.7400 C.2   198  PRO198      0.2269
    140  O          3.3970    5.1290   19.6810 O.2   198  PRO198     -0.2865
    141  CB         3.1040    6.6650   17.1990 C.3   198  PRO198      0.0296
    142  CG         1.7750    6.9850   16.6540 C.3   198  PRO198      0.0237
    143  CD         1.4530    5.8710   15.6980 C.3   198  PRO198      0.0939
    144  N          0.5180    5.3230   20.8710 N.3   200  LEU200     -0.1245
    145  CA         0.2240    6.4110   21.7980 C.3   200  LEU200      0.1561
    146  C         -0.8420    6.0060   22.8130 C.2   200  LEU200      0.2260
    147  O         -1.8160    5.3050   22.5030 O.2   200  LEU200     -0.2867
    148  CB        -0.2230    7.6540   21.0280 C.3   200  LEU200      0.0270
    149  CG         0.8700    8.2470   20.1300 C.3   200  LEU200      0.0019
    150  CD1        0.3160    9.3210   19.2030 C.3   200  LEU200      0.0001
    151  CD2        2.0100    8.8240   20.9590 C.3   200  LEU200      0.0001
    152  N        -10.5360    2.0970   25.7420 N.3   205  TRP205     -0.1241
    153  CA       -10.9910    0.8950   25.0540 C.3   205  TRP205      0.1605
    154  C        -12.3480    0.4550   25.5730 C.2   205  TRP205      0.2264
    155  O        -12.5770    0.4080   26.7880 O.2   205  TRP205     -0.2867
    156  CB        -9.9800   -0.2550   25.2410 C.3   205  TRP205      0.0550
    157  CG        -8.8740   -0.1440   24.2570 C.ar  205  TRP205      0.0003
    158  CD1       -7.6500    0.4440   24.4260 C.ar  205  TRP205      0.0946
    159  CD2       -8.9280   -0.5750   22.9000 C.ar  205  TRP205      0.0152
    160  NE1       -6.9410    0.4080   23.2480 N.ar  205  TRP205     -0.2442
    161  CE2       -7.7110   -0.2080   22.2940 C.ar  205  TRP205      0.0810
    162  CE3       -9.8950   -1.2270   22.1330 C.ar  205  TRP205      0.0012
    163  CZ2       -7.4310   -0.4960   20.9650 C.ar  205  TRP205      0.0191
    164  CZ3       -9.6120   -1.5130   20.8230 C.ar  205  TRP205      0.0001
    165  CH2       -8.3990   -1.1500   20.2460 C.ar  205  TRP205      0.0015
@<TRIPOS>BOND
     1    25    26    1
     2    26    27    1
     3    26    29    1
     4     5     6    1
     5     5     2    1
     6    27    28    2
     7     8     6   ar
     8     8    10   ar
     9     6     7   ar
    10    10     9   ar
    11    34    32   ar
    12    34    33   ar
    13     7     9   ar
    14    32    30   ar
    15    33    31   ar
    16    30    31   ar
    17    30    29    1
    18     1     2    1
    19     2     3    1
    20     4     3    2
    21    14    13    2
    22     3    11   am
    23    39    36    1
    24    39    40    1
    25    48    45    1
    26    48    49    1
    27    45    44    1
    28    45    46    1
    29    11    12    1
    30    36    37    1
    31    36    35    1
    32    13    12    1
    33    40    41    1
    34    46    47    2
    35    37    38    2
    36    12    15    1
    37    42    41    2
    38    41    43   am
    39    22    20   ar
    40    22    24   ar
    41    19    20   ar
    42    19    17   ar
    43    20    18   ar
    44    24    23   ar
    45    49    50   ar
    46    49    51   ar
    47    17    16   ar
    48    18    16   ar
    49    18    21   ar
    50    23    21   ar
    51    16    15    1
    52    50    52   ar
    53    51    53   ar
    54    52    53   ar
    55    78    80   ar
    56    78    76   ar
    57    57    56    2
    58    80    81   ar
    59    75    76    1
    60    75    72    1
    61   129   127    1
    62   128   127    1
    63    76    77   ar
    64   133   132    2
    65   127   124    1
    66    81    79   ar
    67    71    72    1
    68    54    55    1
    69    67    66    2
    70    82    83    1
    71    82    73   am
    72    56    55    1
    73    77    79   ar
    74    70    68    1
    75    68    69    1
    76    68    65    1
    77   134   135    1
    78   134   131    1
    79    72    73    1
    80    83    84    1
    81    64    65    1
    82   136   135    1
    83   136   130    1
    84   132   131    1
    85   132   137   am
    86   143   137    1
    87   143   142    1
    88    73    74    2
    89    55    58    1
    90    58    59    1
    91    65    66    1
    92   130   131    1
    93   130   125   am
    94   124   125    1
    95   124   123    1
    96   137   138    1
    97   125   126    2
    98   142   141    1
    99    84    85    2
   100    60    59   ar
   101    60    62   ar
   102    59    61   ar
   103   123   118   am
   104   141   138    1
   105   138   139    1
   106    62    63   ar
   107    61    63   ar
   108   121   120    1
   109   119   118    2
   110    91    90    1
   111   118   117    1
   112    92    90    1
   113   114   113    1
   114   115   113    1
   115    90    87    1
   116   139   140    2
   117    99    98    1
   118   106   105    1
   119   100    98    1
   120   113   112    1
   121   120   117    1
   122   120   122    1
   123   112   109    1
   124   117   116    1
   125   116   110   am
   126   150   149    1
   127   107   105    1
   128    86    87    1
   129    98    97    1
   130    87    88    1
   131   105   102    1
   132   109   110    1
   133   109   108    1
   134   110   111    2
   135   149   151    1
   136   149   148    1
   137   102   103    1
   138   102   101    1
   139   165   164   ar
   140   165   163   ar
   141    97    94    1
   142   103   104    2
   143   164   162   ar
   144    88    89    2
   145   144   145    1
   146   163   161   ar
   147   148   145    1
   148    94    95    1
   149    94    93    1
   150   145   146    1
   151   162   159   ar
   152    95    96    2
   153   161   159   ar
   154   161   160   ar
   155   147   146    2
   156   159   157   ar
   157   160   158   ar
   158   157   158   ar
   159   157   156    1
   160   153   156    1
   161   153   154    1
   162   153   152    1
   163   154   155    2
