@<TRIPOS>MOLECULE
tmp/6b4hD00.pdb
 101 95 0 0 0
SMALL
GASTEIGER

@<TRIPOS>ATOM
      1  N        129.5460  -17.2390  116.2330 N.3    10  HIS10      -0.1241
      2  CA       128.3950  -16.6110  115.5920 C.3    10  HIS10       0.1621
      3  C        127.0990  -17.3300  115.9480 C.2    10  HIS10       0.2264
      4  O        126.0660  -16.6890  116.1790 O.2    10  HIS10      -0.2867
      5  CB       128.6080  -16.6000  114.0780 C.3    10  HIS10       0.0745
      6  CG       127.5740  -15.8260  113.3210 C.ar   10  HIS10       0.0817
      7  ND1      126.7500  -16.4090  112.3830 N.ar   10  HIS10      -0.2268
      8  CD2      127.2400  -14.5140  113.3520 C.ar   10  HIS10       0.1154
      9  CE1      125.9460  -15.4920  111.8750 C.ar   10  HIS10       0.1986
     10  NE2      126.2210  -14.3340  112.4480 N.ar   10  HIS10      -0.2212
     11  N        123.6920  -16.3500  118.3720 N.3    14  LYS14      -0.1245
     12  CA       122.2940  -16.5410  117.9860 C.3    14  LYS14       0.1561
     13  C        121.4980  -17.1690  119.1220 C.2    14  LYS14       0.2260
     14  O        120.4170  -16.6890  119.4850 O.2    14  LYS14      -0.2867
     15  CB       122.1960  -17.4270  116.7420 C.3    14  LYS14       0.0271
     16  CG       122.6250  -16.7770  115.4380 C.3    14  LYS14       0.0035
     17  CD       122.4830  -17.7660  114.2800 C.3    14  LYS14       0.0206
     18  CE       123.1010  -17.2210  112.9980 C.3    14  LYS14       0.1093
     19  NZ       122.3780  -16.0190  112.5130 N.3    14  LYS14      -0.1314
     20  N        120.8420  -14.7900  122.0820 N.3    17  ARG17      -0.1231
     21  CA       119.7470  -13.8470  121.8760 C.3    17  ARG17       0.1694
     22  C        118.3950  -14.5300  122.0560 C.2    17  ARG17       0.2591
     23  O        117.4880  -13.9690  122.6850 O.2    17  ARG17      -0.2718
     24  CB       119.8620  -13.2020  120.4930 C.3    17  ARG17       0.0321
     25  CG       121.1280  -12.3660  120.3180 C.3    17  ARG17       0.0489
     26  CD       121.0280  -11.3640  119.1680 C.3    17  ARG17       0.2205
     27  NE       120.8010  -11.9990  117.8750 N.pl3  17  ARG17      -0.0865
     28  CZ       121.7410  -12.6000  117.1540 C.cat  17  ARG17       0.5346
     29  NH1      122.9890  -12.6690  117.5990 N.pl3  17  ARG17       0.1354
     30  NH2      121.4260  -13.1460  115.9870 N.pl3  17  ARG17       0.1354
     31  N        118.2430  -15.7500  121.5330 N.am   18  LYS18      -0.1980
     32  CA       117.0170  -16.5040  121.7810 C.3    18  LYS18       0.1596
     33  C        116.8030  -16.7160  123.2750 C.2    18  LYS18       0.2287
     34  O        115.6840  -16.5680  123.7820 O.2    18  LYS18      -0.2864
     35  CB       117.0620  -17.8560  121.0660 C.3    18  LYS18       0.0298
     36  CG       117.2480  -17.7930  119.5610 C.3    18  LYS18       0.0038
     37  CD       116.0310  -17.2190  118.8630 C.3    18  LYS18       0.0206
     38  CE       116.1900  -17.2830  117.3520 C.3    18  LYS18       0.1093
     39  NZ       115.0820  -16.5830  116.6470 N.3    18  LYS18      -0.1314
     40  N        126.8640   -7.9470  121.9400 N.3   112  ASN112     -0.1240
     41  CA       126.4430   -8.4740  120.6460 C.3   112  ASN112      0.1653
     42  C        125.5260   -7.4930  119.9250 C.2   112  ASN112      0.2266
     43  O        125.6360   -7.3080  118.7070 O.2   112  ASN112     -0.2867
     44  CB       125.7610   -9.8290  120.8620 C.3   112  ASN112      0.1155
     45  CG       125.3300  -10.5030  119.5660 C.2   112  ASN112      0.2627
     46  OD1      124.3210  -11.2090  119.5390 O.2   112  ASN112     -0.2716
     47  ND2      126.0910  -10.3060  118.4950 N.am  112  ASN112     -0.0877
     48  N        126.4300   -5.8030  116.4260 N.3   116  LYS116     -0.1245
     49  CA       125.4870   -5.8680  115.3170 C.3   116  LYS116      0.1561
     50  C        125.1230   -4.4750  114.8230 C.2   116  LYS116      0.2260
     51  O        125.0070   -4.2490  113.6130 O.2   116  LYS116     -0.2867
     52  CB       124.2390   -6.6440  115.7440 C.3   116  LYS116      0.0271
     53  CG       124.4220   -8.1650  115.7250 C.3   116  LYS116      0.0035
     54  CD       123.3800   -8.8930  116.5820 C.3   116  LYS116      0.0206
     55  CE       121.9580   -8.6790  116.0950 C.3   116  LYS116      0.1093
     56  NZ       121.7070   -9.2170  114.7270 N.3   116  LYS116     -0.1314
     57  N        128.1130   -3.0190  112.8070 N.3   119  ILE119     -0.1231
     58  CA       128.1540   -3.6400  111.4840 C.3   119  ILE119      0.1692
     59  C        127.0840   -3.0430  110.5830 C.2   119  ILE119      0.2592
     60  O        127.3210   -2.8030  109.3920 O.2   119  ILE119     -0.2718
     61  CB       127.9960   -5.1690  111.6020 C.3   119  ILE119      0.0266
     62  CG1      129.2430   -5.8060  112.2300 C.3   119  ILE119      0.0019
     63  CG2      127.6900   -5.7990  110.2350 C.3   119  ILE119      0.0020
     64  CD1      130.4850   -5.7560  111.3670 C.3   119  ILE119      0.0001
     65  N        125.8870   -2.8030  111.1270 N.am  120  SER120     -0.1952
     66  CA       124.7990   -2.2750  110.3100 C.3   120  SER120      0.1924
     67  C        125.0940   -0.8550  109.8440 C.2   120  SER120      0.2314
     68  O        124.7150   -0.4770  108.7310 O.2   120  SER120     -0.2863
     69  CB       123.4810   -2.3230  111.0810 C.3   120  SER120      0.2116
     70  OG       123.0230   -3.6590  111.1970 O.3   120  SER120     -0.2180
     71  N        131.1070  -11.7070  113.4330 N.3   163  LYS163     -0.1245
     72  CA       130.1220  -11.2220  112.4750 C.3   163  LYS163      0.1561
     73  C        130.7900  -10.6680  111.2220 C.2   163  LYS163      0.2260
     74  O        130.2900  -10.8720  110.1100 O.2   163  LYS163     -0.2867
     75  CB       129.2370  -10.1580  113.1260 C.3   163  LYS163      0.0271
     76  CG       128.1410   -9.5990  112.2200 C.3   163  LYS163      0.0035
     77  CD       127.2030  -10.6870  111.7210 C.3   163  LYS163      0.0206
     78  CE       126.0790  -10.1280  110.8610 C.3   163  LYS163      0.1093
     79  NZ       125.0040   -9.4930  111.6800 N.3   163  LYS163     -0.1314
     80  N        131.3440  -13.2440  108.7440 N.3   166  ILE166     -0.1245
     81  CA       130.1510  -13.6740  108.0230 C.3   166  ILE166      0.1561
     82  C        129.8980  -12.7690  106.8230 C.2   166  ILE166      0.2260
     83  O        129.5960  -13.2410  105.7210 O.2   166  ILE166     -0.2867
     84  CB       128.9320  -13.6930  108.9660 C.3   166  ILE166      0.0252
     85  CG1      129.1420  -14.6660  110.1360 C.3   166  ILE166      0.0019
     86  CG2      127.6650  -14.0400  108.1980 C.3   166  ILE166      0.0019
     87  CD1      129.2630  -16.1330  109.7400 C.3   166  ILE166      0.0001
     88  N        125.1980  -11.2640   99.6880 N.3   190  TRP190     -0.1241
     89  CA       124.0780  -11.4140  100.6030 C.3   190  TRP190      0.1605
     90  C        122.7850  -11.7310   99.8540 C.2   190  TRP190      0.2264
     91  O        122.7100  -11.6940   98.6220 O.2   190  TRP190     -0.2867
     92  CB       123.8950  -10.1510  101.4420 C.3   190  TRP190      0.0550
     93  CG       123.5090  -10.4440  102.8570 C.ar  190  TRP190      0.0003
     94  CD1      122.3800  -10.0320  103.5040 C.ar  190  TRP190      0.0946
     95  CD2      124.2490  -11.2290  103.8000 C.ar  190  TRP190      0.0152
     96  NE1      122.3750  -10.5030  104.7920 N.ar  190  TRP190     -0.2442
     97  CE2      123.5100  -11.2430  105.0000 C.ar  190  TRP190      0.0810
     98  CE3      125.4660  -11.9190  103.7480 C.ar  190  TRP190      0.0012
     99  CZ2      123.9470  -11.9180  106.1390 C.ar  190  TRP190      0.0191
    100  CZ3      125.9000  -12.5880  104.8790 C.ar  190  TRP190      0.0001
    101  CH2      125.1400  -12.5840  106.0590 C.ar  190  TRP190      0.0015
@<TRIPOS>BOND
     1    91    90    2
     2    88    89    1
     3    90    89    1
     4    89    92    1
     5    92    93    1
     6    93    94   ar
     7    93    95   ar
     8    94    96   ar
     9    98    95   ar
    10    98   100   ar
    11    95    97   ar
    12    96    97   ar
    13   100   101   ar
    14    97    99   ar
    15    83    82    2
    16   101    99   ar
    17    82    81    1
    18    81    80    1
    19    81    84    1
    20    86    84    1
    21    68    67    2
    22    84    85    1
    23    60    59    2
    24    87    85    1
    25    67    66    1
    26    74    73    2
    27    63    61    1
    28    66    69    1
    29    66    65    1
    30    59    65   am
    31    59    58    1
    32    78    79    1
    33    78    77    1
    34    69    70    1
    35    73    72    1
    36    64    62    1
    37    58    61    1
    38    58    57    1
    39    61    62    1
    40    77    76    1
    41     9     7   ar
    42     9    10   ar
    43    76    75    1
    44     7     6   ar
    45    10     8   ar
    46    72    75    1
    47    72    71    1
    48    19    18    1
    49    18    17    1
    50     6     8   ar
    51     6     5    1
    52    51    50    2
    53     5     2    1
    54    17    16    1
    55    56    55    1
    56    50    49    1
    57    49    52    1
    58    49    48    1
    59    16    15    1
    60     2     3    1
    61     2     1    1
    62    53    52    1
    63    53    54    1
    64     3     4    2
    65    30    28    1
    66    55    54    1
    67    39    38    1
    68    15    12    1
    69    28    29    1
    70    28    27    2
    71    38    37    1
    72    27    26    1
    73    12    11    1
    74    12    13    1
    75    47    45   am
    76    43    42    2
    77    37    36    1
    78    13    14    2
    79    26    25    1
    80    46    45    2
    81    36    35    1
    82    45    44    1
    83    42    41    1
    84    25    24    1
    85    24    21    1
    86    41    44    1
    87    41    40    1
    88    35    32    1
    89    31    32    1
    90    31    22   am
    91    32    33    1
    92    21    22    1
    93    21    20    1
    94    22    23    2
    95    33    34    2
