@<TRIPOS>MOLECULE
tmp/6b4hD02.pdb
 98 91 0 0 0
SMALL
GASTEIGER

@<TRIPOS>ATOM
      1  N        128.9830    7.7540  123.0730 N.3    60  GLN60      -0.1245
      2  CA       129.8450    6.7180  123.6300 C.3    60  GLN60       0.1566
      3  C        129.6240    6.5710  125.1310 C.2    60  GLN60       0.2260
      4  O        129.5480    5.4500  125.6490 O.2    60  GLN60      -0.2867
      5  CB       131.3010    7.0540  123.3240 C.3    60  GLN60       0.0367
      6  CG       132.3110    6.0560  123.8480 C.3    60  GLN60       0.0905
      7  CD       133.7360    6.5220  123.6220 C.2    60  GLN60       0.2608
      8  OE1      134.5820    6.4250  124.5120 O.2    60  GLN60      -0.2717
      9  NE2      134.0090    7.0390  122.4250 N.am   60  GLN60      -0.0878
     10  N        134.6670    5.8470  110.1370 N.3   134  ASP134     -0.1239
     11  CA       135.6620    6.1850  111.1510 C.3   134  ASP134      0.1674
     12  C        135.0460    6.4590  112.5190 C.2   134  ASP134      0.2266
     13  O        135.5410    5.9020  113.5150 O.2   134  ASP134     -0.2867
     14  CB       136.4910    7.3760  110.6580 C.3   134  ASP134      0.1410
     15  CG       137.8520    7.4580  111.3250 C.2   134  ASP134      0.3668
     16  OD1      138.4710    6.3960  111.5630 O.co2 134  ASP134     -0.2456
     17  OD2      138.3140    8.5870  111.5950 O.co2 134  ASP134     -0.2456
     18  N        135.8500    4.3360  115.8910 N.3   138  ILE138     -0.1245
     19  CA       136.3470    4.9370  117.1250 C.3   138  ILE138      0.1561
     20  C        135.5170    4.4610  118.3100 C.2   138  ILE138      0.2260
     21  O        136.0540    4.0700  119.3520 O.2   138  ILE138     -0.2867
     22  CB       136.3430    6.4730  117.0130 C.3   138  ILE138      0.0252
     23  CG1      137.4290    6.9240  116.0350 C.3   138  ILE138      0.0019
     24  CG2      136.5490    7.1220  118.3880 C.3   138  ILE138      0.0019
     25  CD1      137.2820    8.3530  115.5710 C.3   138  ILE138      0.0001
     26  N        136.2220    0.7800  119.2220 N.3   141  ALA141     -0.1231
     27  CA       137.5160    0.6100  119.8750 C.3   141  ALA141      0.1694
     28  C        137.5120    1.1840  121.2870 C.2   141  ALA141      0.2591
     29  O        138.1160    0.6060  122.1980 O.2   141  ALA141     -0.2718
     30  CB       138.6100    1.2700  119.0380 C.3   141  ALA141      0.0304
     31  N        136.8510    2.3250  121.4870 N.am  142  ALA142     -0.1980
     32  CA       136.8070    2.9340  122.8130 C.3   142  ALA142      0.1597
     33  C        136.0340    2.0640  123.8000 C.2   142  ALA142      0.2287
     34  O        136.4760    1.8520  124.9350 O.2   142  ALA142     -0.2864
     35  CB       136.1760    4.3220  122.7260 C.3   142  ALA142      0.0319
     36  N        142.8570    0.1590  112.3190 N.3   218  LEU218     -0.1231
     37  CA       143.8990    1.1770  112.2340 C.3   218  LEU218      0.1693
     38  C        143.6730    2.2960  113.2420 C.2   218  LEU218      0.2592
     39  O        143.6390    3.4740  112.8770 O.2   218  LEU218     -0.2718
     40  CB       143.9710    1.7560  110.8160 C.3   218  LEU218      0.0284
     41  CG       144.4440    0.7910  109.7280 C.3   218  LEU218      0.0019
     42  CD1      144.4100    1.4650  108.3640 C.3   218  LEU218      0.0001
     43  CD2      145.8410    0.2880  110.0300 C.3   218  LEU218      0.0001
     44  N        143.5420    1.9450  114.5160 N.am  219  ARG219     -0.1966
     45  CA       143.3340    2.9260  115.5670 C.3   219  ARG219      0.1729
     46  C        144.6190    3.1150  116.3630 C.2   219  ARG219      0.2616
     47  O        145.4530    2.2110  116.4490 O.2   219  ARG219     -0.2715
     48  CB       142.1890    2.5000  116.4900 C.3   219  ARG219      0.0348
     49  CG       140.8710    2.3070  115.7630 C.3   219  ARG219      0.0492
     50  CD       139.8790    3.4400  116.0280 C.3   219  ARG219      0.2205
     51  NE       140.3080    4.7350  115.4930 N.pl3 219  ARG219     -0.0865
     52  CZ       139.9750    5.2150  114.2960 C.cat 219  ARG219      0.5346
     53  NH1      140.4100    6.4110  113.9180 N.pl3 219  ARG219      0.1354
     54  NH2      139.2120    4.5130  113.4680 N.pl3 219  ARG219      0.1354
     55  N        144.7740    4.3060  116.9360 N.am  220  LYS220     -0.1963
     56  CA       145.9700    4.6780  117.6830 C.3   220  LYS220      0.1728
     57  C        145.6790    4.6460  119.1770 C.2   220  LYS220      0.2616
     58  O        144.8190    5.3890  119.6590 O.2   220  LYS220     -0.2715
     59  CB       146.4510    6.0710  117.2830 C.3   220  LYS220      0.0311
     60  CG       147.2860    6.1110  116.0170 C.3   220  LYS220      0.0038
     61  CD       147.9620    7.4660  115.8390 C.3   220  LYS220      0.0206
     62  CE       148.9740    7.7610  116.9490 C.3   220  LYS220      0.1093
     63  NZ       149.9510    6.6480  117.1590 N.3   220  LYS220     -0.1314
     64  N        146.4160    3.8100  119.9100 N.am  221  PHE221     -0.1974
     65  CA       146.2970    3.7310  121.3610 C.3   221  PHE221      0.1639
     66  C        147.5770    4.1490  122.0730 C.2   221  PHE221      0.2290
     67  O        147.6520    4.0380  123.3040 O.2   221  PHE221     -0.2864
     68  CB       145.9070    2.3110  121.7830 C.3   221  PHE221      0.0560
     69  CG       144.4400    2.0200  121.6460 C.ar  221  PHE221     -0.0200
     70  CD1      143.8780    1.7950  120.4030 C.ar  221  PHE221     -0.0042
     71  CD2      143.6240    1.9620  122.7630 C.ar  221  PHE221     -0.0042
     72  CE1      142.5270    1.5250  120.2720 C.ar  221  PHE221     -0.0003
     73  CE2      142.2730    1.6920  122.6380 C.ar  221  PHE221     -0.0003
     74  CZ       141.7250    1.4710  121.3880 C.ar  221  PHE221     -0.0000
     75  N        147.1190    6.6010  124.7970 N.3   224  SER224     -0.1217
     76  CA       146.0340    6.2190  125.6880 C.3   224  SER224      0.1889
     77  C        146.5030    5.1400  126.6530 C.2   224  SER224      0.2288
     78  O        147.3420    4.2980  126.3170 O.2   224  SER224     -0.2866
     79  CB       144.8210    5.7070  124.8980 C.3   224  SER224      0.2089
     80  OG       143.8450    5.1510  125.7640 O.3   224  SER224     -0.2183
     81  N        144.5560    2.8350  127.5500 N.3   226  LYS226     -0.1245
     82  CA       143.8810    1.6150  127.1360 C.3   226  LYS226      0.1561
     83  C        144.7640    0.8220  126.1760 C.2   226  LYS226      0.2260
     84  O        145.6940    1.3520  125.5650 O.2   226  LYS226     -0.2867
     85  CB       142.5470    1.9340  126.4560 C.3   226  LYS226      0.0271
     86  CG       141.5120    2.6350  127.3310 C.3   226  LYS226      0.0035
     87  CD       140.4510    3.2920  126.4520 C.3   226  LYS226      0.0206
     88  CE       139.2170    3.7080  127.2310 C.3   226  LYS226      0.1093
     89  NZ       138.2580    4.4420  126.3540 N.3   226  LYS226     -0.1314
     90  N        147.3190    6.6500  108.2170 N.3   268  LYS268     -0.1245
     91  CA       147.3940    5.8000  109.4010 C.3   268  LYS268      0.1561
     92  C        148.2160    4.5510  109.1220 C.2   268  LYS268      0.2260
     93  O        148.9880    4.1030  109.9770 O.2   268  LYS268     -0.2867
     94  CB       145.9940    5.4160  109.8740 C.3   268  LYS268      0.0271
     95  CG       145.1750    6.5770  110.4000 C.3   268  LYS268      0.0035
     96  CD       143.8640    6.0900  110.9930 C.3   268  LYS268      0.0206
     97  CE       142.9060    7.2360  111.2780 C.3   268  LYS268      0.1093
     98  NZ       141.5300    6.9140  110.8080 N.3   268  LYS268     -0.1314
@<TRIPOS>BOND
     1    90    91    1
     2    42    41    1
     3    92    91    1
     4    92    93    2
     5    91    94    1
     6    41    43    1
     7    41    40    1
     8    94    95    1
     9    10    11    1
    10    95    96    1
    11    14    11    1
    12    14    15    1
    13    98    97    1
    14    40    37    1
    15    96    97    1
    16    11    12    1
    17    15    16   ar
    18    15    17   ar
    19    37    36    1
    20    37    38    1
    21    12    13    2
    22    39    38    2
    23    38    44   am
    24    54    52    1
    25    53    52    1
    26    52    51    2
    27    44    45    1
    28    51    50    1
    29    45    46    1
    30    45    48    1
    31    25    23    1
    32    49    50    1
    33    49    48    1
    34    61    60    1
    35    61    62    1
    36    18    19    1
    37    60    59    1
    38    23    22    1
    39    46    47    2
    40    46    55   am
    41    55    56    1
    42    62    63    1
    43    22    19    1
    44    22    24    1
    45    19    20    1
    46    59    56    1
    47    56    57    1
    48    20    21    2
    49    30    27    1
    50    57    58    2
    51    57    64   am
    52    26    27    1
    53    27    28    1
    54    64    65    1
    55    72    70   ar
    56    72    74   ar
    57    70    69   ar
    58    28    31   am
    59    28    29    2
    60    65    68    1
    61    65    66    1
    62    74    73   ar
    63    31    32    1
    64    69    68    1
    65    69    71   ar
    66    66    67    2
    67     9     7   am
    68    73    71   ar
    69    35    32    1
    70    32    33    1
    71     1     2    1
    72     5     2    1
    73     5     6    1
    74     7     6    1
    75     7     8    2
    76     2     3    1
    77    33    34    2
    78    75    76    1
    79    79    76    1
    80    79    80    1
    81     3     4    2
    82    84    83    2
    83    76    77    1
    84    83    82    1
    85    78    77    2
    86    89    88    1
    87    87    88    1
    88    87    86    1
    89    85    82    1
    90    85    86    1
    91    82    81    1
