@<TRIPOS>MOLECULE
tmp/6b4hD01.pdb
 82 76 0 0 0
SMALL
GASTEIGER

@<TRIPOS>ATOM
      1  N        131.2510   11.6520  121.4990 N.3    57  LYS57      -0.1245
      2  CA       131.7220   11.2810  122.8280 C.3    57  LYS57       0.1561
      3  C        130.5520   11.0730  123.7780 C.2    57  LYS57       0.2260
      4  O        130.5920   10.1910  124.6430 O.2    57  LYS57      -0.2867
      5  CB       132.6670   12.3520  123.3730 C.3    57  LYS57       0.0271
      6  CG       133.2360   12.0410  124.7520 C.3    57  LYS57       0.0035
      7  CD       134.0980   10.7870  124.7210 C.3    57  LYS57       0.0206
      8  CE       134.6440   10.4440  126.0940 C.3    57  LYS57       0.1093
      9  NZ       135.3880    9.1560  126.0800 N.3    57  LYS57      -0.1314
     10  N        128.9830    7.7540  123.0730 N.3    60  GLN60      -0.1231
     11  CA       129.8450    6.7180  123.6300 C.3    60  GLN60       0.1698
     12  C        129.6240    6.5710  125.1310 C.2    60  GLN60       0.2592
     13  O        129.5480    5.4500  125.6490 O.2    60  GLN60      -0.2718
     14  CB       131.3010    7.0540  123.3240 C.3    60  GLN60       0.0381
     15  CG       132.3110    6.0560  123.8480 C.3    60  GLN60       0.0905
     16  CD       133.7360    6.5220  123.6220 C.2    60  GLN60       0.2608
     17  OE1      134.5820    6.4250  124.5120 O.2    60  GLN60      -0.2717
     18  NE2      134.0090    7.0390  122.4250 N.am   60  GLN60      -0.0878
     19  N        129.5250    7.6940  125.8470 N.am   61  GLN61      -0.1979
     20  CA       129.2710    7.6350  127.2840 C.3    61  GLN61       0.1601
     21  C        127.9420    6.9510  127.5750 C.2    61  GLN61       0.2287
     22  O        127.8150    6.2190  128.5630 O.2    61  GLN61      -0.2864
     23  CB       129.2840    9.0430  127.8800 C.3    61  GLN61       0.0394
     24  CG       130.6300    9.7500  127.8070 C.3    61  GLN61       0.0908
     25  CD       131.5470    9.3870  128.9580 C.2    61  GLN61       0.2608
     26  OE1      131.4800    8.2820  129.4990 O.2    61  GLN61      -0.2717
     27  NE2      132.4050   10.3250  129.3460 N.am   61  GLN61      -0.0878
     28  N        128.4400    3.2100  127.2380 N.3    64  LYS64      -0.1245
     29  CA       129.2120    2.7240  128.3750 C.3    64  LYS64       0.1561
     30  C        128.3650    2.6590  129.6410 C.2    64  LYS64       0.2260
     31  O        128.5610    1.7620  130.4700 O.2    64  LYS64      -0.2867
     32  CB       130.4360    3.6170  128.5920 C.3    64  LYS64       0.0271
     33  CG       131.3680    3.1300  129.6920 C.3    64  LYS64       0.0035
     34  CD       132.4600    4.1400  130.0030 C.3    64  LYS64       0.0206
     35  CE       133.1890    3.7730  131.2890 C.3    64  LYS64       0.1093
     36  NZ       134.2490    4.7550  131.6550 N.3    64  LYS64      -0.1314
     37  N        136.8510    2.3250  121.4870 N.3   142  ALA142     -0.1245
     38  CA       136.8070    2.9340  122.8130 C.3   142  ALA142      0.1562
     39  C        136.0340    2.0640  123.8000 C.2   142  ALA142      0.2260
     40  O        136.4760    1.8520  124.9350 O.2   142  ALA142     -0.2867
     41  CB       136.1760    4.3220  122.7260 C.3   142  ALA142      0.0290
     42  N        137.5200   -0.5550  127.1240 N.3   146  GLU146     -0.1245
     43  CA       137.3040   -0.0370  128.4680 C.3   146  GLU146      0.1567
     44  C        137.7980   -1.0540  129.4940 C.2   146  GLU146      0.2260
     45  O        137.4220   -2.2320  129.4180 O.2   146  GLU146     -0.2867
     46  CB       135.8240    0.2720  128.6990 C.3   146  GLU146      0.0388
     47  CG       135.3920    1.6360  128.1880 C.3   146  GLU146      0.1160
     48  CD       136.0580    2.7780  128.9350 C.2   146  GLU146      0.3649
     49  OE1      136.5380    2.5480  130.0650 O.co2 146  GLU146     -0.2457
     50  OE2      136.1030    3.9010  128.3920 O.co2 146  GLU146     -0.2457
     51  N        148.8940    7.0470  122.7610 N.3   223  LEU223     -0.1231
     52  CA       148.6790    8.1390  123.7020 C.3   223  LEU223      0.1693
     53  C        147.5550    7.8520  124.6910 C.2   223  LEU223      0.2593
     54  O        147.0850    8.7760  125.3640 O.2   223  LEU223     -0.2718
     55  CB       148.3810    9.4320  122.9340 C.3   223  LEU223      0.0284
     56  CG       149.5850   10.3170  122.5910 C.3   223  LEU223      0.0019
     57  CD1      150.7320    9.5190  122.0000 C.3   223  LEU223      0.0001
     58  CD2      149.1610   11.4130  121.6320 C.3   223  LEU223      0.0001
     59  N        147.1190    6.6010  124.7970 N.am  224  SER224     -0.1938
     60  CA       146.0340    6.2190  125.6880 C.3   224  SER224      0.2055
     61  C        146.5030    5.1400  126.6530 C.2   224  SER224      0.2643
     62  O        147.3420    4.2980  126.3170 O.2   224  SER224     -0.2714
     63  CB       144.8210    5.7070  124.8980 C.3   224  SER224      0.2130
     64  OG       143.8450    5.1510  125.7640 O.3   224  SER224     -0.2179
     65  N        145.9440    5.1700  127.8600 N.am  225  LYS225     -0.1963
     66  CA       146.2120    4.1190  128.8320 C.3   225  LYS225      0.1728
     67  C        145.4550    2.8310  128.5320 C.2   225  LYS225      0.2616
     68  O        145.7060    1.8200  129.1960 O.2   225  LYS225     -0.2715
     69  CB       145.8840    4.6040  130.2520 C.3   225  LYS225      0.0311
     70  CG       144.5580    5.3500  130.4270 C.3   225  LYS225      0.0038
     71  CD       144.5940    6.2290  131.6740 C.3   225  LYS225      0.0206
     72  CE       143.7720    7.4950  131.4900 C.3   225  LYS225      0.1093
     73  NZ       143.9060    8.4150  132.6530 N.3   225  LYS225     -0.1314
     74  N        144.5560    2.8350  127.5500 N.am  226  LYS226     -0.1977
     75  CA       143.8810    1.6150  127.1360 C.3   226  LYS226      0.1596
     76  C        144.7640    0.8220  126.1760 C.2   226  LYS226      0.2287
     77  O        145.6940    1.3520  125.5650 O.2   226  LYS226     -0.2864
     78  CB       142.5470    1.9340  126.4560 C.3   226  LYS226      0.0298
     79  CG       141.5120    2.6350  127.3310 C.3   226  LYS226      0.0038
     80  CD       140.4510    3.2920  126.4520 C.3   226  LYS226      0.0206
     81  CE       139.2170    3.7080  127.2310 C.3   226  LYS226      0.1093
     82  NZ       138.2580    4.4420  126.3540 N.3   226  LYS226     -0.1314
@<TRIPOS>BOND
     1    37    38    1
     2     1     2    1
     3    58    56    1
     4    57    56    1
     5    18    16   am
     6    56    55    1
     7    41    38    1
     8    51    52    1
     9    38    39    1
    10     2     5    1
    11     2     3    1
    12    55    52    1
    13    10    11    1
    14    14    11    1
    15    14    15    1
    16     5     6    1
    17    16    15    1
    18    16    17    2
    19    11    12    1
    20    52    53    1
    21     3     4    2
    22    39    40    2
    23    53    59   am
    24    53    54    2
    25     7     6    1
    26     7     8    1
    27    59    60    1
    28    63    60    1
    29    63    64    1
    30    12    13    2
    31    12    19   am
    32    77    76    2
    33    60    61    1
    34    19    20    1
    35     9     8    1
    36    76    75    1
    37    62    61    2
    38    82    81    1
    39    80    81    1
    40    80    79    1
    41    78    75    1
    42    78    79    1
    43    61    65   am
    44    42    43    1
    45    75    74    1
    46    28    29    1
    47    20    21    1
    48    20    23    1
    49    74    67   am
    50    21    22    2
    51    24    23    1
    52    24    25    1
    53    65    66    1
    54    47    46    1
    55    47    48    1
    56    29    32    1
    57    29    30    1
    58    50    48   ar
    59    43    46    1
    60    43    44    1
    61    67    66    1
    62    67    68    2
    63    32    33    1
    64    66    69    1
    65    48    49   ar
    66    25    27   am
    67    25    26    2
    68    45    44    2
    69    30    31    2
    70    33    34    1
    71    34    35    1
    72    69    70    1
    73    70    71    1
    74    35    36    1
    75    72    71    1
    76    72    73    1
