@<TRIPOS>MOLECULE
tmp/6b4iE00.pdb
 167 163 0 0 0
SMALL
GASTEIGER

@<TRIPOS>ATOM
      1  N         50.8800   -7.7190   21.7490 N.3    10  LYS10      -0.1245
      2  CA        51.6980   -8.5960   22.5830 C.3    10  LYS10       0.1561
      3  C         52.5260   -7.7710   23.5660 C.2    10  LYS10       0.2260
      4  O         52.6450   -8.1250   24.7400 O.2    10  LYS10      -0.2867
      5  CB        52.6250   -9.4730   21.7290 C.3    10  LYS10       0.0271
      6  CG        51.9120  -10.3350   20.6960 C.3    10  LYS10       0.0035
      7  CD        51.7120  -11.7640   21.1890 C.3    10  LYS10       0.0206
      8  CE        50.6430  -12.4930   20.3740 C.3    10  LYS10       0.1093
      9  NZ        51.0430  -13.8700   19.9700 N.3    10  LYS10      -0.1314
     10  N         50.1460   -6.3590   26.3450 N.3    13  ARG13      -0.1231
     11  CA        49.3120   -7.3020   27.0800 C.3    13  ARG13       0.1694
     12  C         50.0190   -7.7360   28.3600 C.2    13  ARG13       0.2593
     13  O         51.1540   -8.2130   28.3240 O.2    13  ARG13      -0.2718
     14  CB        48.9840   -8.5140   26.2100 C.3    13  ARG13       0.0321
     15  CG        47.8550   -9.3730   26.7260 C.3    13  ARG13       0.0489
     16  CD        47.2200  -10.1540   25.5880 C.3    13  ARG13       0.2205
     17  NE        46.4020   -9.3090   24.7210 N.pl3  13  ARG13      -0.0865
     18  CZ        45.1770   -8.8950   25.0250 C.cat  13  ARG13       0.5346
     19  NH1       44.6190   -9.2440   26.1810 N.pl3  13  ARG13       0.1354
     20  NH2       44.5040   -8.1290   24.1750 N.pl3  13  ARG13       0.1354
     21  N         49.3420   -7.5630   29.4900 N.am   14  SER14      -0.1938
     22  CA        49.9430   -7.8200   30.7950 C.3    14  SER14       0.2055
     23  C         49.3110   -9.0160   31.5080 C.2    14  SER14       0.2643
     24  O         49.8880   -9.5670   32.4480 O.2    14  SER14      -0.2714
     25  CB        49.8250   -6.5700   31.6720 C.3    14  SER14       0.2130
     26  OG        48.5070   -6.0470   31.6460 O.3    14  SER14      -0.2179
     27  N         48.1300   -9.4210   31.0540 N.am   15  ASN15      -0.1957
     28  CA        47.3980  -10.5040   31.6980 C.3    15  ASN15       0.1819
     29  C         46.2380  -10.9640   30.8230 C.2    15  ASN15       0.2621
     30  O         46.0290  -10.4390   29.7300 O.2    15  ASN15      -0.2715
     31  CB        46.8860  -10.0530   33.0640 C.3    15  ASN15       0.1195
     32  CG        46.4060   -8.6170   33.0530 C.2    15  ASN15       0.2630
     33  OD1       45.4180   -8.2850   32.3960 O.2    15  ASN15      -0.2716
     34  ND2       47.1040   -7.7540   33.7820 N.am   15  ASN15      -0.0877
     35  N         45.4730  -11.9350   31.3140 N.am   16  LEU16      -0.1977
     36  CA        44.3880  -12.5060   30.5300 C.3    16  LEU16       0.1596
     37  C         43.3290  -11.4700   30.2330 C.2    16  LEU16       0.2287
     38  O         43.2010  -10.4770   30.9480 O.2    16  LEU16      -0.2864
     39  CB        43.7250  -13.6770   31.2580 C.3    16  LEU16       0.0297
     40  CG        44.4780  -14.9790   31.5230 C.3    16  LEU16       0.0022
     41  CD1       45.1680  -15.4990   30.2660 C.3    16  LEU16       0.0001
     42  CD2       45.4610  -14.8030   32.6590 C.3    16  LEU16       0.0001
     43  N         46.7390  -26.8750   37.2310 N.3    40  PHE40      -0.1241
     44  CA        47.8940  -27.4480   36.5500 C.3    40  PHE40       0.1605
     45  C         48.3100  -28.7680   37.1830 C.2    40  PHE40       0.2264
     46  O         49.0200  -29.5700   36.5720 O.2    40  PHE40      -0.2867
     47  CB        49.0680  -26.4650   36.5830 C.3    40  PHE40       0.0534
     48  CG        48.8610  -25.2430   35.7350 C.ar   40  PHE40      -0.0203
     49  CD1       48.6390  -24.0060   36.3190 C.ar   40  PHE40      -0.0042
     50  CD2       48.8840  -25.3340   34.3530 C.ar   40  PHE40      -0.0042
     51  CE1       48.4490  -22.8830   35.5400 C.ar   40  PHE40      -0.0003
     52  CE2       48.6940  -24.2160   33.5700 C.ar   40  PHE40      -0.0003
     53  CZ        48.4750  -22.9890   34.1640 C.ar   40  PHE40      -0.0000
     54  N         56.4690  -17.7920   36.2860 N.3    56  MET56      -0.1230
     55  CA        56.1640  -16.6130   35.4800 C.3    56  MET56       0.1702
     56  C         54.7940  -16.0030   35.7990 C.2    56  MET56       0.2593
     57  O         54.3270  -15.1130   35.0880 O.2    56  MET56      -0.2718
     58  CB        56.2600  -16.9550   33.9910 C.3    56  MET56       0.0401
     59  CG        55.3420  -18.0720   33.5210 C.3    56  MET56       0.0596
     60  SD        55.8850  -18.7440   31.9360 S.3    56  MET56      -0.1393
     61  CE        55.9040  -17.2660   30.9280 C.3    56  MET56       0.0692
     62  N         54.1550  -16.4790   36.8640 N.am   57  GLY57      -0.1942
     63  CA        52.9730  -15.8210   37.3950 C.3    57  GLY57       0.2014
     64  C         51.6350  -16.4910   37.1440 C.2    57  GLY57       0.2639
     65  O         50.5880  -15.9150   37.4400 O.2    57  GLY57      -0.2714
     66  N         51.6560  -17.7050   36.6090 N.am   58  PHE58      -0.1959
     67  CA        50.4170  -18.4240   36.3240 C.3    58  PHE58       0.1771
     68  C         49.9210  -19.1740   37.5590 C.2    58  PHE58       0.2620
     69  O         50.6760  -19.9060   38.1930 O.2    58  PHE58      -0.2715
     70  CB        50.6200  -19.3980   35.1600 C.3    58  PHE58       0.0574
     71  CG        51.1030  -18.7460   33.8900 C.ar   58  PHE58      -0.0200
     72  CD1       51.0130  -17.3760   33.7140 C.ar   58  PHE58      -0.0042
     73  CD2       51.6390  -19.5110   32.8680 C.ar   58  PHE58      -0.0042
     74  CE1       51.4500  -16.7830   32.5490 C.ar   58  PHE58      -0.0003
     75  CE2       52.0790  -18.9230   31.6970 C.ar   58  PHE58      -0.0003
     76  CZ        51.9830  -17.5570   31.5380 C.ar   58  PHE58      -0.0000
     77  N         48.6460  -18.9920   37.8910 N.am   59  ASN59      -0.1958
     78  CA        48.0640  -19.6390   39.0640 C.3    59  ASN59       0.1819
     79  C         47.3170  -20.9120   38.6790 C.2    59  ASN59       0.2621
     80  O         47.5350  -21.9730   39.2640 O.2    59  ASN59      -0.2715
     81  CB        47.1150  -18.6770   39.7890 C.3    59  ASN59       0.1195
     82  CG        47.8410  -17.5090   40.4300 C.2    59  ASN59       0.2630
     83  OD1       47.5620  -16.3500   40.1240 O.2    59  ASN59      -0.2716
     84  ND2       48.7740  -17.8090   41.3270 N.am   59  ASN59      -0.0877
     85  N         46.4450  -20.8000   37.6810 N.am   60  ARG60      -0.1964
     86  CA        45.6500  -21.9290   37.2190 C.3    60  ARG60       0.1714
     87  C         45.4020  -21.7720   35.7250 C.2    60  ARG60       0.2458
     88  O         45.5360  -20.6700   35.1940 O.2    60  ARG60      -0.2730
     89  CB        44.3190  -22.0080   37.9650 C.3    60  ARG60       0.0347
     90  CG        43.4120  -20.8200   37.7000 C.3    60  ARG60       0.0492
     91  CD        42.3080  -20.7060   38.7350 C.3    60  ARG60       0.2205
     92  NE        41.6330  -19.4140   38.6620 N.pl3  60  ARG60      -0.0865
     93  CZ        42.1140  -18.2880   39.1780 C.cat  60  ARG60       0.5346
     94  NH1       43.2850  -18.2840   39.8050 N.pl3  60  ARG60       0.1354
     95  NH2       41.4280  -17.1590   39.0610 N.pl3  60  ARG60       0.1354
     96  N         45.0240  -22.8650   35.0430 N.am   61  PRO61      -0.2716
     97  CA        44.8300  -22.7820   33.5900 C.3    61  PRO61       0.1536
     98  C         43.7510  -21.7810   33.1930 C.2    61  PRO61       0.2599
     99  O         42.7450  -21.6410   33.8900 O.2    61  PRO61      -0.2715
    100  CB        44.4090  -24.2080   33.2050 C.3    61  PRO61       0.0310
    101  CG        44.8880  -25.0710   34.3200 C.3    61  PRO61       0.0237
    102  CD        44.7940  -24.2280   35.5520 C.3    61  PRO61       0.0939
    103  N         43.9700  -21.0920   32.0780 N.am   62  SER62      -0.1950
    104  CA        42.9860  -20.1620   31.5470 C.3    62  SER62       0.1924
    105  C         41.8180  -20.9320   30.9450 C.2    62  SER62       0.2314
    106  O         41.8910  -22.1480   30.7730 O.2    62  SER62      -0.2863
    107  CB        43.6230  -19.2470   30.5020 C.3    62  SER62       0.2116
    108  OG        44.1030  -19.9970   29.3990 O.3    62  SER62      -0.2180
    109  N         42.6190  -22.9480   28.1890 N.3    65  GLN65      -0.1245
    110  CA        43.5930  -23.9420   28.6120 C.3    65  GLN65       0.1566
    111  C         42.9600  -25.0750   29.4190 C.2    65  GLN65       0.2260
    112  O         43.4850  -26.1870   29.4500 O.2    65  GLN65      -0.2867
    113  CB        44.7050  -23.2700   29.4180 C.3    65  GLN65       0.0367
    114  CG        45.6360  -22.4320   28.5590 C.3    65  GLN65       0.0905
    115  CD        46.6140  -21.6150   29.3750 C.2    65  GLN65       0.2608
    116  OE1       46.4910  -21.5100   30.5960 O.2    65  GLN65      -0.2717
    117  NE2       47.6080  -21.0440   28.7010 N.am   65  GLN65      -0.0878
    118  N         42.6730  -12.8940   20.7850 N.3    86  SER86      -0.1202
    119  CA        44.0190  -12.6380   21.2810 C.3    86  SER86       0.2020
    120  C         43.9850  -12.2740   22.7630 C.2    86  SER86       0.2619
    121  O         43.2820  -11.3450   23.1670 O.2    86  SER86      -0.2717
    122  CB        44.6830  -11.5180   20.4770 C.3    86  SER86       0.2103
    123  OG        45.8410  -11.0360   21.1380 O.3    86  SER86      -0.2182
    124  N         44.7520  -13.0090   23.5640 N.am   87  GLY87      -0.1942
    125  CA        44.8620  -12.7350   24.9860 C.3    87  GLY87       0.2014
    126  C         44.2080  -13.7530   25.9020 C.2    87  GLY87       0.2640
    127  O         44.0900  -13.5230   27.1070 O.2    87  GLY87      -0.2714
    128  N         43.7820  -14.8780   25.3390 N.am   88  THR88      -0.1936
    129  CA        43.1010  -15.9040   26.1240 C.3    88  THR88       0.2028
    130  C         44.0690  -16.9610   26.6500 C.2    88  THR88       0.2643
    131  O         43.7030  -17.7650   27.5050 O.2    88  THR88      -0.2714
    132  CB        42.0070  -16.6050   25.3020 C.3    88  THR88       0.1808
    133  OG1       42.5750  -17.1420   24.1010 O.3    88  THR88      -0.2208
    134  CG2       40.9010  -15.6230   24.9500 C.3    88  THR88       0.0379
    135  N         45.3030  -16.9500   26.1460 N.am   89  GLY89      -0.1939
    136  CA        46.3100  -17.9050   26.5800 C.3    89  GLY89       0.2014
    137  C         46.7080  -18.9550   25.5560 C.2    89  GLY89       0.2639
    138  O         47.2000  -20.0250   25.9200 O.2    89  GLY89      -0.2714
    139  N         46.5120  -18.6590   24.2750 N.am   90  LYS90      -0.1963
    140  CA        46.8490  -19.6170   23.2280 C.3    90  LYS90       0.1728
    141  C         48.3520  -19.9040   23.1930 C.2    90  LYS90       0.2617
    142  O         48.7700  -21.0620   23.2000 O.2    90  LYS90      -0.2715
    143  CB        46.3880  -19.1060   21.8570 C.3    90  LYS90       0.0311
    144  CG        44.8870  -18.8650   21.7390 C.3    90  LYS90       0.0038
    145  CD        44.4670  -18.6270   20.2870 C.3    90  LYS90       0.0206
    146  CE        45.0840  -17.3620   19.6980 C.3    90  LYS90       0.1093
    147  NZ        44.6740  -16.1350   20.4390 N.3    90  LYS90      -0.1314
    148  N         49.1610  -18.8490   23.1720 N.am   91  THR91      -0.1937
    149  CA        50.6090  -19.0060   23.0660 C.3    91  THR91       0.2028
    150  C         51.1770  -19.7330   24.2800 C.2    91  THR91       0.2642
    151  O         51.9550  -20.6760   24.1360 O.2    91  THR91      -0.2714
    152  CB        51.3260  -17.6370   22.9080 C.3    91  THR91       0.1808
    153  OG1       50.7990  -16.9450   21.7690 O.3    91  THR91      -0.2208
    154  CG2       52.8300  -17.8270   22.7230 C.3    91  THR91       0.0379
    155  N         50.7740  -19.3110   25.4730 N.am   92  ALA92      -0.1977
    156  CA        51.2530  -19.9370   26.7000 C.3    92  ALA92       0.1597
    157  C         50.8590  -21.4080   26.7410 C.2    92  ALA92       0.2287
    158  O         51.4920  -22.2090   27.4290 O.2    92  ALA92      -0.2864
    159  CB        50.7130  -19.2080   27.9180 C.3    92  ALA92       0.0319
    160  N         51.3210  -20.6800   14.5530 N.3   188  ASP188     -0.1239
    161  CA        50.7430  -19.6890   15.4490 C.3   188  ASP188      0.1674
    162  C         50.1610  -18.5070   14.6800 C.2   188  ASP188      0.2266
    163  O         50.7940  -17.9650   13.7720 O.2   188  ASP188     -0.2867
    164  CB        51.8000  -19.2020   16.4460 C.3   188  ASP188      0.1410
    165  CG        51.2040  -18.3960   17.5870 C.2   188  ASP188      0.3668
    166  OD1       49.9930  -18.5430   17.8550 O.co2 188  ASP188     -0.2456
    167  OD2       51.9520  -17.6220   18.2210 O.co2 188  ASP188     -0.2456
@<TRIPOS>BOND
     1   163   162    2
     2   160   161    1
     3   162   161    1
     4   161   164    1
     5   164   165    1
     6   165   166   ar
     7   165   167   ar
     8   146   145    1
     9   146   147    1
    10     9     8    1
    11   145   144    1
    12     8     7    1
    13   122   123    1
    14   122   119    1
    15     6     7    1
    16     6     5    1
    17   118   119    1
    18   119   120    1
    19     5     2    1
    20   144   143    1
    21     1     2    1
    22   153   152    1
    23   143   140    1
    24     2     3    1
    25   154   152    1
    26   120   121    2
    27   120   124   am
    28   152   149    1
    29   149   148    1
    30   149   150    1
    31   148   141   am
    32   141   142    2
    33   141   140    1
    34   140   139    1
    35   124   125    1
    36     3     4    2
    37   133   132    1
    38   151   150    2
    39    20    18    1
    40   139   137   am
    41   150   155   am
    42    17    18    2
    43    17    16    1
    44   134   132    1
    45   125   126    1
    46    18    19    1
    47   132   129    1
    48   128   126   am
    49   128   129    1
    50   155   156    1
    51   137   138    2
    52   137   136    1
    53    16    15    1
    54   126   127    2
    55   129   130    1
    56   135   136    1
    57   135   130   am
    58    14    15    1
    59    14    11    1
    60    10    11    1
    61   130   131    2
    62   156   157    1
    63   156   159    1
    64   157   158    2
    65    11    12    1
    66   109   110    1
    67    13    12    2
    68    12    21   am
    69   114   115    1
    70   114   113    1
    71   110   113    1
    72   110   111    1
    73   117   115   am
    74   115   116    2
    75   108   107    1
    76   111   112    2
    77    21    22    1
    78    30    29    2
    79    37    36    1
    80    37    38    2
    81    41    40    1
    82   107   104    1
    83    36    39    1
    84    36    35    1
    85   106   105    2
    86    22    23    1
    87    22    25    1
    88    29    35   am
    89    29    28    1
    90    61    60    1
    91   105   104    1
    92    27    23   am
    93    27    28    1
    94    39    40    1
    95    23    24    2
    96    40    42    1
    97    76    75   ar
    98    76    74   ar
    99   104   103    1
   100    26    25    1
   101    75    73   ar
   102    28    31    1
   103    60    59    1
   104   103    98   am
   105    33    32    2
   106    74    72   ar
   107    73    71   ar
   108    32    31    1
   109    32    34   am
   110    98    97    1
   111    98    99    2
   112   100    97    1
   113   100   101    1
   114    59    58    1
   115    52    53   ar
   116    52    50   ar
   117    97    96    1
   118    72    71   ar
   119    71    70    1
   120    58    55    1
   121    53    51   ar
   122   101   102    1
   123    50    48   ar
   124    96   102    1
   125    96    87   am
   126    57    56    2
   127    70    67    1
   128    88    87    2
   129    55    56    1
   130    55    54    1
   131    51    49   ar
   132    87    86    1
   133    48    49   ar
   134    48    47    1
   135    56    62   am
   136    67    66    1
   137    67    68    1
   138    44    47    1
   139    44    45    1
   140    44    43    1
   141    46    45    2
   142    66    64   am
   143    62    63    1
   144    64    63    1
   145    64    65    2
   146    86    85    1
   147    86    89    1
   148    68    77   am
   149    68    69    2
   150    85    79   am
   151    90    89    1
   152    90    91    1
   153    77    78    1
   154    92    91    1
   155    92    93    2
   156    79    78    1
   157    79    80    2
   158    95    93    1
   159    78    81    1
   160    93    94    1
   161    81    82    1
   162    83    82    2
   163    82    84   am
