@<TRIPOS>MOLECULE
tmp/6b4jF00.pdb
 202 195 0 0 0
SMALL
GASTEIGER

@<TRIPOS>ATOM
      1  N         80.3400   -5.4400   16.2130 N.3     7  SER7       -0.1217
      2  CA        80.0220   -4.1700   16.8440 C.3     7  SER7        0.1889
      3  C         78.7500   -4.3220   17.6700 C.2     7  SER7        0.2288
      4  O         78.6700   -3.8140   18.7850 O.2     7  SER7       -0.2866
      5  CB        79.8490   -3.0610   15.8060 C.3     7  SER7        0.2089
      6  OG        79.5180   -1.8360   16.4350 O.3     7  SER7       -0.2183
      7  N         79.4070   -6.2990   20.7910 N.3    10  ASN10      -0.1225
      8  CA        80.2450   -5.4590   21.6380 C.3    10  ASN10       0.1785
      9  C         79.4210   -4.3980   22.3640 C.2    10  ASN10       0.2597
     10  O         79.7980   -3.9460   23.4420 O.2    10  ASN10      -0.2718
     11  CB        81.3420   -4.7830   20.8090 C.3    10  ASN10       0.1169
     12  CG        82.6200   -5.5980   20.7560 C.2    10  ASN10       0.2627
     13  OD1       83.1100   -6.0700   21.7820 O.2    10  ASN10      -0.2716
     14  ND2       83.1670   -5.7650   19.5580 N.am   10  ASN10      -0.0877
     15  N         78.2990   -4.0000   21.7720 N.am   11  LYS11      -0.1980
     16  CA        77.4190   -3.0170   22.3940 C.3    11  LYS11       0.1596
     17  C         76.6170   -3.6420   23.5330 C.2    11  LYS11       0.2287
     18  O         76.4660   -3.0470   24.6020 O.2    11  LYS11      -0.2864
     19  CB        76.4670   -2.4130   21.3570 C.3    11  LYS11       0.0298
     20  CG        77.1760   -1.7310   20.1960 C.3    11  LYS11       0.0038
     21  CD        77.2840   -0.2280   20.3750 C.3    11  LYS11       0.0206
     22  CE        78.4220    0.3270   19.5310 C.3    11  LYS11       0.1093
     23  NZ        78.0910    1.6140   18.8620 N.3    11  LYS11      -0.1314
     24  N         79.0940   -4.5970   26.6220 N.3    14  ARG14      -0.1231
     25  CA        79.9490   -3.5830   27.2290 C.3    14  ARG14       0.1694
     26  C         79.2330   -2.8990   28.3910 C.2    14  ARG14       0.2593
     27  O         78.1470   -2.3390   28.2300 O.2    14  ARG14      -0.2718
     28  CB        80.4000   -2.5540   26.1910 C.3    14  ARG14       0.0321
     29  CG        81.5280   -1.6660   26.6810 C.3    14  ARG14       0.0489
     30  CD        82.3530   -1.1120   25.5320 C.3    14  ARG14       0.2205
     31  NE        83.1440   -2.1600   24.8920 N.pl3  14  ARG14      -0.0865
     32  CZ        84.2720   -2.6600   25.3900 C.cat  14  ARG14       0.5346
     33  NH1       84.7480   -2.2190   26.5470 N.pl3  14  ARG14       0.1354
     34  NH2       84.9210   -3.6130   24.7340 N.pl3  14  ARG14       0.1354
     35  N         79.8630   -2.9480   29.5610 N.am   15  SER15      -0.1938
     36  CA        79.2610   -2.4560   30.7960 C.3    15  SER15       0.2055
     37  C         79.8940   -1.1480   31.2560 C.2    15  SER15       0.2643
     38  O         79.3120   -0.4140   32.0560 O.2    15  SER15      -0.2714
     39  CB        79.3970   -3.5090   31.8960 C.3    15  SER15       0.2130
     40  OG        80.7210   -4.0110   31.9500 O.3    15  SER15      -0.2179
     41  N         81.0850   -0.8570   30.7440 N.am   16  ASN16      -0.1957
     42  CA        81.8070    0.3490   31.1270 C.3    16  ASN16       0.1819
     43  C         82.8920    0.6620   30.1020 C.2    16  ASN16       0.2621
     44  O         83.0260   -0.0330   29.0950 O.2    16  ASN16      -0.2715
     45  CB        82.4220    0.1840   32.5210 C.3    16  ASN16       0.1195
     46  CG        83.0160   -1.1960   32.7340 C.2    16  ASN16       0.2630
     47  OD1       84.0170   -1.5570   32.1150 O.2    16  ASN16      -0.2716
     48  ND2       82.4000   -1.9750   33.6160 N.am   16  ASN16      -0.0877
     49  N         83.6610    1.7150   30.3590 N.am   17  LEU17      -0.1977
     50  CA        84.7260    2.1160   29.4510 C.3    17  LEU17       0.1596
     51  C         85.7840    1.0270   29.3670 C.2    17  LEU17       0.2287
     52  O         85.9270    0.2210   30.2870 O.2    17  LEU17      -0.2864
     53  CB        85.3740    3.4200   29.9200 C.3    17  LEU17       0.0297
     54  CG        84.5100    4.6810   29.9620 C.3    17  LEU17       0.0022
     55  CD1       85.3260    5.8440   30.5030 C.3    17  LEU17       0.0001
     56  CD2       83.9570    5.0050   28.5860 C.3    17  LEU17       0.0001
     57  N         82.7260   17.6520   33.8390 N.3    41  PHE41      -0.1241
     58  CA        81.5400   18.1110   33.1190 C.3    41  PHE41       0.1605
     59  C         81.1180   19.5240   33.5110 C.2    41  PHE41       0.2264
     60  O         80.4220   20.2020   32.7540 O.2    41  PHE41      -0.2867
     61  CB        80.3740   17.1470   33.3480 C.3    41  PHE41       0.0534
     62  CG        80.5480   15.8130   32.6800 C.ar   41  PHE41      -0.0203
     63  CD1       80.8390   14.6810   33.4210 C.ar   41  PHE41      -0.0042
     64  CD2       80.4230   15.6950   31.3050 C.ar   41  PHE41      -0.0042
     65  CE1       80.9980   13.4540   32.8040 C.ar   41  PHE41      -0.0003
     66  CE2       80.5820   14.4730   30.6830 C.ar   41  PHE41      -0.0003
     67  CZ        80.8700   13.3510   31.4330 C.ar   41  PHE41      -0.0000
     68  N         73.0870    8.6820   34.3860 N.3    57  MET57      -0.1230
     69  CA        73.4030    7.3700   33.8250 C.3    57  MET57       0.1702
     70  C         74.7840    6.8570   34.2480 C.2    57  MET57       0.2593
     71  O         75.2880    5.8860   33.6840 O.2    57  MET57      -0.2718
     72  CB        73.3080    7.4160   32.2960 C.3    57  MET57       0.0401
     73  CG        74.2210    8.4320   31.6240 C.3    57  MET57       0.0596
     74  SD        73.6920    8.8200   29.9460 S.3    57  MET57      -0.1393
     75  CE        73.7340    7.1980   29.1890 C.3    57  MET57       0.0692
     76  N         75.3900    7.5080   35.2370 N.am   58  GLY58      -0.1942
     77  CA        76.5630    6.9600   35.8970 C.3    58  GLY58       0.2014
     78  C         77.9090    7.5570   35.5250 C.2    58  GLY58       0.2639
     79  O         78.9490    7.0210   35.9100 O.2    58  GLY58      -0.2714
     80  N         77.9050    8.6570   34.7800 N.am   59  PHE59      -0.1959
     81  CA        79.1560    9.3000   34.3770 C.3    59  PHE59       0.1771
     82  C         79.5980   10.3180   35.4260 C.2    59  PHE59       0.2620
     83  O         78.8460   11.2270   35.7770 O.2    59  PHE59      -0.2715
     84  CB        79.0070    9.9880   33.0180 C.3    59  PHE59       0.0574
     85  CG        78.5040    9.0840   31.9230 C.ar   59  PHE59      -0.0200
     86  CD1       78.5520    7.7040   32.0510 C.ar   59  PHE59      -0.0042
     87  CD2       77.9820    9.6220   30.7590 C.ar   59  PHE59      -0.0042
     88  CE1       78.0830    6.8840   31.0440 C.ar   59  PHE59      -0.0003
     89  CE2       77.5160    8.8050   29.7470 C.ar   59  PHE59      -0.0003
     90  CZ        77.5680    7.4350   29.8890 C.ar   59  PHE59      -0.0000
     91  N         80.8240   10.1630   35.9170 N.am   60  ASN60      -0.1958
     92  CA        81.3720   11.0760   36.9160 C.3    60  ASN60       0.1819
     93  C         82.1410   12.2080   36.2470 C.2    60  ASN60       0.2621
     94  O         81.9410   13.3830   36.5590 O.2    60  ASN60      -0.2715
     95  CB        82.2840   10.3230   37.8860 C.3    60  ASN60       0.1195
     96  CG        81.5320    9.3110   38.7270 C.2    60  ASN60       0.2630
     97  OD1       81.8020    8.1120   38.6630 O.2    60  ASN60      -0.2716
     98  ND2       80.5790    9.7900   39.5180 N.am   60  ASN60      -0.0877
     99  N         83.0230   11.8410   35.3250 N.am   61  ARG61      -0.1964
    100  CA        83.8350   12.8050   34.5990 C.3    61  ARG61       0.1714
    101  C         84.0850   12.2910   33.1830 C.2    61  ARG61       0.2458
    102  O         83.9660   11.0920   32.9310 O.2    61  ARG61      -0.2730
    103  CB        85.1520   13.0510   35.3360 C.3    61  ARG61       0.0347
    104  CG        86.0090   11.8040   35.4810 C.3    61  ARG61       0.0492
    105  CD        87.0520   11.9600   36.5770 C.3    61  ARG61       0.2205
    106  NE        87.6830   10.6840   36.9060 N.pl3  61  ARG61      -0.0865
    107  CZ        87.1220    9.7440   37.6630 C.cat  61  ARG61       0.5346
    108  NH1       85.9100    9.9270   38.1730 N.pl3  61  ARG61       0.1354
    109  NH2       87.7720    8.6150   37.9080 N.pl3  61  ARG61       0.1354
    110  N         84.4320   13.1920   32.2500 N.am   62  PRO62      -0.2716
    111  CA        84.6070   12.7590   30.8590 C.3    62  PRO62       0.1536
    112  C         85.6890   11.6980   30.6980 C.2    62  PRO62       0.2599
    113  O         86.6630   11.6870   31.4520 O.2    62  PRO62      -0.2715
    114  CB        85.0070   14.0500   30.1320 C.3    62  PRO62       0.0310
    115  CG        84.5500   15.1570   31.0150 C.3    62  PRO62       0.0237
    116  CD        84.6690   14.6370   32.4110 C.3    62  PRO62       0.0939
    117  N         85.5110   10.8150   29.7200 N.am   63  SER63      -0.1950
    118  CA        86.5110    9.8020   29.4150 C.3    63  SER63       0.1924
    119  C         87.6930   10.4520   28.7050 C.2    63  SER63       0.2314
    120  O         87.6340   11.6250   28.3380 O.2    63  SER63      -0.2863
    121  CB        85.9120    8.6880   28.5550 C.3    63  SER63       0.2116
    122  OG        85.4830    9.1860   27.3010 O.3    63  SER63      -0.2180
    123  N         86.9490   11.9180   25.5320 N.3    66  GLN66      -0.1245
    124  CA        85.9620   12.9770   25.7090 C.3    66  GLN66       0.1566
    125  C         86.5790   14.2420   26.2970 C.2    66  GLN66       0.2260
    126  O         86.0530   15.3400   26.1090 O.2    66  GLN66      -0.2867
    127  CB        84.8220   12.4880   26.6040 C.3    66  GLN66       0.0367
    128  CG        83.9250   11.4540   25.9410 C.3    66  GLN66       0.0905
    129  CD        82.9330   10.8350   26.9030 C.2    66  GLN66       0.2608
    130  OE1       83.0720   10.9540   28.1210 O.2    66  GLN66      -0.2717
    131  NE2       81.9200   10.1690   26.3600 N.am   66  GLN66      -0.0878
    132  N         86.7680    0.6320   20.0530 N.3    87  SER87      -0.1202
    133  CA        85.4140    0.4250   20.5440 C.3    87  SER87       0.2020
    134  C         85.3930    0.3180   22.0670 C.2    87  SER87       0.2619
    135  O         86.0390   -0.5500   22.6570 O.2    87  SER87      -0.2717
    136  CB        84.8080   -0.8350   19.9200 C.3    87  SER87       0.2103
    137  OG        83.5790   -1.1700   20.5400 O.3    87  SER87      -0.2182
    138  N         84.6390    1.2170   22.6870 N.am   88  GLY88      -0.1942
    139  CA        84.4270    1.2110   24.1230 C.3    88  GLY88       0.2014
    140  C         85.0440    2.3920   24.8490 C.2    88  GLY88       0.2640
    141  O         85.0770    2.4200   26.0800 O.2    88  GLY88      -0.2714
    142  N         85.5360    3.3690   24.0950 N.am   89  THR89      -0.1936
    143  CA        86.2190    4.5130   24.6910 C.3    89  THR89       0.2028
    144  C         85.2880    5.6840   25.0080 C.2    89  THR89       0.2643
    145  O         85.6780    6.6100   25.7180 O.2    89  THR89      -0.2714
    146  CB        87.3420    5.0220   23.7720 C.3    89  THR89       0.1808
    147  OG1       86.8010    5.3720   22.4920 O.3    89  THR89      -0.2208
    148  CG2       88.4110    3.9520   23.6000 C.3    89  THR89       0.0379
    149  N         84.0640    5.6430   24.4920 N.am   90  GLY90      -0.1939
    150  CA        83.0880    6.6820   24.7800 C.3    90  GLY90       0.2014
    151  C         82.7270    7.5610   23.5970 C.2    90  GLY90       0.2639
    152  O         82.2730    8.6940   23.7710 O.2    90  GLY90      -0.2714
    153  N         82.9250    7.0440   22.3890 N.am   91  LYS91      -0.1963
    154  CA        82.6410    7.8100   21.1810 C.3    91  LYS91       0.1728
    155  C         81.1560    8.1310   21.0630 C.2    91  LYS91       0.2617
    156  O         80.7810    9.2790   20.8220 O.2    91  LYS91      -0.2715
    157  CB        83.0980    7.0510   19.9330 C.3    91  LYS91       0.0311
    158  CG        84.5960    6.7920   19.8600 C.3    91  LYS91       0.0038
    159  CD        84.9990    6.2590   18.4890 C.3    91  LYS91       0.0206
    160  CE        84.3870    4.8960   18.1900 C.3    91  LYS91       0.1093
    161  NZ        84.8050    3.8610   19.1780 N.3    91  LYS91      -0.1314
    162  N         80.3130    7.1180   21.2400 N.am   92  THR92      -0.1937
    163  CA        78.8790    7.2960   21.0630 C.3    92  THR92       0.2028
    164  C         78.3200    8.2450   22.1170 C.2    92  THR92       0.2642
    165  O         77.5010    9.1130   21.8110 O.2    92  THR92      -0.2714
    166  CB        78.1250    5.9520   21.1260 C.3    92  THR92       0.1808
    167  OG1       78.6680    5.0530   20.1520 O.3    92  THR92      -0.2208
    168  CG2       76.6390    6.1520   20.8450 C.3    92  THR92       0.0379
    169  N         78.7630    8.0780   23.3570 N.am   93  ALA93      -0.1977
    170  CA        78.3520    8.9680   24.4340 C.3    93  ALA93       0.1597
    171  C         78.7800   10.4040   24.1520 C.2    93  ALA93       0.2287
    172  O         78.1800   11.3490   24.6640 O.2    93  ALA93      -0.2864
    173  CB        78.9300    8.4990   25.7590 C.3    93  ALA93       0.0319
    174  N         70.9380    5.3750   23.9260 N.3   128  VAL128     -0.1245
    175  CA        71.8020    6.2940   24.6590 C.3   128  VAL128      0.1561
    176  C         71.1950    7.6910   24.6330 C.2   128  VAL128      0.2260
    177  O         71.3420    8.4600   25.5850 O.2   128  VAL128     -0.2867
    178  CB        73.2360    6.3120   24.0880 C.3   128  VAL128      0.0252
    179  CG1       74.1300    7.2330   24.9140 C.3   128  VAL128      0.0019
    180  CG2       73.8160    4.9070   24.0520 C.3   128  VAL128      0.0019
    181  N         78.1830    7.4090   12.6160 N.3   189  ASP189     -0.1225
    182  CA        78.6930    6.5660   13.6870 C.3   189  ASP189      0.1805
    183  C         79.2490    5.2600   13.1330 C.2   189  ASP189      0.2597
    184  O         78.6180    4.6020   12.3040 O.2   189  ASP189     -0.2718
    185  CB        77.5850    6.2840   14.7080 C.3   189  ASP189      0.1424
    186  CG        78.1170    5.7140   16.0110 C.2   189  ASP189      0.3668
    187  OD1       79.2610    6.0450   16.3860 O.co2 189  ASP189     -0.2456
    188  OD2       77.3850    4.9410   16.6640 O.co2 189  ASP189     -0.2456
    189  N         80.4430    4.9000   13.5960 N.am  190  GLU190     -0.1979
    190  CA        81.0850    3.6530   13.1990 C.3   190  GLU190      0.1602
    191  C         81.3190    3.6210   11.6950 C.2   190  GLU190      0.2287
    192  O         80.6820    2.8520   10.9740 O.2   190  GLU190     -0.2864
    193  CB        80.2340    2.4560   13.6250 C.3   190  GLU190      0.0415
    194  CG        79.9120    2.4350   15.1090 C.3   190  GLU190      0.1163
    195  CD        79.1470    1.1970   15.5220 C.2   190  GLU190      0.3649
    196  OE1       79.2970    0.1510   14.8540 O.co2 190  GLU190     -0.2457
    197  OE2       78.3950    1.2680   16.5170 O.co2 190  GLU190     -0.2457
    198  N         86.1330    3.2300   14.8230 N.3   222  ALA222     -0.1245
    199  CA        86.9270    2.4770   15.7830 C.3   222  ALA222      0.1562
    200  C         88.3320    2.2100   15.2530 C.2   222  ALA222      0.2260
    201  O         89.2950    2.1910   16.0170 O.2   222  ALA222     -0.2867
    202  CB        86.2340    1.1700   16.1250 C.3   222  ALA222      0.0290
@<TRIPOS>BOND
     1   192   191    2
     2   191   190    1
     3   184   183    2
     4   181   182    1
     5   183   189   am
     6   183   182    1
     7   190   189    1
     8   190   193    1
     9   193   194    1
    10   182   185    1
    11   185   186    1
    12   198   199    1
    13   196   195   ar
    14   194   195    1
    15   200   199    1
    16   200   201    2
    17   195   197   ar
    18   199   202    1
    19     5     6    1
    20     5     2    1
    21   186   187   ar
    22   186   188   ar
    23     1     2    1
    24     2     3    1
    25     3     4    2
    26   160   159    1
    27   160   161    1
    28   159   158    1
    29    23    22    1
    30    22    21    1
    31    14    12   am
    32   158   157    1
    33   136   137    1
    34   136   133    1
    35   157   154    1
    36   132   133    1
    37   167   166    1
    38    20    21    1
    39    20    19    1
    40   133   134    1
    41    12    11    1
    42    12    13    2
    43     7     8    1
    44    11     8    1
    45   156   155    2
    46   168   166    1
    47   155   154    1
    48   155   162   am
    49   163   166    1
    50   163   162    1
    51   163   164    1
    52   154   153    1
    53    19    16    1
    54     8     9    1
    55    15     9   am
    56    15    16    1
    57   165   164    2
    58   134   135    2
    59   134   138   am
    60   164   169   am
    61     9    10    2
    62   153   151   am
    63    16    17    1
    64   147   146    1
    65   138   139    1
    66   169   170    1
    67    17    18    2
    68   151   152    2
    69   151   150    1
    70   148   146    1
    71   146   143    1
    72   174   175    1
    73   180   178    1
    74   178   175    1
    75   178   179    1
    76   142   143    1
    77   142   140   am
    78   139   140    1
    79   171   170    1
    80   171   172    2
    81   170   173    1
    82   149   150    1
    83   149   144   am
    84   176   175    1
    85   176   177    2
    86   143   144    1
    87    34    32    1
    88   140   141    2
    89    31    32    2
    90    31    30    1
    91   144   145    2
    92    32    33    1
    93   123   124    1
    94    30    29    1
    95   124   125    1
    96   124   127    1
    97   128   127    1
    98   128   129    1
    99   126   125    2
   100    28    29    1
   101    28    25    1
   102   131   129   am
   103    24    25    1
   104   129   130    2
   105    25    26    1
   106   122   121    1
   107    27    26    2
   108   120   119    2
   109    26    35   am
   110   121   118    1
   111    56    54    1
   112   119   118    1
   113    44    43    2
   114    75    74    1
   115    51    50    1
   116    51    52    2
   117   118   117    1
   118    50    53    1
   119    50    49    1
   120    35    36    1
   121   117   112   am
   122    89    90   ar
   123    89    87   ar
   124    90    88   ar
   125    53    54    1
   126    74    73    1
   127    54    55    1
   128    43    49   am
   129    43    42    1
   130   114   111    1
   131   114   115    1
   132    66    64   ar
   133    66    67   ar
   134   112   111    1
   135   112   113    2
   136    41    42    1
   137    41    37   am
   138    87    85   ar
   139    36    37    1
   140    36    39    1
   141   111   110    1
   142   115   116    1
   143    88    86   ar
   144    42    45    1
   145    37    38    2
   146    64    62   ar
   147    67    65   ar
   148    73    72    1
   149    39    40    1
   150    85    86   ar
   151    85    84    1
   152    47    46    2
   153   110   116    1
   154   110   101   am
   155    72    69    1
   156    45    46    1
   157    62    61    1
   158    62    63   ar
   159    46    48   am
   160    60    59    2
   161    65    63   ar
   162   102   101    2
   163    84    81    1
   164    58    61    1
   165    58    59    1
   166    58    57    1
   167   101   100    1
   168    71    70    2
   169    69    70    1
   170    69    68    1
   171    70    76   am
   172    81    80    1
   173    81    82    1
   174   100    99    1
   175   100   103    1
   176    80    78   am
   177    76    77    1
   178    99    93   am
   179   103   104    1
   180    82    83    2
   181    82    91   am
   182   104   105    1
   183    78    77    1
   184    78    79    2
   185    91    92    1
   186    93    94    2
   187    93    92    1
   188   105   106    1
   189   106   107    2
   190    92    95    1
   191   107   109    1
   192   107   108    1
   193    95    96    1
   194    97    96    2
   195    96    98   am
