@<TRIPOS>MOLECULE
tmp/6b4lB00.pdb
 137 128 0 0 0
SMALL
GASTEIGER

@<TRIPOS>ATOM
      1  N         38.2570   -2.7690    4.1020 N.3    57  ALA57      -0.1231
      2  CA        38.6430   -2.9340    2.6960 C.3    57  ALA57       0.1694
      3  C         37.7720   -3.9760    1.9820 C.2    57  ALA57       0.2592
      4  O         37.3080   -3.7210    0.8740 O.2    57  ALA57      -0.2718
      5  CB        40.1090   -3.3100    2.5950 C.3    57  ALA57       0.0304
      6  N         37.5070   -5.1220    2.6490 N.am   58  PHE58      -0.1976
      7  CA        36.6800   -6.2050    2.0970 C.3    58  PHE58       0.1639
      8  C         35.2360   -5.7160    1.9120 C.2    58  PHE58       0.2290
      9  O         34.6630   -5.9160    0.8400 O.2    58  PHE58      -0.2864
     10  CB        36.8000   -7.5050    2.9400 C.3    58  PHE58       0.0560
     11  CG        38.0630   -8.3350    2.7610 C.ar   58  PHE58      -0.0200
     12  CD1       39.1110   -7.8900    1.9470 C.ar   58  PHE58      -0.0042
     13  CD2       38.1950   -9.5730    3.3810 C.ar   58  PHE58      -0.0042
     14  CE1       40.2650   -8.6680    1.7610 C.ar   58  PHE58      -0.0003
     15  CE2       39.3530  -10.3480    3.2020 C.ar   58  PHE58      -0.0003
     16  CZ        40.3830   -9.8850    2.3980 C.ar   58  PHE58      -0.0000
     17  N         35.2970   -3.3610   -1.1810 N.3    61  MET61      -0.1245
     18  CA        35.3600   -4.1560   -2.4070 C.3    61  MET61       0.1570
     19  C         34.0470   -4.9220   -2.6970 C.2    61  MET61       0.2261
     20  O         33.6080   -4.9550   -3.8510 O.2    61  MET61      -0.2867
     21  CB        36.5800   -5.0810   -2.4010 C.3    61  MET61       0.0387
     22  CG        36.8120   -5.8200   -3.7300 C.3    61  MET61       0.0595
     23  SD        37.5430   -4.7910   -5.0140 S.3    61  MET61      -0.1393
     24  CE        36.2780   -4.6660   -5.9750 C.3    61  MET61       0.0692
     25  N         31.7020   -4.4520   -6.0920 N.3    65  LEU65      -0.1245
     26  CA        31.3140   -5.5960   -6.9290 C.3    65  LEU65       0.1561
     27  C         29.8060   -5.6800   -7.1550 C.2    65  LEU65       0.2260
     28  O         29.3830   -6.1640   -8.2060 O.2    65  LEU65      -0.2867
     29  CB        31.8830   -6.9210   -6.3930 C.3    65  LEU65       0.0270
     30  CG        33.4160   -7.0450   -6.3670 C.3    65  LEU65       0.0019
     31  CD1       33.8520   -8.2700   -5.5980 C.3    65  LEU65       0.0001
     32  CD2       34.0240   -7.0060   -7.7760 C.3    65  LEU65       0.0001
     33  N         32.9200  -10.7580  -11.9310 N.3    76  LEU76      -0.1245
     34  CA        33.9800  -10.6200  -10.9150 C.3    76  LEU76       0.1561
     35  C         35.3680  -11.0580  -11.3600 C.2    76  LEU76       0.2260
     36  O         36.3610  -10.4990  -10.8850 O.2    76  LEU76      -0.2867
     37  CB        33.5890  -11.4840   -9.7050 C.3    76  LEU76       0.0270
     38  CG        33.0110  -10.8150   -8.4670 C.3    76  LEU76       0.0019
     39  CD1       31.8130   -9.9330   -8.7950 C.3    76  LEU76       0.0001
     40  CD2       32.6110  -11.8660   -7.4530 C.3    76  LEU76       0.0001
     41  N         37.9020   -8.2850  -12.7050 N.3    79  VAL79      -0.1231
     42  CA        38.5000   -7.4360  -11.6510 C.3    79  VAL79       0.1692
     43  C         39.5500   -8.2460  -10.9150 C.2    79  VAL79       0.2591
     44  O         40.6080   -7.7250  -10.5990 O.2    79  VAL79      -0.2718
     45  CB        37.5230   -6.8590  -10.6000 C.3    79  VAL79       0.0266
     46  CG1       37.8760   -5.4210  -10.2610 C.3    79  VAL79       0.0020
     47  CG2       36.0750   -6.9930  -11.0110 C.3    79  VAL79       0.0020
     48  N         39.2290   -9.5170  -10.6300 N.am   80  MET80      -0.1979
     49  CA        40.0670  -10.4710   -9.9130 C.3    80  MET80       0.1605
     50  C         41.4260  -10.6370  -10.6070 C.2    80  MET80       0.2287
     51  O         42.4530  -10.5080   -9.9310 O.2    80  MET80      -0.2864
     52  CB        39.3300  -11.8140   -9.7820 C.3    80  MET80       0.0413
     53  CG        39.8160  -12.6620   -8.6300 C.3    80  MET80       0.0598
     54  SD        39.3760  -14.3590   -8.9130 S.3    80  MET80      -0.1393
     55  CE        37.6700  -14.3140   -8.4610 C.3    80  MET80       0.0692
     56  N         43.2900   -6.8150  -10.4660 N.3    83  VAL83      -0.1231
     57  CA        43.8720   -6.5140   -9.1550 C.3    83  VAL83       0.1692
     58  C         45.0230   -7.4670   -8.7870 C.2    83  VAL83       0.2592
     59  O         46.0830   -6.9980   -8.3790 O.2    83  VAL83      -0.2718
     60  CB        42.7790   -6.4580   -8.0390 C.3    83  VAL83       0.0266
     61  CG1       43.3800   -6.1380   -6.6600 C.3    83  VAL83       0.0020
     62  CG2       41.6900   -5.4490   -8.3990 C.3    83  VAL83       0.0020
     63  N         44.8290   -8.7860   -8.9710 N.am   84  PHE84      -0.1976
     64  CA        45.7930   -9.8100   -8.5740 C.3    84  PHE84       0.1639
     65  C         47.0270   -9.9690   -9.4910 C.2    84  PHE84       0.2290
     66  O         48.0950  -10.3320   -8.9820 O.2    84  PHE84      -0.2864
     67  CB        45.0780  -11.1590   -8.3920 C.3    84  PHE84       0.0560
     68  CG        45.8780  -12.2510   -7.7330 C.ar   84  PHE84      -0.0200
     69  CD1       46.2520  -12.1500   -6.4050 C.ar   84  PHE84      -0.0042
     70  CD2       46.2050  -13.4060   -8.4260 C.ar   84  PHE84      -0.0042
     71  CE1       46.9800  -13.1620   -5.7980 C.ar   84  PHE84      -0.0003
     72  CE2       46.9120  -14.4290   -7.8100 C.ar   84  PHE84      -0.0003
     73  CZ        47.2940  -14.3010   -6.5030 C.ar   84  PHE84      -0.0000
     74  N         49.5750  -12.1160   -0.4940 N.3    93  ARG93      -0.1245
     75  CA        48.6330  -11.7060   -1.5240 C.3    93  ARG93       0.1563
     76  C         47.7310  -12.8600   -1.9190 C.2    93  ARG93       0.2260
     77  O         46.5790  -12.6210   -2.2610 O.2    93  ARG93      -0.2867
     78  CB        49.3640  -11.1190   -2.7380 C.3    93  ARG93       0.0307
     79  CG        49.9440   -9.7200   -2.4770 C.3    93  ARG93       0.0489
     80  CD        49.2730   -8.6780   -3.3200 C.3    93  ARG93       0.2205
     81  NE        49.7990   -8.6870   -4.6780 N.pl3  93  ARG93      -0.0865
     82  CZ        49.1360   -8.2800   -5.7480 C.cat  93  ARG93       0.5346
     83  NH1       47.8840   -7.8520   -5.6400 N.pl3  93  ARG93       0.1354
     84  NH2       49.7040   -8.3320   -6.9380 N.pl3  93  ARG93       0.1354
     85  N         45.0540  -13.2510    0.7630 N.3    96  THR96      -0.1203
     86  CA        44.1030  -12.1340    0.6290 C.3    96  THR96       0.1994
     87  C         43.0900  -12.4360   -0.4890 C.2    96  THR96       0.2617
     88  O         41.8940  -12.1670   -0.3190 O.2    96  THR96      -0.2717
     89  CB        44.8580  -10.7810    0.4650 C.3    96  THR96       0.1784
     90  OG1       45.7950  -10.6490    1.5350 O.3    96  THR96      -0.2211
     91  CG2       43.9330   -9.5780    0.4730 C.3    96  THR96       0.0376
     92  N         43.5620  -13.0410   -1.6000 N.am   97  LEU97      -0.1979
     93  CA        42.7180  -13.4640   -2.7260 C.3    97  LEU97       0.1596
     94  C         41.6870  -14.5040   -2.2370 C.2    97  LEU97       0.2287
     95  O         40.4960  -14.3760   -2.5340 O.2    97  LEU97      -0.2864
     96  CB        43.5980  -14.0680   -3.8570 C.3    97  LEU97       0.0297
     97  CG        42.8800  -14.7350   -5.0470 C.3    97  LEU97       0.0022
     98  CD1       42.3370  -13.6910   -6.0430 C.3    97  LEU97       0.0001
     99  CD2       43.8130  -15.7120   -5.7850 C.3    97  LEU97       0.0001
    100  N         39.1770  -13.1450    0.7520 N.3   100  PHE100     -0.1227
    101  CA        38.1130  -12.3500    0.1810 C.3   100  PHE100      0.1736
    102  C         37.1060  -13.2370   -0.5380 C.2   100  PHE100      0.2596
    103  O         35.9190  -12.9320   -0.4990 O.2   100  PHE100     -0.2718
    104  CB        38.6370  -11.2080   -0.6820 C.3   100  PHE100      0.0547
    105  CG        37.5440  -10.2750   -1.1480 C.ar  100  PHE100     -0.0202
    106  CD1       36.8790   -9.4530   -0.2460 C.ar  100  PHE100     -0.0042
    107  CD2       37.1710  -10.2300   -2.4870 C.ar  100  PHE100     -0.0042
    108  CE1       35.8790   -8.5900   -0.6790 C.ar  100  PHE100     -0.0003
    109  CE2       36.1630   -9.3730   -2.9150 C.ar  100  PHE100     -0.0003
    110  CZ        35.5130   -8.5710   -2.0080 C.ar  100  PHE100     -0.0000
    111  N         37.5550  -14.3830   -1.0650 N.am  101  GLY101     -0.1957
    112  CA        36.6720  -15.3780   -1.6800 C.3   101  GLY101      0.1869
    113  C         35.6780  -15.8990   -0.6470 C.2   101  GLY101      0.2309
    114  O         34.4730  -15.9920   -0.9230 O.2   101  GLY101     -0.2863
    115  N         33.1910  -13.1530    0.2340 N.3   104  VAL104     -0.1245
    116  CA        32.1830  -13.1100   -0.8400 C.3   104  VAL104      0.1561
    117  C         31.2090  -14.3090   -0.7240 C.2   104  VAL104      0.2260
    118  O         30.0070  -14.1360   -0.9390 O.2   104  VAL104     -0.2867
    119  CB        32.8260  -13.0070   -2.2610 C.3   104  VAL104      0.0252
    120  CG1       31.7820  -13.1230   -3.3720 C.3   104  VAL104      0.0019
    121  CG2       33.6070  -11.7100   -2.4120 C.3   104  VAL104      0.0019
    122  N         32.5650  -19.8210   -8.0410 N.3   120  LEU120     -0.1245
    123  CA        33.4250  -18.7570   -7.5090 C.3   120  LEU120      0.1561
    124  C         34.7900  -19.3470   -7.0870 C.2   120  LEU120      0.2260
    125  O         35.8250  -18.8130   -7.4950 O.2   120  LEU120     -0.2867
    126  CB        32.7640  -18.0240   -6.3250 C.3   120  LEU120      0.0270
    127  CG        33.6230  -17.0040   -5.5410 C.3   120  LEU120      0.0019
    128  CD1       34.0140  -15.7920   -6.4070 C.3   120  LEU120      0.0001
    129  CD2       32.9060  -16.5570   -4.2710 C.3   120  LEU120      0.0001
    130  N         38.6200  -18.5810   -8.6560 N.3   124  ILE124     -0.1245
    131  CA        39.7560  -18.1880   -7.8120 C.3   124  ILE124      0.1561
    132  C         40.9380  -19.1280   -8.0540 C.2   124  ILE124      0.2260
    133  O         42.0680  -18.6640   -8.2670 O.2   124  ILE124     -0.2867
    134  CB        39.3510  -18.1210   -6.3090 C.3   124  ILE124      0.0252
    135  CG1       38.2970  -16.9900   -6.0750 C.3   124  ILE124      0.0019
    136  CG2       40.5940  -17.9790   -5.3760 C.3   124  ILE124      0.0019
    137  CD1       37.4570  -17.1330   -4.8050 C.3   124  ILE124      0.0001
@<TRIPOS>BOND
     1    41    42    1
     2    33    34    1
     3    42    43    1
     4    42    45    1
     5    35    34    1
     6    35    36    2
     7    47    45    1
     8    43    48   am
     9    43    44    2
    10    34    37    1
    11    48    49    1
    12    50    51    2
    13    50    49    1
    14    45    46    1
    15    56    57    1
    16    49    52    1
    17    52    53    1
    18    37    38    1
    19    65    66    2
    20    65    64    1
    21    57    58    1
    22    57    60    1
    23    63    58   am
    24    63    64    1
    25    54    53    1
    26    54    55    1
    27    39    38    1
    28    58    59    2
    29   130   131    1
    30    64    67    1
    31    38    40    1
    32    70    72   ar
    33    70    68   ar
    34    62    60    1
    35    67    68    1
    36   133   132    2
    37    28    27    2
    38   132   131    1
    39   122   123    1
    40    60    61    1
    41   131   134    1
    42    72    73   ar
    43    32    30    1
    44    68    69   ar
    45   123   124    1
    46   123   126    1
    47   125   124    2
    48    27    26    1
    49    84    82    1
    50    26    29    1
    51    26    25    1
    52    73    71   ar
    53   128   127    1
    54    69    71   ar
    55    29    30    1
    56    30    31    1
    57   126   127    1
    58   134   135    1
    59   134   136    1
    60   135   137    1
    61    98    97    1
    62    24    23    1
    63    99    97    1
    64    82    83    1
    65    82    81    2
    66   127   129    1
    67    97    96    1
    68    23    22    1
    69    81    80    1
    70    96    93    1
    71    20    19    2
    72    22    21    1
    73   120   119    1
    74    80    79    1
    75   109   107   ar
    76   109   110   ar
    77    78    79    1
    78    78    75    1
    79    93    94    1
    80    93    92    1
    81    19    18    1
    82    95    94    2
    83   107   105   ar
    84   121   119    1
    85    18    21    1
    86    18    17    1
    87    77    76    2
    88   119   116    1
    89   110   108   ar
    90    76    75    1
    91   112   111    1
    92   112   113    1
    93    92    87   am
    94    75    74    1
    95   105   104    1
    96   105   106   ar
    97   111   102   am
    98   118   117    2
    99   114   113    2
   100   116   117    1
   101   116   115    1
   102   104   101    1
   103   108   106   ar
   104   102   103    2
   105   102   101    1
   106    87    88    2
   107    87    86    1
   108   101   100    1
   109    89    91    1
   110    89    86    1
   111    89    90    1
   112    86    85    1
   113     9     8    2
   114     4     3    2
   115    14    12   ar
   116    14    16   ar
   117     8     7    1
   118    12    11   ar
   119     3     6   am
   120     3     2    1
   121     7     6    1
   122     7    10    1
   123    16    15   ar
   124     5     2    1
   125     2     1    1
   126    11    10    1
   127    11    13   ar
   128    15    13   ar
