@<TRIPOS>MOLECULE
tmp/6b4nA00.pdb
 122 113 0 0 0
SMALL
GASTEIGER

@<TRIPOS>ATOM
      1  N          2.5400   24.1400   17.1000 N.3     8  ARG8       -0.1245
      2  CA         3.7380   24.8350   16.6130 C.3     8  ARG8        0.1563
      3  C          3.3950   26.2370   16.1650 C.2     8  ARG8        0.2260
      4  O          2.3810   26.4500   15.4710 O.2     8  ARG8       -0.2867
      5  CB         4.3620   24.1000   15.4110 C.3     8  ARG8        0.0307
      6  CG         4.8910   22.7470   15.8510 C.3     8  ARG8        0.0489
      7  CD         5.2880   21.9010   14.6420 C.3     8  ARG8        0.2205
      8  NE         5.7480   20.6060   15.1410 N.pl3   8  ARG8       -0.0865
      9  CZ         5.7710   19.4830   14.4300 C.cat   8  ARG8        0.5346
     10  NH1        6.2210   18.3940   15.0370 N.pl3   8  ARG8        0.1354
     11  NH2        5.3600   19.4760   13.1680 N.pl3   8  ARG8        0.1354
     12  N          8.6580   28.4590   11.4960 N.3    23  LEU23      -0.1245
     13  CA         8.4410   28.3840   12.9260 C.3    23  LEU23       0.1561
     14  C          9.0260   29.5820   13.6510 C.2    23  LEU23       0.2260
     15  O         10.2110   29.8730   13.4090 O.2    23  LEU23      -0.2867
     16  CB         9.1470   27.0920   13.3030 C.3    23  LEU23       0.0270
     17  CG         9.0980   26.4510   14.6620 C.3    23  LEU23       0.0019
     18  CD1        7.6850   26.0280   15.0120 C.3    23  LEU23       0.0001
     19  CD2       10.0250   25.2420   14.6560 C.3    23  LEU23       0.0001
     20  N         10.9350   30.7070   16.4750 N.3    25  ASP25      -0.1239
     21  CA        11.7440   29.8100   17.2900 C.3    25  ASP25       0.1674
     22  C         12.7180   30.5460   18.2030 C.2    25  ASP25       0.2266
     23  O         13.8250   30.9820   17.8280 O.2    25  ASP25      -0.2867
     24  CB        12.5360   28.8860   16.3650 C.3    25  ASP25       0.1410
     25  CG        13.1910   27.7790   17.1350 C.2    25  ASP25       0.3668
     26  OD1       13.1470   27.7870   18.4050 O.co2  25  ASP25      -0.2456
     27  OD2       13.7880   26.8610   16.5150 O.co2  25  ASP25      -0.2456
     28  N         14.4790   29.2900   20.4350 N.3    27  GLY27      -0.1210
     29  CA        15.6640   28.4880   20.7090 C.3    27  GLY27       0.1956
     30  C         16.6880   28.5570   19.5970 C.2    27  GLY27       0.2612
     31  O         17.7480   27.9160   19.7480 O.2    27  GLY27      -0.2717
     32  N         16.4400   29.2990   18.5250 N.am   28  ALA28      -0.1965
     33  CA        17.3820   29.3970   17.3920 C.3    28  ALA28       0.1728
     34  C         18.0670   30.7420   17.4290 C.2    28  ALA28       0.2616
     35  O         17.3720   31.7770   17.4170 O.2    28  ALA28      -0.2715
     36  CB        16.6760   29.2130   16.0730 C.3    28  ALA28       0.0334
     37  N         19.4000   30.7860   17.4650 N.am   29  ASP29      -0.1957
     38  CA        20.0620   32.0840   17.4680 C.3    29  ASP29       0.1840
     39  C         19.8210   32.8180   16.1470 C.2    29  ASP29       0.2622
     40  O         19.5840   34.0590   16.1530 O.2    29  ASP29      -0.2715
     41  CB        21.5650   31.8400   17.6650 C.3    29  ASP29       0.1450
     42  CG        21.9930   31.3310   19.0190 C.2    29  ASP29       0.3671
     43  OD1       21.2620   31.4050   20.0300 O.co2  29  ASP29      -0.2456
     44  OD2       23.1410   30.8120   19.1240 O.co2  29  ASP29      -0.2456
     45  N         19.9250   32.0990   15.0290 N.am   30  ASP30      -0.1971
     46  CA        19.7080   32.6990   13.7100 C.3    30  ASP30       0.1709
     47  C         18.5960   31.9480   12.9880 C.2    30  ASP30       0.2293
     48  O         18.2370   30.8190   13.3140 O.2    30  ASP30      -0.2864
     49  CB        20.9580   32.6270   12.8360 C.3    30  ASP30       0.1436
     50  CG        21.9870   33.7260   12.8770 C.2    30  ASP30       0.3671
     51  OD1       21.6850   34.8620   13.3280 O.co2  30  ASP30      -0.2456
     52  OD2       23.1300   33.5120   12.3840 O.co2  30  ASP30      -0.2456
     53  N         17.0110   30.0370    9.8480 N.3    32  VAL32      -0.1245
     54  CA        17.5120   28.9620    8.9730 C.3    32  VAL32       0.1561
     55  C         16.3800   28.5620    8.0470 C.2    32  VAL32       0.2260
     56  O         15.2750   28.1920    8.5020 O.2    32  VAL32      -0.2867
     57  CB        17.9990   27.7330    9.7850 C.3    32  VAL32       0.0252
     58  CG1       18.7280   26.7910    8.8110 C.3    32  VAL32       0.0019
     59  CG2       18.8800   28.0750   10.9750 C.3    32  VAL32       0.0019
     60  N         29.0390   28.0750    6.4690 N.3    45  LYS45      -0.1245
     61  CA        28.9520   27.9990    7.9210 C.3    45  LYS45       0.1561
     62  C         28.4920   26.5990    8.3190 C.2    45  LYS45       0.2260
     63  O         27.7790   25.9310    7.5690 O.2    45  LYS45      -0.2867
     64  CB        27.9310   29.0400    8.4110 C.3    45  LYS45       0.0271
     65  CG        27.8920   29.3220    9.9000 C.3    45  LYS45       0.0035
     66  CD        27.0170   30.5280   10.2170 C.3    45  LYS45       0.0206
     67  CE        26.7030   30.5620   11.7130 C.3    45  LYS45       0.1093
     68  NZ        27.8660   31.1640   12.4270 N.3    45  LYS45      -0.1314
     69  N         26.2620   24.7370   11.4320 N.3    47  ILE47      -0.1231
     70  CA        25.4560   24.9780   12.6260 C.3    47  ILE47       0.1692
     71  C         24.9760   23.6350   13.1460 C.2    47  ILE47       0.2593
     72  O         24.7500   22.6740   12.4170 O.2    47  ILE47      -0.2718
     73  CB        24.2650   25.9020   12.3180 C.3    47  ILE47       0.0266
     74  CG1       23.2990   25.3250   11.2690 C.3    47  ILE47       0.0019
     75  CG2       24.7760   27.2910   11.8950 C.3    47  ILE47       0.0020
     76  CD1       22.0670   26.2050   11.1090 C.3    47  ILE47       0.0001
     77  N         24.8790   23.5620   14.4820 N.am   48  GLY48      -0.1942
     78  CA        24.6050   22.2700   15.0890 C.3    48  GLY48       0.2014
     79  C         23.4560   22.3200   16.0300 C.2    48  GLY48       0.2639
     80  O         23.1880   23.3130   16.7140 O.2    48  GLY48      -0.2714
     81  N         22.7270   21.2190   16.1170 N.am   49  GLY49      -0.1939
     82  CA        21.6070   21.1000   17.0090 C.3    49  GLY49       0.2014
     83  C         21.4270   19.6350   17.3630 C.2    49  GLY49       0.2638
     84  O         22.3730   18.8590   17.3090 O.2    49  GLY49      -0.2714
     85  N         20.1960   19.2800   17.6980 N.am   50  ILE50      -0.1977
     86  CA        19.9600   17.8460   17.9620 C.3    50  ILE50       0.1596
     87  C         20.2320   17.0930   16.6790 C.2    50  ILE50       0.2287
     88  O         19.8010   17.4400   15.5730 O.2    50  ILE50      -0.2864
     89  CB        18.5260   17.6730   18.4880 C.3    50  ILE50       0.0276
     90  CG1       18.4910   18.1670   19.9300 C.3    50  ILE50       0.0022
     91  CG2       18.0420   16.2120   18.3990 C.3    50  ILE50       0.0022
     92  CD1       17.1530   18.3250   20.5730 C.3    50  ILE50       0.0001
     93  N         20.4490   31.9130    7.1780 N.3    76  LEU76      -0.1245
     94  CA        21.2580   30.7500    6.8520 C.3    76  LEU76       0.1561
     95  C         20.4400   29.8480    5.9880 C.2    76  LEU76       0.2260
     96  O         19.2860   29.5860    6.3480 O.2    76  LEU76      -0.2867
     97  CB        21.6480   30.0340    8.1610 C.3    76  LEU76       0.0270
     98  CG        22.2790   30.9690    9.2040 C.3    76  LEU76       0.0019
     99  CD1       22.6240   30.1310   10.4250 C.3    76  LEU76       0.0001
    100  CD2       23.5050   31.7090    8.6430 C.3    76  LEU76       0.0001
    101  N         15.2410   20.6150    8.2320 N.3    81  PRO81      -0.2102
    102  CA        13.9490   19.9600    7.9400 C.3    81  PRO81       0.1504
    103  C         12.7690   20.8970    8.0720 C.2    81  PRO81       0.2575
    104  O         11.6590   20.5670    7.6060 O.2    81  PRO81      -0.2718
    105  CB        13.8570   18.8650    9.0060 C.3    81  PRO81       0.0282
    106  CG        14.7920   19.2880   10.0720 C.3    81  PRO81       0.0208
    107  CD        15.8490   20.1760    9.5050 C.3    81  PRO81       0.0893
    108  N         12.9720   22.0490    8.7170 N.am   82  VAL82      -0.1980
    109  CA        11.8730   22.9980    8.9850 C.3    82  VAL82       0.1595
    110  C         12.3950   24.4100    8.7670 C.2    82  VAL82       0.2287
    111  O         13.5390   24.7040    9.1400 O.2    82  VAL82      -0.2864
    112  CB        11.3770   22.7520   10.4260 C.3    82  VAL82       0.0276
    113  CG1       10.4780   23.8280   11.0070 C.3    82  VAL82       0.0022
    114  CG2       10.6300   21.3890   10.5490 C.3    82  VAL82       0.0022
    115  N         12.9610   28.0470   10.0180 N.3    84  ILE84      -0.1245
    116  CA        13.0190   28.5640   11.3930 C.3    84  ILE84       0.1561
    117  C         13.2900   30.0380   11.3940 C.2    84  ILE84       0.2260
    118  O         14.2940   30.4420   10.7870 O.2    84  ILE84      -0.2867
    119  CB        14.2050   27.8540   12.1020 C.3    84  ILE84       0.0252
    120  CG1       13.8740   26.3570   12.2620 C.3    84  ILE84       0.0019
    121  CG2       14.6010   28.6070   13.3670 C.3    84  ILE84       0.0019
    122  CD1       15.1830   25.5710   12.4570 C.3    84  ILE84       0.0001
@<TRIPOS>BOND
     1    95    96    2
     2    95    94    1
     3    60    61    1
     4    94    93    1
     5    94    97    1
     6    63    62    2
     7   104   103    2
     8    61    62    1
     9    61    64    1
    10   102   103    1
    11   102   101    1
    12   102   105    1
    13    55    56    2
    14    55    54    1
    15   103   108   am
    16    97    98    1
    17   101   107    1
    18    64    65    1
    19   100    98    1
    20   108   109    1
    21   110   109    1
    22   110   111    2
    23    58    57    1
    24    54    57    1
    25    54    53    1
    26   109   112    1
    27   105   106    1
    28    98    99    1
    29   107   106    1
    30    57    59    1
    31    65    66    1
    32   115   116    1
    33    66    67    1
    34   112   114    1
    35   112   113    1
    36   118   117    2
    37    76    74    1
    38    74    73    1
    39   116   117    1
    40   116   119    1
    41    69    70    1
    42    12    13    1
    43    67    68    1
    44    75    73    1
    45   119   120    1
    46   119   121    1
    47   120   122    1
    48    73    70    1
    49    52    50   ar
    50    72    71    2
    51    70    71    1
    52    49    50    1
    53    49    46    1
    54    50    51   ar
    55    13    16    1
    56    13    14    1
    57    47    48    2
    58    47    46    1
    59    71    77   am
    60    11     9    1
    61    16    17    1
    62    15    14    2
    63    46    45    1
    64     9    10    1
    65     9     8    2
    66    77    78    1
    67     7     8    1
    68     7     6    1
    69    19    17    1
    70    17    18    1
    71    45    39   am
    72    78    79    1
    73     5     6    1
    74     5     2    1
    75     4     3    2
    76    88    87    2
    77    79    81   am
    78    79    80    2
    79    36    33    1
    80    81    82    1
    81    39    40    2
    82    39    38    1
    83     3     2    1
    84    24    25    1
    85    24    21    1
    86    20    21    1
    87    27    25   ar
    88     2     1    1
    89    87    86    1
    90    82    83    1
    91    25    26   ar
    92    21    22    1
    93    84    83    2
    94    83    85   am
    95    33    34    1
    96    33    32    1
    97    35    34    2
    98    34    37   am
    99    37    38    1
   100    38    41    1
   101    41    42    1
   102    85    86    1
   103    23    22    2
   104    86    89    1
   105    91    89    1
   106    89    90    1
   107    32    30   am
   108    42    44   ar
   109    42    43   ar
   110    30    31    2
   111    30    29    1
   112    90    92    1
   113    28    29    1
