@<TRIPOS>MOLECULE
tmp/6b4qA00.pdb
 99 92 0 0 0
SMALL
GASTEIGER

@<TRIPOS>ATOM
      1  N          1.0710   22.7280   49.9790 N.3   113  LEU113     -0.1231
      2  CA        -0.2940   23.1970   50.2020 C.3   113  LEU113      0.1693
      3  C         -0.2570   24.6470   50.6960 C.2   113  LEU113      0.2592
      4  O          0.6130   25.0270   51.4970 O.2   113  LEU113     -0.2718
      5  CB        -1.0260   22.2940   51.1890 C.3   113  LEU113      0.0284
      6  CG        -1.4930   20.9460   50.5640 C.3   113  LEU113      0.0019
      7  CD1       -1.3310   19.8060   51.5500 C.3   113  LEU113      0.0001
      8  CD2       -2.9180   21.0930   50.1090 C.3   113  LEU113      0.0001
      9  N         -1.1520   25.4810   50.1650 N.am  114  ALA114     -0.1966
     10  CA        -1.0780   26.9200   50.4120 C.3   114  ALA114      0.1728
     11  C         -2.4680   27.5500   50.4760 C.2   114  ALA114      0.2616
     12  O         -3.4600   26.9690   50.0150 O.2   114  ALA114     -0.2715
     13  CB        -0.2470   27.6080   49.3230 C.3   114  ALA114      0.0334
     14  N         -2.5170   28.7740   51.0120 N.am  115  GLY115     -0.1955
     15  CA        -3.7190   29.5990   50.9740 C.3   115  GLY115      0.1869
     16  C         -3.7100   30.5890   49.8110 C.2   115  GLY115      0.2309
     17  O         -2.6610   31.1200   49.4480 O.2   115  GLY115     -0.2863
     18  N          5.1440   32.5430   55.1320 N.3   192  ASN192     -0.1240
     19  CA         4.7760   32.7210   56.5430 C.3   192  ASN192      0.1653
     20  C          5.4880   31.6590   57.3710 C.2   192  ASN192      0.2266
     21  O          5.2290   30.4670   57.1960 O.2   192  ASN192     -0.2867
     22  CB         3.2550   32.5590   56.6760 C.3   192  ASN192      0.1155
     23  CG         2.7890   32.3610   58.1230 C.2   192  ASN192      0.2627
     24  OD1        3.3580   32.9170   59.0860 O.2   192  ASN192     -0.2716
     25  ND2        1.7100   31.5540   58.2790 N.am  192  ASN192     -0.0877
     26  N         -1.8450   29.5230   61.0240 N.3   197  TYR197     -0.1227
     27  CA        -2.3080   30.0370   59.7430 C.3   197  TYR197      0.1736
     28  C         -2.2760   31.5600   59.8040 C.2   197  TYR197      0.2595
     29  O         -2.4910   32.1540   60.8650 O.2   197  TYR197     -0.2718
     30  CB        -3.7360   29.5310   59.4290 C.3   197  TYR197      0.0548
     31  CG        -3.7910   28.0310   59.1340 C.ar  197  TYR197     -0.0200
     32  CD1       -3.2030   27.5000   57.9810 C.ar  197  TYR197     -0.0009
     33  CD2       -4.4080   27.1550   60.0130 C.ar  197  TYR197     -0.0009
     34  CE1       -3.2620   26.1110   57.7080 C.ar  197  TYR197      0.0417
     35  CE2       -4.4740   25.7880   59.7530 C.ar  197  TYR197      0.0417
     36  CZ        -3.8560   25.2730   58.6160 C.ar  197  TYR197      0.1957
     37  OH        -3.9080   23.9100   58.3870 O.3   197  TYR197     -0.2866
     38  N         -2.0330   32.1970   58.6580 N.am  198  GLU198     -0.1979
     39  CA        -2.1640   33.6530   58.5860 C.3   198  GLU198      0.1602
     40  C         -3.5060   34.1350   59.1470 C.2   198  GLU198      0.2287
     41  O         -4.5770   33.5980   58.8310 O.2   198  GLU198     -0.2864
     42  CB        -1.9760   34.1200   57.1200 C.3   198  GLU198      0.0415
     43  CG        -3.0920   33.7240   56.0640 C.3   198  GLU198      0.1163
     44  CD        -3.0210   32.3020   55.5490 C.2   198  GLU198      0.3649
     45  OE1       -2.1140   31.5800   55.9700 O.co2 198  GLU198     -0.2457
     46  OE2       -3.8920   31.8780   54.7060 O.co2 198  GLU198     -0.2457
     47  N          0.0500   32.0960   49.9890 N.3   214  VAL214     -0.1231
     48  CA         0.8180   32.1180   51.2400 C.3   214  VAL214      0.1692
     49  C          0.9400   30.6910   51.7820 C.2   214  VAL214      0.2593
     50  O         -0.0190   29.9080   51.7370 O.2   214  VAL214     -0.2718
     51  CB         0.1650   33.0750   52.2820 C.3   214  VAL214      0.0266
     52  CG1       -1.2570   32.7030   52.5520 C.3   214  VAL214      0.0020
     53  CG2        0.9610   33.1230   53.5910 C.3   214  VAL214      0.0020
     54  N          2.1280   30.3510   52.2980 N.am  215  GLY215     -0.1942
     55  CA         2.3210   29.0570   52.9270 C.3   215  GLY215      0.2014
     56  C          3.5580   29.0610   53.8100 C.2   215  GLY215      0.2638
     57  O          4.2700   30.0630   53.9200 O.2   215  GLY215     -0.2714
     58  N          3.8130   27.8910   54.4210 N.am  216  MET216     -0.1976
     59  CA         4.7890   27.7570   55.4990 C.3   216  MET216      0.1605
     60  C          6.0160   26.9160   55.1240 C.2   216  MET216      0.2287
     61  O          6.7100   26.4320   56.0240 O.2   216  MET216     -0.2864
     62  CB         4.1220   27.1300   56.7360 C.3   216  MET216      0.0413
     63  CG         2.8770   27.7840   57.2400 C.3   216  MET216      0.0598
     64  SD         2.1760   26.8550   58.6480 S.3   216  MET216     -0.1393
     65  CE         0.5500   27.6130   58.7090 C.3   216  MET216      0.0692
     66  N         -5.6900   25.3380   49.0440 N.3   239  ALA239     -0.1231
     67  CA        -6.6940   24.6900   49.8780 C.3   239  ALA239      0.1694
     68  C         -7.9360   25.5460   50.1320 C.2   239  ALA239      0.2592
     69  O         -8.9940   24.9980   50.4380 O.2   239  ALA239     -0.2718
     70  CB        -6.0620   24.3020   51.2150 C.3   239  ALA239      0.0304
     71  N         -7.8390   26.8580   49.9800 N.am  240  ASN240     -0.1974
     72  CA        -8.8650   27.8080   50.3770 C.3   240  ASN240      0.1688
     73  C         -8.3980   29.1730   49.9300 C.2   240  ASN240      0.2292
     74  O         -7.2060   29.3680   49.6960 O.2   240  ASN240     -0.2864
     75  CB        -9.0640   27.8170   51.8790 C.3   240  ASN240      0.1181
     76  CG        -7.8440   28.3610   52.6110 C.2   240  ASN240      0.2629
     77  OD1       -6.7640   27.7510   52.5720 O.2   240  ASN240     -0.2716
     78  ND2       -7.9970   29.5250   53.2710 N.am  240  ASN240     -0.0877
     79  N         -7.9680   32.7310   51.5060 N.3   242  SER242     -0.1217
     80  CA        -7.9360   33.3720   52.8140 C.3   242  SER242      0.1889
     81  C         -8.6340   34.7150   52.8150 C.2   242  SER242      0.2288
     82  O         -9.1230   35.1480   53.8610 O.2   242  SER242     -0.2866
     83  CB        -6.4790   33.5770   53.2690 C.3   242  SER242      0.2089
     84  OG        -5.8030   32.3360   53.2870 O.3   242  SER242     -0.2183
     85  N        -10.2240   28.0430   58.6990 N.3   252  ILE252     -0.1245
     86  CA        -9.4570   27.0200   57.9990 C.3   252  ILE252      0.1561
     87  C         -8.8550   26.1120   59.0600 C.2   252  ILE252      0.2260
     88  O         -8.6530   26.5200   60.2130 O.2   252  ILE252     -0.2867
     89  CB        -8.3720   27.6300   57.0770 C.3   252  ILE252      0.0252
     90  CG1       -7.6370   26.5540   56.2550 C.3   252  ILE252      0.0019
     91  CG2       -7.3850   28.4360   57.8890 C.3   252  ILE252      0.0019
     92  CD1       -8.5220   25.8050   55.2340 C.3   252  ILE252      0.0001
     93  N         -7.6440   21.0960   54.8670 N.3   257  VAL257     -0.1245
     94  CA        -6.5110   21.1290   53.9450 C.3   257  VAL257      0.1561
     95  C         -6.2310   19.7360   53.3880 C.2   257  VAL257      0.2260
     96  O         -6.0740   19.5600   52.1740 O.2   257  VAL257     -0.2867
     97  CB        -5.2770   21.7190   54.6490 C.3   257  VAL257      0.0252
     98  CG1       -4.0550   21.5800   53.7800 C.3   257  VAL257      0.0019
     99  CG2       -5.5120   23.2010   54.9570 C.3   257  VAL257      0.0019
@<TRIPOS>BOND
     1    66    67    1
     2    13    10    1
     3    17    16    2
     4    74    73    2
     5    16    15    1
     6    67    68    1
     7    67    70    1
     8    73    72    1
     9     1     2    1
    10    71    68   am
    11    71    72    1
    12    47    48    1
    13    12    11    2
    14     8     6    1
    15    68    69    2
    16     9    10    1
    17     9     3   am
    18     2     3    1
    19     2     5    1
    20    72    75    1
    21    10    11    1
    22    11    14   am
    23     6     5    1
    24     6     7    1
    25     3     4    2
    26    15    14    1
    27    48    49    1
    28    48    51    1
    29    79    80    1
    30    50    49    2
    31    49    54   am
    32    75    76    1
    33    96    95    2
    34    51    52    1
    35    51    53    1
    36    54    55    1
    37    77    76    2
    38    76    78   am
    39    80    81    1
    40    80    83    1
    41    81    82    2
    42    55    56    1
    43    83    84    1
    44    95    94    1
    45    98    97    1
    46    56    57    2
    47    56    58   am
    48    94    97    1
    49    94    93    1
    50    58    59    1
    51    97    99    1
    52    46    44   ar
    53    60    59    1
    54    60    61    2
    55    18    19    1
    56    92    90    1
    57    59    62    1
    58    44    45   ar
    59    44    43    1
    60    43    42    1
    61    90    89    1
    62    19    22    1
    63    19    20    1
    64    22    23    1
    65    62    63    1
    66    89    91    1
    67    89    86    1
    68    42    39    1
    69    21    20    2
    70    63    64    1
    71    34    32   ar
    72    34    36   ar
    73    32    31   ar
    74    86    85    1
    75    86    87    1
    76    23    25   am
    77    23    24    2
    78    37    36    1
    79    39    38    1
    80    39    40    1
    81    36    35   ar
    82    64    65    1
    83    38    28   am
    84    41    40    2
    85    87    88    2
    86    31    30    1
    87    31    33   ar
    88    30    27    1
    89    27    28    1
    90    27    26    1
    91    35    33   ar
    92    28    29    2
