@<TRIPOS>MOLECULE
tmp/6b4rC00.pdb
 141 133 0 0 0
SMALL
GASTEIGER

@<TRIPOS>ATOM
      1  N        188.0030   11.9390   14.2850 N.3   117  ILE117     -0.1245
      2  CA       188.0030   12.5160   15.6230 C.3   117  ILE117      0.1561
      3  C        189.3390   12.3370   16.3330 C.2   117  ILE117      0.2260
      4  O        189.9950   13.3160   16.6790 O.2   117  ILE117     -0.2867
      5  CB       186.8800   11.9360   16.5030 C.3   117  ILE117      0.0252
      6  CG1      185.5140   12.1990   15.8690 C.3   117  ILE117      0.0019
      7  CG2      186.9420   12.5310   17.9010 C.3   117  ILE117      0.0019
      8  CD1      184.3520   11.7030   16.7000 C.3   117  ILE117      0.0001
      9  N        191.0940    3.7350   26.1990 N.3   166  ASN166     -0.1225
     10  CA       189.8730    4.2200   25.5630 C.3   166  ASN166      0.1785
     11  C        190.1370    5.2440   24.4590 C.2   166  ASN166      0.2597
     12  O        189.4290    5.2790   23.4520 O.2   166  ASN166     -0.2718
     13  CB       188.8990    4.7760   26.6040 C.3   166  ASN166      0.1169
     14  CG       189.4250    6.0150   27.2960 C.2   166  ASN166      0.2627
     15  OD1      190.6350    6.2320   27.3750 O.2   166  ASN166     -0.2716
     16  ND2      188.5140    6.8380   27.8040 N.am  166  ASN166     -0.0877
     17  N        191.1570    6.0740   24.6600 N.am  167  PHE167     -0.1976
     18  CA       191.6290    6.9960   23.6280 C.3   167  PHE167      0.1639
     19  C        193.1510    6.9740   23.5920 C.2   167  PHE167      0.2290
     20  O        193.7930    7.9260   24.0300 O.2   167  PHE167     -0.2864
     21  CB       191.1470    8.4210   23.9050 C.3   167  PHE167      0.0560
     22  CG       189.6560    8.5800   23.8510 C.ar  167  PHE167     -0.0200
     23  CD1      189.0160    8.8220   22.6470 C.ar  167  PHE167     -0.0042
     24  CD2      188.8950    8.4930   25.0040 C.ar  167  PHE167     -0.0042
     25  CE1      187.6410    8.9700   22.5920 C.ar  167  PHE167     -0.0003
     26  CE2      187.5200    8.6410   24.9570 C.ar  167  PHE167     -0.0003
     27  CZ       186.8920    8.8800   23.7490 C.ar  167  PHE167     -0.0000
     28  N        194.8960    9.9780   21.4020 N.3   170  LEU170     -0.1231
     29  CA       194.5180   11.2930   21.9080 C.3   170  LEU170      0.1693
     30  C        195.0320   11.5670   23.3230 C.2   170  LEU170      0.2591
     31  O        195.5270   12.6600   23.6040 O.2   170  LEU170     -0.2718
     32  CB       192.9990   11.4730   21.8550 C.3   170  LEU170      0.0284
     33  CG       192.5050   12.8580   22.2750 C.3   170  LEU170      0.0019
     34  CD1      193.1780   13.9310   21.4350 C.3   170  LEU170      0.0001
     35  CD2      190.9910   12.9560   22.1670 C.3   170  LEU170      0.0001
     36  N        194.9120   10.5830   24.2100 N.am  171  MET171     -0.1979
     37  CA       195.3640   10.7560   25.5890 C.3   171  MET171      0.1605
     38  C        196.8810   10.8410   25.6540 C.2   171  MET171      0.2287
     39  O        197.4370   11.5040   26.5310 O.2   171  MET171     -0.2864
     40  CB       194.8660    9.6200   26.4860 C.3   171  MET171      0.0413
     41  CG       193.3640    9.6060   26.7190 C.3   171  MET171      0.0598
     42  SD       192.7330   11.1530   27.3920 S.3   171  MET171     -0.1393
     43  CE       191.8110   11.7680   25.9820 C.3   171  MET171      0.0692
     44  N        197.6590   14.4060   24.5850 N.3   174  TRP174     -0.1241
     45  CA       197.2970   15.3360   25.6530 C.3   174  TRP174      0.1605
     46  C        198.4360   15.4380   26.6570 C.2   174  TRP174      0.2264
     47  O        198.6320   16.4780   27.2800 O.2   174  TRP174     -0.2867
     48  CB       196.0250   14.8920   26.3800 C.3   174  TRP174      0.0550
     49  CG       194.7470   15.2360   25.6790 C.ar  174  TRP174      0.0003
     50  CD1      194.6020   15.6360   24.3830 C.ar  174  TRP174      0.0946
     51  CD2      193.4280   15.2140   26.2420 C.ar  174  TRP174      0.0152
     52  NE1      193.2750   15.8590   24.1020 N.ar  174  TRP174     -0.2442
     53  CE2      192.5340   15.6070   25.2250 C.ar  174  TRP174      0.0810
     54  CE3      192.9160   14.8980   27.5060 C.ar  174  TRP174      0.0012
     55  CZ2      191.1580   15.6940   25.4330 C.ar  174  TRP174      0.0191
     56  CZ3      191.5480   14.9860   27.7100 C.ar  174  TRP174      0.0001
     57  CH2      190.6860   15.3800   26.6790 C.ar  174  TRP174      0.0015
     58  N        196.0760    8.4220   33.5100 N.3   241  THR241     -0.1218
     59  CA       194.6370    8.4510   33.3130 C.3   241  THR241      0.1862
     60  C        194.1080    7.0210   33.3160 C.2   241  THR241      0.2287
     61  O        194.5020    6.2040   32.4850 O.2   241  THR241     -0.2866
     62  CB       194.2580    9.1480   31.9960 C.3   241  THR241      0.1770
     63  OG1      194.6810   10.5170   32.0380 O.3   241  THR241     -0.2211
     64  CG2      192.7550    9.0930   31.7810 C.3   241  THR241      0.0375
     65  N        191.1850   10.1380   37.1920 N.3   266  ALA266     -0.1245
     66  CA       190.4480    8.8950   37.3970 C.3   266  ALA266      0.1562
     67  C        189.1350    8.8480   36.6240 C.2   266  ALA266      0.2260
     68  O        188.9640    9.5410   35.6220 O.2   266  ALA266     -0.2867
     69  CB       190.2000    8.6630   38.8830 C.3   266  ALA266      0.0290
     70  N        178.5450    7.1090   22.4930 N.3   294  PHE294     -0.1241
     71  CA       179.8000    7.4490   21.8300 C.3   294  PHE294      0.1605
     72  C        180.9930    6.7280   22.4540 C.2   294  PHE294      0.2264
     73  O        181.1630    6.7300   23.6740 O.2   294  PHE294     -0.2867
     74  CB       180.0330    8.9620   21.8380 C.3   294  PHE294      0.0534
     75  CG       181.3500    9.3720   21.2420 C.ar  294  PHE294     -0.0203
     76  CD1      181.5370    9.3540   19.8690 C.ar  294  PHE294     -0.0042
     77  CD2      182.4030    9.7660   22.0530 C.ar  294  PHE294     -0.0042
     78  CE1      182.7500    9.7230   19.3130 C.ar  294  PHE294     -0.0003
     79  CE2      183.6190   10.1370   21.5040 C.ar  294  PHE294     -0.0003
     80  CZ       183.7920   10.1170   20.1330 C.ar  294  PHE294     -0.0000
     81  N        184.0020    6.0220   28.1930 N.3   299  VAL299     -0.1245
     82  CA       184.3690    7.4250   28.2230 C.3   299  VAL299      0.1561
     83  C        184.2900    7.9320   29.6550 C.2   299  VAL299      0.2260
     84  O        183.2970    7.7090   30.3470 O.2   299  VAL299     -0.2867
     85  CB       183.4250    8.2510   27.3210 C.3   299  VAL299      0.0252
     86  CG1      183.5410    9.7380   27.6150 C.3   299  VAL299      0.0019
     87  CG2      183.6990    7.9620   25.8550 C.3   299  VAL299      0.0019
     88  N        184.0040   10.9580   30.8280 N.3   300  THR300     -0.1218
     89  CA       182.9570   11.9630   31.0060 C.3   300  THR300      0.1862
     90  C        181.6590   11.5600   30.3140 C.2   300  THR300      0.2287
     91  O        180.9030   12.4130   29.8460 O.2   300  THR300     -0.2866
     92  CB       183.3940   13.3280   30.4420 C.3   300  THR300      0.1770
     93  OG1      183.7730   13.1780   29.0680 O.3   300  THR300     -0.2211
     94  CG2      184.5690   13.8650   31.2200 C.3   300  THR300      0.0375
     95  N        181.6310    2.1430   32.7420 N.3   400  PHE400     -0.1241
     96  CA       182.5230    2.2640   31.5900 C.3   400  PHE400      0.1605
     97  C        181.9830    1.5000   30.3820 C.2   400  PHE400      0.2264
     98  O        182.7410    0.9740   29.5670 O.2   400  PHE400     -0.2867
     99  CB       183.9500    1.8270   31.9400 C.3   400  PHE400      0.0534
    100  CG       185.0130    2.7520   31.4160 C.ar  400  PHE400     -0.0203
    101  CD1      185.1760    4.0190   31.9550 C.ar  400  PHE400     -0.0042
    102  CD2      185.8570    2.3510   30.3940 C.ar  400  PHE400     -0.0042
    103  CE1      186.1570    4.8740   31.4780 C.ar  400  PHE400     -0.0003
    104  CE2      186.8410    3.2000   29.9130 C.ar  400  PHE400     -0.0003
    105  CZ       186.9900    4.4640   30.4560 C.ar  400  PHE400     -0.0000
    106  N        184.2390   14.8600   37.5610 N.3   426  LEU426     -0.1245
    107  CA       185.0130   15.0710   36.3460 C.3   426  LEU426      0.1561
    108  C        184.2700   15.9500   35.3450 C.2   426  LEU426      0.2260
    109  O        184.8710   16.7950   34.6830 O.2   426  LEU426     -0.2867
    110  CB       185.3640   13.7270   35.7080 C.3   426  LEU426      0.0270
    111  CG       186.3860   13.7530   34.5730 C.3   426  LEU426      0.0019
    112  CD1      187.7410   14.2310   35.0670 C.3   426  LEU426      0.0001
    113  CD2      186.5000   12.3750   33.9700 C.3   426  LEU426      0.0001
    114  N        179.8380   17.3670   26.0230 N.3   456  ASP456     -0.1239
    115  CA       181.1910   17.1130   25.5340 C.3   456  ASP456      0.1674
    116  C        181.7380   18.3250   24.7860 C.2   456  ASP456      0.2266
    117  O        182.1960   18.2120   23.6500 O.2   456  ASP456     -0.2867
    118  CB       181.2250   15.8660   24.6400 C.3   456  ASP456      0.1410
    119  CG       182.6400   15.3840   24.3570 C.2   456  ASP456      0.3668
    120  OD1      182.9180   14.9860   23.2050 O.co2 456  ASP456     -0.2456
    121  OD2      183.4730   15.4050   25.2880 O.co2 456  ASP456     -0.2456
    122  N        190.9420   20.4500   31.2950 N.3   464  PHE464     -0.1241
    123  CA       190.1910   19.2150   31.4860 C.3   464  PHE464      0.1605
    124  C        190.7640   18.4150   32.6520 C.2   464  PHE464      0.2264
    125  O        191.9450   18.0690   32.6510 O.2   464  PHE464     -0.2867
    126  CB       190.2420   18.3860   30.1990 C.3   464  PHE464      0.0534
    127  CG       189.2970   17.2190   30.1830 C.ar  464  PHE464     -0.0203
    128  CD1      188.0400   17.3390   29.6110 C.ar  464  PHE464     -0.0042
    129  CD2      189.6680   15.9990   30.7260 C.ar  464  PHE464     -0.0042
    130  CE1      187.1700   16.2660   29.5890 C.ar  464  PHE464     -0.0003
    131  CE2      188.8030   14.9260   30.7070 C.ar  464  PHE464     -0.0003
    132  CZ       187.5550   15.0580   30.1350 C.ar  464  PHE464     -0.0000
    133  N        194.9640   19.7640   28.5940 N.3   476  LYS476     -0.1245
    134  CA       194.6070   20.8320   27.6590 C.3   476  LYS476      0.1561
    135  C        194.7730   22.2280   28.2680 C.2   476  LYS476      0.2260
    136  O        195.1810   22.3670   29.4230 O.2   476  LYS476     -0.2867
    137  CB       193.1980   20.6270   27.0890 C.3   476  LYS476      0.0271
    138  CG       193.0190   19.2950   26.3740 C.3   476  LYS476      0.0035
    139  CD       191.7050   19.2360   25.6040 C.3   476  LYS476      0.0206
    140  CE       190.5100   19.4120   26.5250 C.3   476  LYS476      0.1093
    141  NZ       189.2250   19.4440   25.7730 N.3   476  LYS476     -0.1314
@<TRIPOS>BOND
     1     1     2    1
     2     2     3    1
     3     2     5    1
     4     6     5    1
     5     6     8    1
     6     3     4    2
     7     5     7    1
     8    78    76   ar
     9    78    80   ar
    10    76    75   ar
    11    80    79   ar
    12    75    74    1
    13    75    77   ar
    14    28    29    1
    15    34    33    1
    16    79    77   ar
    17    71    74    1
    18    71    72    1
    19    71    70    1
    20    32    29    1
    21    32    33    1
    22    29    30    1
    23    35    33    1
    24    72    73    2
    25    25    23   ar
    26    25    27   ar
    27    23    22   ar
    28   120   119   ar
    29    30    31    2
    30    30    36   am
    31    12    11    2
    32    19    18    1
    33    19    20    2
    34    18    21    1
    35    18    17    1
    36   117   116    2
    37    27    26   ar
    38    22    21    1
    39    22    24   ar
    40    52    50   ar
    41    52    53   ar
    42    36    37    1
    43   119   118    1
    44   119   121   ar
    45    50    49   ar
    46    11    17   am
    47    11    10    1
    48    44    45    1
    49   118   115    1
    50   116   115    1
    51    26    24   ar
    52    53    55   ar
    53    53    51   ar
    54    55    57   ar
    55   115   114    1
    56    10     9    1
    57    10    13    1
    58    37    38    1
    59    37    40    1
    60   139   138    1
    61   139   140    1
    62    45    48    1
    63    45    46    1
    64    38    39    2
    65    49    51   ar
    66    49    48    1
    67   141   140    1
    68    87    85    1
    69    43    42    1
    70    51    54   ar
    71   138   137    1
    72    40    41    1
    73    13    14    1
    74    46    47    2
    75    57    56   ar
    76    41    42    1
    77   137   134    1
    78    14    15    2
    79    14    16   am
    80    85    86    1
    81    85    82    1
    82    54    56   ar
    83   134   135    1
    84   134   133    1
    85    81    82    1
    86    82    83    1
    87   135   136    2
    88    93    92    1
    89    98    97    2
    90   130   128   ar
    91   130   132   ar
    92   128   127   ar
    93    83    84    2
    94    91    90    2
    95   104   102   ar
    96   104   105   ar
    97   132   131   ar
    98   127   126    1
    99   127   129   ar
   100   126   123    1
   101    90    89    1
   102    97    96    1
   103   102   100   ar
   104    92    89    1
   105    92    94    1
   106   105   103   ar
   107   131   129   ar
   108    88    89    1
   109   122   123    1
   110   100    99    1
   111   100   101   ar
   112   103   101   ar
   113   123   124    1
   114    96    99    1
   115    96    95    1
   116    64    62    1
   117    62    63    1
   118    62    59    1
   119    61    60    2
   120   125   124    2
   121    59    60    1
   122    59    58    1
   123   113   111    1
   124   111   112    1
   125   111   110    1
   126   109   108    2
   127   108   107    1
   128    68    67    2
   129   110   107    1
   130   107   106    1
   131    67    66    1
   132    65    66    1
   133    66    69    1
