@<TRIPOS>MOLECULE
tmp/6b4rA00.pdb
 165 157 0 0 0
SMALL
GASTEIGER

@<TRIPOS>ATOM
      1  N        178.1020   57.4020   49.4620 N.3   119  ILE119     -0.1245
      2  CA       178.5280   56.9070   48.1570 C.3   119  ILE119      0.1561
      3  C        179.8830   57.4720   47.7380 C.2   119  ILE119      0.2260
      4  O        180.8680   56.7410   47.6640 O.2   119  ILE119     -0.2867
      5  CB       177.4820   57.2040   47.0610 C.3   119  ILE119      0.0252
      6  CG1      176.1290   56.6010   47.4400 C.3   119  ILE119      0.0019
      7  CG2      177.9460   56.6630   45.7200 C.3   119  ILE119      0.0019
      8  CD1      175.0590   56.7960   46.3930 C.3   119  ILE119      0.0001
      9  N        183.2590   55.4820   48.3670 N.3   123  SER123     -0.1217
     10  CA       183.7870   54.8780   47.1460 C.3   123  SER123      0.1889
     11  C        185.1680   55.4220   46.8030 C.2   123  SER123      0.2288
     12  O        186.0320   54.6820   46.3370 O.2   123  SER123     -0.2866
     13  CB       182.8410   55.1080   45.9640 C.3   123  SER123      0.2089
     14  OG       181.5630   54.5530   46.2140 O.3   123  SER123     -0.2183
     15  N        180.8210   66.5180   38.2960 N.3   168  ASN168     -0.1225
     16  CA       179.6960   65.6810   38.6980 C.3   168  ASN168      0.1785
     17  C        180.0570   64.6830   39.7990 C.2   168  ASN168      0.2597
     18  O        179.2260   64.3560   40.6460 O.2   168  ASN168     -0.2718
     19  CB       179.0840   64.9710   37.4900 C.3   168  ASN168      0.1169
     20  CG       180.0370   63.9940   36.8450 C.2   168  ASN168      0.2627
     21  OD1      181.2520   64.1710   36.8960 O.2   168  ASN168     -0.2716
     22  ND2      179.4890   62.9520   36.2320 N.am  168  ASN168     -0.0877
     23  N        181.2960   64.2000   39.7750 N.am  169  PHE169     -0.1976
     24  CA       181.8330   63.3790   40.8580 C.3   169  PHE169      0.1639
     25  C        183.2540   63.8260   41.1990 C.2   169  PHE169      0.2290
     26  O        184.2040   63.0730   40.9980 O.2   169  PHE169     -0.2864
     27  CB       181.8390   61.8960   40.4730 C.3   169  PHE169      0.0560
     28  CG       180.4670   61.2930   40.3340 C.ar  169  PHE169     -0.0200
     29  CD1      179.8040   60.7800   41.4380 C.ar  169  PHE169     -0.0042
     30  CD2      179.8440   61.2270   39.0960 C.ar  169  PHE169     -0.0042
     31  CE1      178.5400   60.2200   41.3140 C.ar  169  PHE169     -0.0003
     32  CE2      178.5790   60.6680   38.9650 C.ar  169  PHE169     -0.0003
     33  CZ       177.9270   60.1640   40.0760 C.ar  169  PHE169     -0.0000
     34  N        185.3540   61.4860   43.7590 N.3   172  LEU172     -0.1231
     35  CA       185.4320   60.1160   43.2560 C.3   172  LEU172      0.1693
     36  C        186.2560   60.0010   41.9730 C.2   172  LEU172      0.2591
     37  O        187.1080   59.1170   41.8560 O.2   172  LEU172     -0.2718
     38  CB       184.0300   59.5410   43.0300 C.3   172  LEU172      0.0284
     39  CG       183.9970   58.0840   42.5620 C.3   172  LEU172      0.0019
     40  CD1      184.6840   57.1840   43.5800 C.3   172  LEU172      0.0001
     41  CD2      182.5740   57.6160   42.3020 C.3   172  LEU172      0.0001
     42  N        185.9960   60.8860   41.0140 N.am  173  MET173     -0.1979
     43  CA       186.7470   60.8960   39.7610 C.3   173  MET173      0.1605
     44  C        188.2120   61.2170   40.0180 C.2   173  MET173      0.2287
     45  O        189.0980   60.7030   39.3370 O.2   173  MET173     -0.2864
     46  CB       186.1620   61.9100   38.7720 C.3   173  MET173      0.0413
     47  CG       184.7700   61.5750   38.2510 C.3   173  MET173      0.0598
     48  SD       184.6690   59.9750   37.4240 S.3   173  MET173     -0.1393
     49  CE       183.8650   58.9900   38.6880 C.3   173  MET173      0.0692
     50  N        189.7780   58.0040   41.2350 N.3   176  TRP176     -0.1241
     51  CA       189.8900   57.0380   40.1440 C.3   176  TRP176      0.1605
     52  C        191.1840   57.2690   39.3750 C.2   176  TRP176      0.2264
     53  O        191.7720   56.3340   38.8360 O.2   176  TRP176     -0.2867
     54  CB       188.7040   57.1390   39.1800 C.3   176  TRP176      0.0550
     55  CG       187.4680   56.4190   39.6330 C.ar  176  TRP176      0.0003
     56  CD1      187.2190   55.9180   40.8790 C.ar  176  TRP176      0.0946
     57  CD2      186.3130   56.1140   38.8410 C.ar  176  TRP176      0.0152
     58  NE1      185.9800   55.3230   40.9120 N.ar  176  TRP176     -0.2442
     59  CE2      185.4030   55.4300   39.6740 C.ar  176  TRP176      0.0810
     60  CE3      185.9590   56.3520   37.5080 C.ar  176  TRP176      0.0012
     61  CZ2      184.1620   54.9840   39.2180 C.ar  176  TRP176      0.0191
     62  CZ3      184.7260   55.9070   37.0560 C.ar  176  TRP176      0.0001
     63  CH2      183.8430   55.2300   37.9100 C.ar  176  TRP176      0.0015
     64  N        188.2560   63.4620   32.1850 N.3   243  THR243     -0.1218
     65  CA       186.8690   63.0270   32.1490 C.3   243  THR243      0.1862
     66  C        185.9830   64.2580   32.0070 C.2   243  THR243      0.2287
     67  O        186.0600   65.1830   32.8150 O.2   243  THR243     -0.2866
     68  CB       186.4750   62.2560   33.4200 C.3   243  THR243      0.1770
     69  OG1      187.3210   61.1090   33.5710 O.3   243  THR243     -0.2211
     70  CG2      185.0240   61.8080   33.3390 C.3   243  THR243      0.0375
     71  N        187.7360   60.2180   28.9590 N.3   267  GLU267     -0.1245
     72  CA       186.4190   59.6420   29.1920 C.3   267  GLU267      0.1567
     73  C        185.3660   60.7050   28.8980 C.2   267  GLU267      0.2260
     74  O        185.0800   61.5540   29.7410 O.2   267  GLU267     -0.2867
     75  CB       186.2950   59.1410   30.6330 C.3   267  GLU267      0.0388
     76  CG       187.4390   58.2340   31.0700 C.3   267  GLU267      0.1160
     77  CD       186.9620   57.0080   31.8260 C.2   267  GLU267      0.3649
     78  OE1      185.8360   57.0390   32.3650 O.co2 267  GLU267     -0.2457
     79  OE2      187.7120   56.0100   31.8740 O.co2 267  GLU267     -0.2457
     80  N        169.2870   59.6380   39.5880 N.3   296  PHE296     -0.1241
     81  CA       170.4470   59.6080   40.4740 C.3   296  PHE296      0.1605
     82  C        171.4770   60.6650   40.0920 C.2   296  PHE296      0.2264
     83  O        171.8580   60.7850   38.9260 O.2   296  PHE296     -0.2867
     84  CB       171.0930   58.2220   40.4870 C.3   296  PHE296      0.0534
     85  CG       172.3490   58.1510   41.3030 C.ar  296  PHE296     -0.0203
     86  CD1      172.2930   58.1910   42.6870 C.ar  296  PHE296     -0.0042
     87  CD2      173.5870   58.0450   40.6890 C.ar  296  PHE296     -0.0042
     88  CE1      173.4470   58.1320   43.4450 C.ar  296  PHE296     -0.0003
     89  CE2      174.7480   57.9840   41.4420 C.ar  296  PHE296     -0.0003
     90  CZ       174.6770   58.0270   42.8220 C.ar  296  PHE296     -0.0000
     91  N        175.1700   62.1760   35.2960 N.3   301  VAL301     -0.1245
     92  CA       176.0170   60.9990   35.3150 C.3   301  VAL301      0.1561
     93  C        176.3520   60.6390   33.8770 C.2   301  VAL301      0.2260
     94  O        175.4710   60.6210   33.0180 O.2   301  VAL301     -0.2867
     95  CB       175.2980   59.8070   35.9770 C.3   301  VAL301      0.0252
     96  CG1      176.2250   58.5990   36.0650 C.3   301  VAL301      0.0019
     97  CG2      174.7840   60.1940   37.3570 C.3   301  VAL301      0.0019
     98  N        177.0890   57.8330   32.6310 N.3   302  THR302     -0.1218
     99  CA       176.4440   56.5760   32.2670 C.3   302  THR302      0.1862
    100  C        174.9790   56.5350   32.6800 C.2   302  THR302      0.2287
    101  O        174.4280   55.4590   32.9180 O.2   302  THR302     -0.2866
    102  CB       177.1610   55.3720   32.9010 C.3   302  THR302      0.1770
    103  OG1      177.2230   55.5440   34.3220 O.3   302  THR302     -0.2211
    104  CG2      178.5640   55.2480   32.3510 C.3   302  THR302      0.0375
    105  N        172.8430   65.6670   30.2160 N.3   402  PHE402     -0.1241
    106  CA       173.4500   65.8280   31.5380 C.3   402  PHE402      0.1605
    107  C        172.4800   66.4720   32.5260 C.2   402  PHE402      0.2264
    108  O        172.8460   67.3570   33.2990 O.2   402  PHE402     -0.2867
    109  CB       174.7680   66.6060   31.4630 C.3   402  PHE402      0.0534
    110  CG       175.8920   65.9620   32.2260 C.ar  402  PHE402     -0.0203
    111  CD1      176.5030   64.8110   31.7490 C.ar  402  PHE402     -0.0042
    112  CD2      176.3400   66.5060   33.4200 C.ar  402  PHE402     -0.0042
    113  CE1      177.5380   64.2130   32.4510 C.ar  402  PHE402     -0.0003
    114  CE2      177.3740   65.9120   34.1260 C.ar  402  PHE402     -0.0003
    115  CZ       177.9740   64.7640   33.6420 C.ar  402  PHE402     -0.0000
    116  N        179.6240   54.3900   26.0460 N.3   428  LEU428     -0.1245
    117  CA       180.1850   54.3260   27.3900 C.3   428  LEU428      0.1561
    118  C        179.5470   53.2120   28.2220 C.2   428  LEU428      0.2260
    119  O        180.2410   52.4500   28.8930 O.2   428  LEU428     -0.2867
    120  CB       180.0290   55.6800   28.0840 C.3   428  LEU428      0.0270
    121  CG       180.6700   55.8440   29.4610 C.3   428  LEU428      0.0019
    122  CD1      182.1290   55.4430   29.4290 C.3   428  LEU428      0.0001
    123  CD2      180.5270   57.2780   29.9220 C.3   428  LEU428      0.0001
    124  N        175.5580   46.1750   31.5540 N.3   453  TRP453     -0.1241
    125  CA       174.9560   45.6420   32.7690 C.3   453  TRP453      0.1605
    126  C        173.7270   44.7970   32.4530 C.2   453  TRP453      0.2264
    127  O        172.8370   45.2230   31.7180 O.2   453  TRP453     -0.2867
    128  CB       174.6240   46.7730   33.7480 C.3   453  TRP453      0.0550
    129  CG       175.8280   47.5950   34.1080 C.ar  453  TRP453      0.0003
    130  CD1      177.0010   47.1390   34.6310 C.ar  453  TRP453      0.0946
    131  CD2      175.9780   49.0140   33.9660 C.ar  453  TRP453      0.0152
    132  NE1      177.8730   48.1840   34.8250 N.ar  453  TRP453     -0.2442
    133  CE2      177.2680   49.3460   34.4260 C.ar  453  TRP453      0.0810
    134  CE3      175.1460   50.0360   33.5000 C.ar  453  TRP453      0.0012
    135  CZ2      177.7450   50.6550   34.4320 C.ar  453  TRP453      0.0191
    136  CZ3      175.6210   51.3340   33.5060 C.ar  453  TRP453      0.0001
    137  CH2      176.9080   51.6320   33.9670 C.ar  453  TRP453      0.0015
    138  N        174.1380   50.2970   36.6720 N.3   458  ASP458     -0.1239
    139  CA       175.2750   50.9080   37.3550 C.3   458  ASP458      0.1674
    140  C        176.0250   49.8790   38.1950 C.2   458  ASP458      0.2266
    141  O        176.2890   50.0960   39.3790 O.2   458  ASP458     -0.2867
    142  CB       174.8180   52.0930   38.2140 C.3   458  ASP458      0.1410
    143  CG       175.9610   53.0150   38.5980 C.2   458  ASP458      0.3668
    144  OD1      177.0250   52.9510   37.9450 O.co2 458  ASP458     -0.2456
    145  OD2      175.7900   53.8080   39.5480 O.co2 458  ASP458     -0.2456
    146  N        186.4120   50.6480   33.4760 N.3   466  PHE466     -0.1241
    147  CA       185.3810   51.6200   33.1380 C.3   466  PHE466      0.1605
    148  C        185.9010   52.6050   32.0990 C.2   466  PHE466      0.2264
    149  O        186.9060   53.2780   32.3200 O.2   466  PHE466     -0.2867
    150  CB       184.9330   52.3630   34.3980 C.3   466  PHE466      0.0534
    151  CG       183.7720   53.2890   34.1820 C.ar  466  PHE466     -0.0203
    152  CD1      182.4740   52.8550   34.3930 C.ar  466  PHE466     -0.0042
    153  CD2      183.9780   54.5980   33.7800 C.ar  466  PHE466     -0.0042
    154  CE1      181.4080   53.7090   34.2000 C.ar  466  PHE466     -0.0003
    155  CE2      182.9170   55.4510   33.5840 C.ar  466  PHE466     -0.0003
    156  CZ       181.6330   55.0070   33.7970 C.ar  466  PHE466     -0.0000
    157  N        189.5370   52.3160   36.9050 N.3   478  LYS478     -0.1245
    158  CA       189.3540   51.1610   37.7920 C.3   478  LYS478      0.1561
    159  C        190.0250   49.8900   37.2580 C.2   478  LYS478      0.2260
    160  O        190.6230   49.9000   36.1810 O.2   478  LYS478     -0.2867
    161  CB       187.8730   50.9190   38.1080 C.3   478  LYS478      0.0271
    162  CG       187.1620   52.1250   38.7080 C.3   478  LYS478      0.0035
    163  CD       185.7700   51.7580   39.2010 C.3   478  LYS478      0.0206
    164  CE       184.8810   51.2810   38.0620 C.3   478  LYS478      0.1093
    165  NZ       183.6210   50.6610   38.5570 N.3   478  LYS478     -0.1314
@<TRIPOS>BOND
     1   116   117    1
     2   117   120    1
     3   117   118    1
     4   120   121    1
     5   118   119    2
     6    73    72    1
     7    73    74    2
     8    71    72    1
     9    72    75    1
    10   122   121    1
    11   121   123    1
    12   105   106    1
    13    75    76    1
    14    76    77    1
    15   109   106    1
    16   109   110    1
    17   106   107    1
    18   124   125    1
    19   127   126    2
    20   111   110   ar
    21   111   113   ar
    22    77    79   ar
    23    77    78   ar
    24    66    65    1
    25    66    67    2
    26   148   149    2
    27   148   147    1
    28    65    64    1
    29    65    68    1
    30   110   112   ar
    31    99    98    1
    32    99   100    1
    33    99   102    1
    34   104   102    1
    35   113   115   ar
    36   126   125    1
    37   107   108    2
    38   100   101    2
    39   125   128    1
    40   102   103    1
    41    94    93    2
    42   147   146    1
    43   147   150    1
    44    70    68    1
    45    68    69    1
    46   112   114   ar
    47   134   136   ar
    48   134   131   ar
    49   136   137   ar
    50   155   153   ar
    51   155   156   ar
    52   115   114   ar
    53   128   129    1
    54   153   151   ar
    55   156   154   ar
    56    93    92    1
    57   131   129   ar
    58   131   133   ar
    59   137   135   ar
    60   129   130   ar
    61   151   152   ar
    62   151   150    1
    63   154   152   ar
    64   133   135   ar
    65   133   132   ar
    66   130   132   ar
    67    91    92    1
    68    92    95    1
    69    95    96    1
    70    95    97    1
    71   160   159    2
    72    22    20   am
    73   138   139    1
    74    20    21    2
    75    20    19    1
    76   157   158    1
    77    62    60   ar
    78    62    63   ar
    79   159   158    1
    80   139   140    1
    81   139   142    1
    82    48    47    1
    83    48    49    1
    84    19    16    1
    85    60    57   ar
    86   158   161    1
    87    63    61   ar
    88   144   143   ar
    89   164   165    1
    90   164   163    1
    91   161   162    1
    92   140   141    2
    93   142   143    1
    94    47    46    1
    95    15    16    1
    96   143   145   ar
    97    16    17    1
    98   162   163    1
    99    46    43    1
   100    53    52    2
   101    57    55   ar
   102    57    59   ar
   103    83    82    2
   104    32    30   ar
   105    32    33   ar
   106    30    28   ar
   107    54    55    1
   108    54    51    1
   109    61    59   ar
   110    45    44    2
   111    52    51    1
   112    80    81    1
   113    55    56   ar
   114    59    58   ar
   115    43    44    1
   116    43    42    1
   117    23    17   am
   118    23    24    1
   119    17    18    2
   120    33    31   ar
   121    82    81    1
   122    51    50    1
   123    28    27    1
   124    28    29   ar
   125    27    24    1
   126    81    84    1
   127    84    85    1
   128    87    85   ar
   129    87    89   ar
   130    24    25    1
   131    56    58   ar
   132    26    25    2
   133    42    36   am
   134    85    86   ar
   135    31    29   ar
   136    89    90   ar
   137    37    36    2
   138    36    35    1
   139    41    39    1
   140    39    38    1
   141    39    40    1
   142    86    88   ar
   143    90    88   ar
   144    38    35    1
   145    35    34    1
   146     7     5    1
   147    13    14    1
   148    13    10    1
   149    12    11    2
   150     8     6    1
   151    11    10    1
   152     5     6    1
   153     5     2    1
   154    10     9    1
   155     4     3    2
   156     3     2    1
   157     2     1    1
