@<TRIPOS>MOLECULE
tmp/6b4tA00.pdb
 93 87 0 0 0
SMALL
GASTEIGER

@<TRIPOS>ATOM
      1  N          0.9570   22.6780   50.1260 N.3   113  LEU113     -0.1231
      2  CA        -0.4030   23.1520   50.3680 C.3   113  LEU113      0.1693
      3  C         -0.3300   24.5750   50.9180 C.2   113  LEU113      0.2592
      4  O          0.5110   24.8830   51.7740 O.2   113  LEU113     -0.2718
      5  CB        -1.1280   22.2330   51.3540 C.3   113  LEU113      0.0284
      6  CG        -1.5420   20.8400   50.8910 C.3   113  LEU113      0.0019
      7  CD1       -1.5980   19.9540   52.1010 C.3   113  LEU113      0.0001
      8  CD2       -2.9060   20.9120   50.2150 C.3   113  LEU113      0.0001
      9  N         -1.1740   25.4680   50.3910 N.am  114  ALA114     -0.1966
     10  CA        -1.0730   26.8910   50.6960 C.3   114  ALA114      0.1728
     11  C         -2.4510   27.5490   50.7640 C.2   114  ALA114      0.2616
     12  O         -3.4610   26.9850   50.3250 O.2   114  ALA114     -0.2715
     13  CB        -0.2130   27.6030   49.6450 C.3   114  ALA114      0.0334
     14  N         -2.4770   28.7740   51.2860 N.am  115  GLY115     -0.1955
     15  CA        -3.6860   29.6010   51.3060 C.3   115  GLY115      0.1869
     16  C         -3.7060   30.6100   50.1680 C.2   115  GLY115      0.2309
     17  O         -2.6730   31.1950   49.8180 O.2   115  GLY115     -0.2863
     18  N          5.2340   32.6420   55.3590 N.3   192  ASN192     -0.1240
     19  CA         4.8830   32.8400   56.7720 C.3   192  ASN192      0.1653
     20  C          5.5870   31.7470   57.5790 C.2   192  ASN192      0.2266
     21  O          5.3150   30.5540   57.3930 O.2   192  ASN192     -0.2867
     22  CB         3.3590   32.7240   56.9410 C.3   192  ASN192      0.1155
     23  CG         2.9010   32.5760   58.4010 C.2   192  ASN192      0.2627
     24  OD1        3.5420   33.0820   59.3290 O.2   192  ASN192     -0.2716
     25  ND2        1.7920   31.8420   58.5990 N.am  192  ASN192     -0.0877
     26  N         -1.9350   29.6450   61.2170 N.3   197  TYR197     -0.1227
     27  CA        -2.4120   30.1320   59.9210 C.3   197  TYR197      0.1736
     28  C         -2.3930   31.6590   59.9260 C.2   197  TYR197      0.2595
     29  O         -2.5850   32.2920   60.9690 O.2   197  TYR197     -0.2718
     30  CB        -3.8330   29.6080   59.6310 C.3   197  TYR197      0.0548
     31  CG        -3.9170   28.1040   59.3830 C.ar  197  TYR197     -0.0200
     32  CD1       -3.2990   27.5170   58.2810 C.ar  197  TYR197     -0.0009
     33  CD2       -4.5930   27.2840   60.2570 C.ar  197  TYR197     -0.0009
     34  CE1       -3.3910   26.1320   58.0570 C.ar  197  TYR197      0.0417
     35  CE2       -4.6990   25.8980   60.0430 C.ar  197  TYR197      0.0417
     36  CZ        -4.0620   25.3390   58.9360 C.ar  197  TYR197      0.1957
     37  OH        -4.1270   23.9660   58.7140 O.3   197  TYR197     -0.2866
     38  N         -2.1710   32.2570   58.7500 N.am  198  GLU198     -0.1979
     39  CA        -2.3270   33.7050   58.6040 C.3   198  GLU198      0.1602
     40  C         -3.6450   34.1870   59.2230 C.2   198  GLU198      0.2287
     41  O         -4.7190   33.6230   58.9710 O.2   198  GLU198     -0.2864
     42  CB        -2.2430   34.0820   57.1020 C.3   198  GLU198      0.0415
     43  CG        -3.3420   33.5190   56.1530 C.3   198  GLU198      0.1163
     44  CD        -3.1550   32.0780   55.6350 C.2   198  GLU198      0.3649
     45  OE1       -2.2210   31.3530   56.0570 O.co2 198  GLU198     -0.2457
     46  OE2       -4.0100   31.6780   54.7860 O.co2 198  GLU198     -0.2457
     47  N          0.0530   32.1920   50.2410 N.3   214  VAL214     -0.1231
     48  CA         0.8500   32.2080   51.4850 C.3   214  VAL214      0.1692
     49  C          0.9860   30.7810   52.0420 C.2   214  VAL214      0.2593
     50  O          0.0410   29.9880   52.0160 O.2   214  VAL214     -0.2718
     51  CB         0.2500   33.1920   52.5330 C.3   214  VAL214      0.0266
     52  CG1       -1.1870   32.8440   52.8970 C.3   214  VAL214      0.0020
     53  CG2        1.0960   33.2510   53.8050 C.3   214  VAL214      0.0020
     54  N          2.1800   30.4450   52.5470 N.am  215  GLY215     -0.1942
     55  CA         2.3910   29.1680   53.1980 C.3   215  GLY215      0.2014
     56  C          3.6390   29.1670   54.0550 C.2   215  GLY215      0.2638
     57  O          4.3470   30.1760   54.1510 O.2   215  GLY215     -0.2714
     58  N          3.9130   27.9920   54.6560 N.am  216  MET216     -0.1976
     59  CA         4.9310   27.8590   55.7020 C.3   216  MET216      0.1605
     60  C          6.1430   27.0090   55.2930 C.2   216  MET216      0.2287
     61  O          6.8590   26.5240   56.1680 O.2   216  MET216     -0.2864
     62  CB         4.2940   27.2770   56.9760 C.3   216  MET216      0.0413
     63  CG         3.0170   27.9560   57.4390 C.3   216  MET216      0.0598
     64  SD         2.2550   27.0080   58.8060 S.3   216  MET216     -0.1393
     65  CE         0.6500   27.7870   58.8980 C.3   216  MET216      0.0692
     66  N         -5.8320   25.4760   49.3200 N.3   239  ALA239     -0.1231
     67  CA        -6.8310   24.8360   50.1640 C.3   239  ALA239      0.1694
     68  C         -8.0580   25.7080   50.4080 C.2   239  ALA239      0.2592
     69  O         -9.1320   25.1760   50.6700 O.2   239  ALA239     -0.2718
     70  CB        -6.2140   24.4450   51.5060 C.3   239  ALA239      0.0304
     71  N         -7.9140   27.0280   50.3200 N.am  240  ASN240     -0.1974
     72  CA        -8.9580   27.9790   50.7000 C.3   240  ASN240      0.1688
     73  C         -8.5430   29.3400   50.1590 C.2   240  ASN240      0.2292
     74  O         -7.3800   29.5380   49.7890 O.2   240  ASN240     -0.2864
     75  CB        -9.1050   28.0450   52.2130 C.3   240  ASN240      0.1181
     76  CG        -7.9150   28.7480   52.8590 C.2   240  ASN240      0.2629
     77  OD1       -6.7750   28.3140   52.6860 O.2   240  ASN240     -0.2716
     78  ND2       -8.1610   29.8730   53.5270 N.am  240  ASN240     -0.0877
     79  N        -10.3320   28.2250   58.9270 N.3   252  ILE252     -0.1245
     80  CA        -9.5520   27.1970   58.2400 C.3   252  ILE252      0.1561
     81  C         -9.0590   26.2300   59.3070 C.2   252  ILE252      0.2260
     82  O         -8.9610   26.5810   60.4900 O.2   252  ILE252     -0.2867
     83  CB        -8.3810   27.7990   57.4230 C.3   252  ILE252      0.0252
     84  CG1       -7.5110   26.7190   56.7570 C.3   252  ILE252      0.0019
     85  CG2       -7.5200   28.7060   58.2850 C.3   252  ILE252      0.0019
     86  CD1       -8.1650   26.0320   55.5660 C.3   252  ILE252      0.0001
     87  N         -8.0450   21.2050   55.1300 N.3   257  VAL257     -0.1245
     88  CA        -6.9070   21.2330   54.2180 C.3   257  VAL257      0.1561
     89  C         -6.6570   19.8530   53.6360 C.2   257  VAL257      0.2260
     90  O         -6.4640   19.6990   52.4270 O.2   257  VAL257     -0.2867
     91  CB        -5.6590   21.7690   54.9500 C.3   257  VAL257      0.0252
     92  CG1       -4.3870   21.5530   54.1210 C.3   257  VAL257      0.0019
     93  CG2       -5.8680   23.2340   55.2800 C.3   257  VAL257      0.0019
@<TRIPOS>BOND
     1    66    67    1
     2    13    10    1
     3    74    73    2
     4    17    16    2
     5     1     2    1
     6    73    72    1
     7    67    68    1
     8    67    70    1
     9    16    15    1
    10     8     6    1
    11    47    48    1
    12    71    68   am
    13    71    72    1
    14    12    11    2
    15     2     3    1
    16     2     5    1
    17     9    10    1
    18     9     3   am
    19    68    69    2
    20    10    11    1
    21    72    75    1
    22    11    14   am
    23     6     5    1
    24     6     7    1
    25     3     4    2
    26    14    15    1
    27    48    49    1
    28    48    51    1
    29    50    49    2
    30    49    54   am
    31    75    76    1
    32    90    89    2
    33    51    52    1
    34    51    53    1
    35    54    55    1
    36    77    76    2
    37    76    78   am
    38    55    56    1
    39    89    88    1
    40    56    57    2
    41    56    58   am
    42    92    91    1
    43    88    91    1
    44    88    87    1
    45    58    59    1
    46    46    44   ar
    47    91    93    1
    48    60    59    1
    49    60    61    2
    50    18    19    1
    51    86    84    1
    52    44    45   ar
    53    44    43    1
    54    59    62    1
    55    43    42    1
    56    84    83    1
    57    19    22    1
    58    19    20    1
    59    22    23    1
    60    62    63    1
    61    42    39    1
    62    21    20    2
    63    83    80    1
    64    83    85    1
    65    63    64    1
    66    34    32   ar
    67    34    36   ar
    68    80    79    1
    69    80    81    1
    70    32    31   ar
    71    23    25   am
    72    23    24    2
    73    39    38    1
    74    39    40    1
    75    37    36    1
    76    38    28   am
    77    64    65    1
    78    36    35   ar
    79    41    40    2
    80    81    82    2
    81    31    30    1
    82    31    33   ar
    83    30    27    1
    84    27    28    1
    85    27    26    1
    86    28    29    2
    87    35    33   ar
