@<TRIPOS>MOLECULE
tmp/6b4uA00.pdb
 155 145 0 0 0
SMALL
GASTEIGER

@<TRIPOS>ATOM
      1  N        -16.0640   11.8200   -2.4620 N.3    54  HIS54      -0.1241
      2  CA       -14.8220   12.2090   -3.1340 C.3    54  HIS54       0.1621
      3  C        -13.8220   11.0670   -3.2590 C.2    54  HIS54       0.2264
      4  O        -12.6240   11.3120   -3.4250 O.2    54  HIS54      -0.2867
      5  CB       -14.2120   13.4470   -2.4540 C.3    54  HIS54       0.0745
      6  CG       -15.1700   14.5960   -2.4630 C.ar   54  HIS54       0.0817
      7  ND1      -15.4280   15.3070   -3.6220 N.ar   54  HIS54      -0.2268
      8  CD2      -16.0050   15.0300   -1.4890 C.ar   54  HIS54       0.1154
      9  CE1      -16.3690   16.1830   -3.3050 C.ar   54  HIS54       0.1986
     10  NE2      -16.7460   16.0570   -2.0300 N.ar   54  HIS54      -0.2212
     11  N        -11.3150   11.1520   -6.2980 N.3    57  ALA57      -0.1231
     12  CA       -10.2630   12.1450   -6.0540 C.3    57  ALA57       0.1694
     13  C         -9.2880   11.6870   -4.9540 C.2    57  ALA57       0.2592
     14  O         -8.0830   11.8560   -5.1090 O.2    57  ALA57      -0.2718
     15  CB       -10.8750   13.4890   -5.6890 C.3    57  ALA57       0.0304
     16  N         -9.8150   11.0960   -3.8600 N.am   58  PHE58      -0.1976
     17  CA        -9.0050   10.5940   -2.7360 C.3    58  PHE58       0.1639
     18  C         -8.1070    9.4420   -3.2010 C.2    58  PHE58       0.2290
     19  O         -6.9150    9.4680   -2.9020 O.2    58  PHE58      -0.2864
     20  CB        -9.8990   10.2010   -1.5450 C.3    58  PHE58       0.0560
     21  CG       -10.3580   11.3690   -0.6860 C.ar   58  PHE58      -0.0200
     22  CD1      -10.1290   12.6900   -1.0850 C.ar   58  PHE58      -0.0042
     23  CD2      -10.9740   11.1490    0.5440 C.ar   58  PHE58      -0.0042
     24  CE1      -10.5280   13.7590   -0.2840 C.ar   58  PHE58      -0.0003
     25  CE2      -11.3730   12.2210    1.3430 C.ar   58  PHE58      -0.0003
     26  CZ       -11.1500   13.5180    0.9270 C.ar   58  PHE58      -0.0000
     27  N         -5.3830   11.0540   -5.4320 N.3    61  MET61      -0.1245
     28  CA        -4.3890   11.7590   -4.6110 C.3    61  MET61       0.1570
     29  C         -3.4560   10.7750   -3.8680 C.2    61  MET61       0.2261
     30  O         -2.2430   11.0030   -3.8200 O.2    61  MET61      -0.2867
     31  CB        -5.1010   12.7220   -3.6350 C.3    61  MET61       0.0387
     32  CG        -4.1460   13.6300   -2.9030 C.3    61  MET61       0.0595
     33  SD        -3.2990   14.8490   -3.9960 S.3    61  MET61      -0.1393
     34  CE        -2.2730   15.3800   -2.9350 C.3    61  MET61       0.0692
     35  N          0.7190   10.6010   -4.1850 N.3    65  LEU65      -0.1245
     36  CA         1.5560   10.6580   -2.9810 C.3    65  LEU65       0.1561
     37  C          2.5180    9.4780   -2.8510 C.2    65  LEU65       0.2260
     38  O          3.6070    9.6440   -2.2990 O.2    65  LEU65      -0.2867
     39  CB         0.6960   10.7870   -1.7150 C.3    65  LEU65       0.0270
     40  CG        -0.0520   12.1130   -1.5560 C.3    65  LEU65       0.0019
     41  CD1       -1.0280   12.0360   -0.4110 C.3    65  LEU65       0.0001
     42  CD2        0.9130   13.2720   -1.3520 C.3    65  LEU65       0.0001
     43  N          4.8910   14.2870    4.0110 N.3    76  LEU76      -0.1245
     44  CA         3.4790   14.6190    3.7640 C.3    76  LEU76       0.1561
     45  C          3.1330   16.0280    4.2140 C.2    76  LEU76       0.2260
     46  O          2.3100   16.6820    3.5780 O.2    76  LEU76      -0.2867
     47  CB         2.5730   13.6020    4.4760 C.3    76  LEU76       0.0270
     48  CG         1.7900   12.6000    3.6210 C.3    76  LEU76       0.0019
     49  CD1        2.5790   12.1190    2.4140 C.3    76  LEU76       0.0001
     50  CD2        1.3270   11.4180    4.4590 C.3    76  LEU76       0.0001
     51  N          3.6060   18.6640    1.4720 N.3    79  VAL79      -0.1231
     52  CA         2.5720   18.5100    0.4240 C.3    79  VAL79       0.1692
     53  C          1.2630   19.1060    0.9770 C.2    79  VAL79       0.2591
     54  O          0.5710   19.8360    0.2700 O.2    79  VAL79      -0.2718
     55  CB         2.3550   17.0470   -0.0190 C.3    79  VAL79       0.0266
     56  CG1        1.3110   16.9700   -1.1230 C.3    79  VAL79       0.0020
     57  CG2        3.6560   16.3910   -0.4720 C.3    79  VAL79       0.0020
     58  N          0.9480   18.8070    2.2540 N.am   80  MET80      -0.1979
     59  CA        -0.2340   19.3310    2.9370 C.3    80  MET80       0.1605
     60  C         -0.2850   20.8610    2.8520 C.2    80  MET80       0.2287
     61  O         -1.2960   21.3970    2.4180 O.2    80  MET80      -0.2864
     62  CB        -0.2290   18.9150    4.4030 C.3    80  MET80       0.0413
     63  CG        -1.0000   17.6870    4.6960 C.3    80  MET80       0.0598
     64  SD        -0.9520   17.4470    6.4800 S.3    80  MET80      -0.1393
     65  CE        -0.1340   15.8750    6.5590 C.3    80  MET80       0.0692
     66  N         -0.8330   22.2990   -0.8590 N.3    83  VAL83      -0.1231
     67  CA        -2.2280   22.2110   -1.2870 C.3    83  VAL83       0.1692
     68  C         -3.1400   23.1010   -0.4380 C.2    83  VAL83       0.2592
     69  O         -3.8820   23.9080   -0.9940 O.2    83  VAL83      -0.2718
     70  CB        -2.7060   20.7370   -1.3340 C.3    83  VAL83       0.0266
     71  CG1       -4.1720   20.6460   -1.7620 C.3    83  VAL83       0.0020
     72  CG2       -1.8210   19.9000   -2.2620 C.3    83  VAL83       0.0020
     73  N         -3.1010   22.9210    0.8960 N.am   84  PHE84      -0.1976
     74  CA        -3.9440   23.6050    1.8780 C.3    84  PHE84       0.1639
     75  C         -3.7230   25.1130    1.9880 C.2    84  PHE84       0.2290
     76  O         -4.7060   25.8300    2.1280 O.2    84  PHE84      -0.2864
     77  CB        -3.8110   22.9430    3.2600 C.3    84  PHE84       0.0560
     78  CG        -4.8800   23.2760    4.2710 C.ar   84  PHE84      -0.0200
     79  CD1       -6.2130   22.9540    4.0320 C.ar   84  PHE84      -0.0042
     80  CD2       -4.5510   23.8540    5.4850 C.ar   84  PHE84      -0.0042
     81  CE1       -7.1970   23.2250    4.9860 C.ar   84  PHE84      -0.0003
     82  CE2       -5.5390   24.1400    6.4340 C.ar   84  PHE84      -0.0003
     83  CZ        -6.8570   23.8340    6.1720 C.ar   84  PHE84      -0.0000
     84  N         -2.7150   27.1890   -0.3170 N.3    86  ASP86      -0.1239
     85  CA        -3.0240   27.8850   -1.5670 C.3    86  ASP86       0.1674
     86  C         -4.5290   28.1280   -1.6450 C.2    86  ASP86       0.2266
     87  O         -5.2950   27.1630   -1.6410 O.2    86  ASP86      -0.2867
     88  CB        -2.5420   27.0600   -2.7830 C.3    86  ASP86       0.1410
     89  CG        -3.0940   27.5280   -4.1250 C.2    86  ASP86       0.3668
     90  OD1       -2.8690   28.7040   -4.4840 O.co2  86  ASP86      -0.2456
     91  OD2       -3.7430   26.7170   -4.8130 O.co2  86  ASP86      -0.2456
     92  N        -12.8580   22.9630    3.3740 N.3    93  ARG93      -0.1245
     93  CA       -11.4590   22.5840    3.1120 C.3    93  ARG93       0.1563
     94  C        -10.8450   21.9040    4.3360 C.2    93  ARG93       0.2260
     95  O        -10.0380   20.9890    4.1790 O.2    93  ARG93      -0.2867
     96  CB       -10.6060   23.7920    2.6970 C.3    93  ARG93       0.0307
     97  CG       -10.9770   24.4020    1.3300 C.3    93  ARG93       0.0489
     98  CD        -9.7670   24.4380    0.4010 C.3    93  ARG93       0.2205
     99  NE        -8.9050   25.5800    0.6300 N.pl3  93  ARG93      -0.0865
    100  CZ        -7.6570   25.6890    0.1890 C.cat  93  ARG93       0.5346
    101  NH1       -7.0790   24.6780   -0.4540 N.pl3  93  ARG93       0.1354
    102  NH2       -6.9540   26.7790    0.4460 N.pl3  93  ARG93       0.1354
    103  N        -12.1640   18.4700    4.5350 N.3    96  THR96      -0.1203
    104  CA       -11.5040   17.7000    3.4650 C.3    96  THR96       0.1994
    105  C        -10.1100   17.2310    3.9170 C.2    96  THR96       0.2617
    106  O         -9.7730   16.0720    3.7190 O.2    96  THR96      -0.2717
    107  CB       -11.5120   18.4790    2.1310 C.3    96  THR96       0.1784
    108  OG1      -12.8670   18.8330    1.8220 O.3    96  THR96      -0.2211
    109  CG2      -10.9460   17.6580    0.9640 C.3    96  THR96       0.0376
    110  N         -9.3230   18.1320    4.5410 N.am   97  LEU97      -0.1979
    111  CA        -7.9790   17.8620    5.0870 C.3    97  LEU97       0.1596
    112  C         -8.0270   16.6890    6.0580 C.2    97  LEU97       0.2287
    113  O         -7.2470   15.7430    5.9340 O.2    97  LEU97      -0.2864
    114  CB        -7.4720   19.1260    5.8100 C.3    97  LEU97       0.0297
    115  CG        -6.0800   19.0460    6.5170 C.3    97  LEU97       0.0022
    116  CD1       -4.9240   19.1330    5.5070 C.3    97  LEU97       0.0001
    117  CD2       -5.9480   20.1300    7.5460 C.3    97  LEU97       0.0001
    118  N         -9.3850   13.3210    4.2970 N.3   100  PHE100     -0.1227
    119  CA        -8.3420   12.6670    3.5060 C.3   100  PHE100      0.1736
    120  C         -7.3210   12.0560    4.4700 C.2   100  PHE100      0.2596
    121  O         -6.7720   11.0000    4.1760 O.2   100  PHE100     -0.2718
    122  CB        -7.6470   13.6330    2.5280 C.3   100  PHE100      0.0547
    123  CG        -6.6720   12.9260    1.6120 C.ar  100  PHE100     -0.0202
    124  CD1       -7.0840   11.8640    0.8160 C.ar  100  PHE100     -0.0042
    125  CD2       -5.3450   13.3320    1.5340 C.ar  100  PHE100     -0.0042
    126  CE1       -6.1790   11.1900   -0.0030 C.ar  100  PHE100     -0.0003
    127  CE2       -4.4360   12.6590    0.7140 C.ar  100  PHE100     -0.0003
    128  CZ        -4.8590   11.5940   -0.0550 C.ar  100  PHE100     -0.0000
    129  N         -7.1370   12.6890    5.6330 N.am  101  GLY101     -0.1957
    130  CA        -6.2890   12.1700    6.6990 C.3   101  GLY101      0.1869
    131  C         -6.7200   10.7710    7.1240 C.2   101  GLY101      0.2309
    132  O         -5.8940    9.8680    7.2120 O.2   101  GLY101     -0.2863
    133  N         -6.0750    8.2720    4.3130 N.3   104  VAL104     -0.1245
    134  CA        -4.6440    7.9310    4.3560 C.3   104  VAL104      0.1561
    135  C         -4.3800    6.9730    5.5410 C.2   104  VAL104      0.2260
    136  O         -3.7000    5.9690    5.3500 O.2   104  VAL104     -0.2867
    137  CB        -3.7190    9.1840    4.3660 C.3   104  VAL104      0.0252
    138  CG1       -2.2460    8.7970    4.5490 C.3   104  VAL104      0.0019
    139  CG2       -3.8950    9.9900    3.0780 C.3   104  VAL104      0.0019
    140  N          0.8320   11.1970   11.7740 N.3   120  LEU120     -0.1245
    141  CA         0.0120   11.7900   10.7010 C.3   120  LEU120      0.1561
    142  C         -0.9900   12.7830   11.2970 C.2   120  LEU120      0.2260
    143  O         -1.0970   13.9100   10.8130 O.2   120  LEU120     -0.2867
    144  CB        -0.7240   10.7050    9.8880 C.3   120  LEU120      0.0270
    145  CG        -1.6320   11.1950    8.7410 C.3   120  LEU120      0.0019
    146  CD1       -0.8200   11.8890    7.6380 C.3   120  LEU120      0.0001
    147  CD2       -2.4380   10.0520    8.1680 C.3   120  LEU120      0.0001
    148  N         -1.2510   16.8990   10.6700 N.3   124  ILE124     -0.1245
    149  CA        -2.4750   17.5390   10.1780 C.3   124  ILE124      0.1561
    150  C         -2.8660   18.6520   11.1480 C.2   124  ILE124      0.2260
    151  O         -3.1800   19.7620   10.7100 O.2   124  ILE124     -0.2867
    152  CB        -3.6190   16.4910    9.9890 C.3   124  ILE124      0.0252
    153  CG1       -3.3070   15.5450    8.8060 C.3   124  ILE124      0.0019
    154  CG2       -4.9930   17.1800    9.7990 C.3   124  ILE124      0.0019
    155  CD1       -4.1420   14.1950    8.8440 C.3   124  ILE124      0.0001
@<TRIPOS>BOND
     1    11    12    1
     2    12    15    1
     3    12    13    1
     4    27    28    1
     5    14    13    2
     6    13    16   am
     7    91    89   ar
     8    28    29    1
     9    28    31    1
    10    90    89   ar
    11    35    36    1
    12    89    88    1
    13    33    34    1
    14    33    32    1
    15    29    30    2
    16    16    17    1
    17    31    32    1
    18     7     9   ar
    19     7     6   ar
    20     4     3    2
    21     9    10   ar
    22     3     2    1
    23    18    19    2
    24    18    17    1
    25     2     1    1
    26     2     5    1
    27    36    37    1
    28    36    39    1
    29    37    38    2
    30    88    85    1
    31    17    20    1
    32     6     5    1
    33     6     8   ar
    34    72    70    1
    35    10     8   ar
    36    71    70    1
    37    39    40    1
    38    86    87    2
    39    86    85    1
    40    85    84    1
    41    40    42    1
    42    40    41    1
    43    20    21    1
    44    70    67    1
    45    67    66    1
    46    67    68    1
    47    56    55    1
    48    22    21   ar
    49    22    24   ar
    50    69    68    2
    51    21    23   ar
    52    57    55    1
    53   101   100    1
    54    68    73   am
    55    24    26   ar
    56   128   126   ar
    57   128   127   ar
    58    55    52    1
    59   126   124   ar
    60   100   102    1
    61   100    99    2
    62    54    53    2
    63    98    99    1
    64    98    97    1
    65    52    53    1
    66    52    51    1
    67    23    25   ar
    68   127   125   ar
    69   124   123   ar
    70    73    74    1
    71    26    25   ar
    72   109   107    1
    73    53    58   am
    74    97    96    1
    75   125   123   ar
    76   123   122    1
    77   108   107    1
    78    74    75    1
    79    74    77    1
    80    75    76    2
    81   107   104    1
    82    58    59    1
    83    49    48    1
    84    61    60    2
    85   122   119    1
    86    96    93    1
    87    60    59    1
    88    59    62    1
    89   139   137    1
    90    93    92    1
    91    93    94    1
    92    77    78    1
    93   104   105    1
    94   104   103    1
    95   119   118    1
    96   119   120    1
    97    46    45    2
    98    48    50    1
    99    48    47    1
   100   106   105    2
   101    44    43    1
   102    44    45    1
   103    44    47    1
   104   105   110   am
   105    79    78   ar
   106    79    81   ar
   107   121   120    2
   108    95    94    2
   109    78    80   ar
   110   133   134    1
   111   134   137    1
   112   134   135    1
   113   137   138    1
   114    62    63    1
   115   120   129   am
   116   110   111    1
   117    63    64    1
   118    81    83   ar
   119   111   114    1
   120   111   112    1
   121   136   135    2
   122    80    82   ar
   123   116   115    1
   124   129   130    1
   125   114   115    1
   126   113   112    2
   127    83    82   ar
   128    64    65    1
   129   115   117    1
   130   130   131    1
   131   131   132    2
   132   146   145    1
   133   147   145    1
   134   145   144    1
   135   153   155    1
   136   153   152    1
   137   154   152    1
   138   144   141    1
   139   152   149    1
   140   149   148    1
   141   149   150    1
   142   141   142    1
   143   141   140    1
   144   151   150    2
   145   143   142    2
