@<TRIPOS>MOLECULE
tmp/6b4wA00.pdb
 222 207 0 0 0
SMALL
GASTEIGER

@<TRIPOS>ATOM
      1  N          6.5590   33.7750    0.7520 N.3    15  LYS15      -0.1245
      2  CA         6.8680   35.1210    1.1900 C.3    15  LYS15       0.1561
      3  C          7.0070   35.2130    2.7050 C.2    15  LYS15       0.2260
      4  O          6.6820   34.2700    3.4380 O.2    15  LYS15      -0.2867
      5  CB         5.8350   36.1300    0.6630 C.3    15  LYS15       0.0271
      6  CG         4.3960   36.0080    1.1790 C.3    15  LYS15       0.0035
      7  CD         3.5890   37.2620    0.8140 C.3    15  LYS15       0.0206
      8  CE         2.3950   37.5030    1.7290 C.3    15  LYS15       0.1093
      9  NZ         1.5870   36.2710    1.9420 N.3    15  LYS15      -0.1314
     10  N          5.7750   37.2140    6.0280 N.3    17  ILE17      -0.1231
     11  CA         4.4900   37.7870    6.4420 C.3    17  ILE17       0.1692
     12  C          4.4930   38.3980    7.8190 C.2    17  ILE17       0.2592
     13  O          3.4440   38.8360    8.2740 O.2    17  ILE17      -0.2718
     14  CB         3.3860   36.7180    6.3920 C.3    17  ILE17       0.0266
     15  CG1        3.5290   35.7110    7.5370 C.3    17  ILE17       0.0019
     16  CG2        3.4350   36.0120    5.0480 C.3    17  ILE17       0.0020
     17  CD1        2.8400   34.3710    7.3250 C.3    17  ILE17       0.0001
     18  N          5.6420   38.4080    8.4980 N.am   18  GLY18      -0.1957
     19  CA         5.7520   38.9900    9.8350 C.3    18  GLY18       0.1869
     20  C          7.1950   39.3250   10.1090 C.2    18  GLY18       0.2309
     21  O          8.0850   38.7270    9.5030 O.2    18  GLY18      -0.2863
     22  N          8.5740   35.8580   10.3120 N.3    25  VAL25      -0.1245
     23  CA         7.6910   34.7590    9.9660 C.3    25  VAL25       0.1561
     24  C          7.5650   34.6090    8.4350 C.2    25  VAL25       0.2260
     25  O          7.4600   35.5880    7.7060 O.2    25  VAL25      -0.2867
     26  CB         6.3050   34.9730   10.5520 C.3    25  VAL25       0.0252
     27  CG1        5.4870   33.6920   10.4600 C.3    25  VAL25       0.0019
     28  CG2        6.4270   35.4100   11.9820 C.3    25  VAL25       0.0019
     29  N          5.5050   32.3620    5.3580 N.3    27  GLN27      -0.1245
     30  CA         4.7060   31.3370    4.6820 C.3    27  GLN27       0.1566
     31  C          5.6880   30.4880    3.8690 C.2    27  GLN27       0.2260
     32  O          6.5470   31.0420    3.2050 O.2    27  GLN27      -0.2867
     33  CB         3.7280   32.0600    3.7730 C.3    27  GLN27       0.0367
     34  CG         2.7350   31.2410    2.9480 C.3    27  GLN27       0.0905
     35  CD         1.7330   32.1760    2.2560 C.2    27  GLN27       0.2608
     36  OE1        2.1170   33.2190    1.7130 O.2    27  GLN27      -0.2717
     37  NE2        0.4480   31.8530    2.3450 N.am   27  GLN27      -0.0878
     38  N          3.6600   27.9410    8.2330 N.3    37  ALA37      -0.1245
     39  CA         4.2710   29.1650    8.7060 C.3    37  ALA37       0.1562
     40  C          5.4920   28.7340    9.4690 C.2    37  ALA37       0.2260
     41  O          5.4460   27.7360   10.1920 O.2    37  ALA37      -0.2867
     42  CB         3.3130   29.9310    9.6000 C.3    37  ALA37       0.0290
     43  N          8.3480   30.4980   11.9990 N.3    39  LYS39      -0.1245
     44  CA         8.8700   31.6210   12.7420 C.3    39  LYS39       0.1561
     45  C         10.3360   31.3810   12.9280 C.2    39  LYS39       0.2260
     46  O         10.7250   30.3500   13.4540 O.2    39  LYS39      -0.2867
     47  CB         8.2160   31.7340   14.0980 C.3    39  LYS39       0.0271
     48  CG         8.7140   32.9190   14.8770 C.3    39  LYS39       0.0035
     49  CD         8.0950   32.9680   16.2400 C.3    39  LYS39       0.0206
     50  CE         8.3490   34.3190   16.8670 C.3    39  LYS39       0.1093
     51  NZ         7.3900   34.5500   17.9660 N.3    39  LYS39      -0.1314
     52  N          8.2540   30.4720   25.9300 N.3    57  GLU57      -0.1245
     53  CA         7.0590   30.4540   25.0220 C.3    57  GLU57       0.1567
     54  C          6.9930   29.1000   24.3220 C.2    57  GLU57       0.2260
     55  O          5.9290   28.5020   24.2860 O.2    57  GLU57      -0.2867
     56  CB         6.9790   31.6290   24.0050 C.3    57  GLU57       0.0388
     57  CG         5.7700   31.6000   23.1210 C.3    57  GLU57       0.1160
     58  CD         5.5900   32.7750   22.2110 C.2    57  GLU57       0.3649
     59  OE1        6.4430   33.6350   22.1580 O.co2  57  GLU57      -0.2457
     60  OE2        4.6700   32.8320   21.3800 O.co2  57  GLU57      -0.2457
     61  N          3.8590   26.8030   24.5770 N.3    61  LEU61      -0.1245
     62  CA         3.1410   26.6200   23.3060 C.3    61  LEU61       0.1561
     63  C          3.0210   25.1510   22.9450 C.2    61  LEU61       0.2260
     64  O          1.9830   24.7030   22.4780 O.2    61  LEU61      -0.2867
     65  CB         3.8340   27.3480   22.1440 C.3    61  LEU61       0.0270
     66  CG         2.9860   27.7940   20.9310 C.3    61  LEU61       0.0019
     67  CD1        3.8540   27.9260   19.6980 C.3    61  LEU61       0.0001
     68  CD2        1.8260   26.8890   20.5830 C.3    61  LEU61       0.0001
     69  N         -2.5780   27.8720   18.5080 N.3    72  ILE72      -0.1245
     70  CA        -1.9170   27.5660   17.2490 C.3    72  ILE72       0.1561
     71  C         -1.2240   26.2040   17.3240 C.2    72  ILE72       0.2260
     72  O         -0.7160   25.8190   18.3500 O.2    72  ILE72      -0.2867
     73  CB        -0.9040   28.6800   16.8500 C.3    72  ILE72       0.0252
     74  CG1       -0.5250   28.6150   15.3580 C.3    72  ILE72       0.0019
     75  CG2        0.3600   28.5970   17.7030 C.3    72  ILE72       0.0019
     76  CD1       -1.6570   28.9450   14.4100 C.3    72  ILE72       0.0001
     77  N         10.5260   27.6070   14.2230 N.3    86  MET86      -0.1245
     78  CA         9.2680   26.9820   14.6570 C.3    86  MET86       0.1570
     79  C          8.3370   26.8310   13.4640 C.2    86  MET86       0.2261
     80  O          7.9250   27.8270   12.8710 O.2    86  MET86      -0.2867
     81  CB         8.5660   27.8770   15.6740 C.3    86  MET86       0.0387
     82  CG         9.0930   27.7830   17.0860 C.3    86  MET86       0.0595
     83  SD         8.7630   29.2700   18.0600 S.3    86  MET86      -0.1393
     84  CE         7.0090   29.5710   17.8610 C.3    86  MET86       0.0692
     85  N          4.7050   25.7510   11.9370 N.3    88  MET88      -0.1230
     86  CA         3.3530   25.8240   12.4920 C.3    88  MET88       0.1702
     87  C          2.3460   25.8860   11.3730 C.2    88  MET88       0.2592
     88  O          2.7110   26.1970   10.2370 O.2    88  MET88      -0.2718
     89  CB         3.1920   27.0950   13.3350 C.3    88  MET88       0.0401
     90  CG         4.2110   27.2760   14.4360 C.3    88  MET88       0.0596
     91  SD         3.9760   28.8220   15.2860 S.3    88  MET88      -0.1393
     92  CE         5.0790   29.8710   14.3420 C.3    88  MET88       0.0692
     93  N          1.0710   25.6610   11.7080 N.am   89  GLU89      -0.1966
     94  CA        -0.0140   25.8110   10.7410 C.3    89  GLU89       0.1733
     95  C         -0.0800   27.2200   10.1920 C.2    89  GLU89       0.2616
     96  O          0.1130   28.1600   10.9240 O.2    89  GLU89      -0.2715
     97  CB        -1.3560   25.3750   11.3220 C.3    89  GLU89       0.0429
     98  CG        -1.9890   26.2260   12.4000 C.3    89  GLU89       0.1163
     99  CD        -3.2490   25.5570   12.9820 C.2    89  GLU89       0.3649
    100  OE1       -4.0590   24.9920   12.1920 O.co2  89  GLU89      -0.2457
    101  OE2       -3.4230   25.5690   14.2290 O.co2  89  GLU89      -0.2457
    102  N         -0.2780   27.3610    8.8800 N.am   90  CYS90      -0.1954
    103  CA        -0.3860   28.6950    8.2720 C.3    90  CYS90       0.1843
    104  C         -1.8260   29.1560    8.2940 C.2    90  CYS90       0.2626
    105  O         -2.7280   28.3800    8.0500 O.2    90  CYS90      -0.2714
    106  CB         0.1650   28.7360    6.8470 C.3    90  CYS90       0.0997
    107  SG         0.4730   30.4520    6.3650 S.3    90  CYS90      -0.0797
    108  N         -2.0420   30.4090    8.6320 N.am   91  GLY91      -0.1940
    109  CA        -3.3850   30.9690    8.6420 C.3    91  GLY91       0.2014
    110  C         -3.5430   31.8610    7.4530 C.2    91  GLY91       0.2639
    111  O         -2.5670   32.1630    6.7850 O.2    91  GLY91      -0.2714
    112  N         -4.7710   32.3050    7.2190 N.am   92  ASN92      -0.1958
    113  CA        -5.1080   33.1230    6.0610 C.3    92  ASN92       0.1819
    114  C         -4.7030   34.5840    6.3340 C.2    92  ASN92       0.2621
    115  O         -4.2350   35.2980    5.4360 O.2    92  ASN92      -0.2715
    116  CB        -6.6190   33.0200    5.6660 C.3    92  ASN92       0.1195
    117  CG        -7.2540   31.6580    5.9920 C.2    92  ASN92       0.2630
    118  OD1       -6.6240   30.5840    5.9250 O.2    92  ASN92      -0.2716
    119  ND2       -8.5160   31.7030    6.3820 N.am   92  ASN92      -0.0877
    120  N         -4.8450   35.0010    7.5840 N.am   93  ILE93      -0.1963
    121  CA        -4.6730   36.3900    7.9730 C.3    93  ILE93       0.1727
    122  C         -4.7960   36.5300    9.5150 C.2    93  ILE93       0.2616
    123  O         -5.3770   35.6780   10.1510 O.2    93  ILE93      -0.2715
    124  CB        -5.7250   37.2580    7.2320 C.3    93  ILE93       0.0290
    125  CG1       -5.5970   38.7370    7.6190 C.3    93  ILE93       0.0022
    126  CG2       -7.1420   36.7270    7.4680 C.3    93  ILE93       0.0023
    127  CD1       -6.1440   39.6770    6.5670 C.3    93  ILE93       0.0001
    128  N         -4.2190   37.5790   10.0930 N.am   94  ASP94      -0.1971
    129  CA        -4.3530   37.9020   11.5180 C.3    94  ASP94       0.1709
    130  C         -5.5980   38.7010   11.7210 C.2    94  ASP94       0.2293
    131  O         -5.9960   39.4430   10.8350 O.2    94  ASP94      -0.2864
    132  CB        -3.1740   38.7290   11.9830 C.3    94  ASP94       0.1436
    133  CG        -3.1690   40.1380   11.3820 C.2    94  ASP94       0.3671
    134  OD1       -2.7580   40.3060   10.1800 O.co2  94  ASP94      -0.2456
    135  OD2       -3.5850   41.0720   12.1270 O.co2  94  ASP94      -0.2456
    136  N         -5.8680   42.6790   10.7980 N.3    97  SER97      -0.1217
    137  CA        -5.8990   42.9980    9.3840 C.3    97  SER97       0.1889
    138  C         -7.2530   42.7410    8.8240 C.2    97  SER97       0.2288
    139  O         -7.7240   43.4560    7.9610 O.2    97  SER97      -0.2866
    140  CB        -4.8980   42.1420    8.6280 C.3    97  SER97       0.2089
    141  OG        -3.5800   42.3640    9.0800 O.3    97  SER97      -0.2183
    142  N        -10.1010   45.6400    7.1520 N.3   101  LYS101     -0.1245
    143  CA       -10.7840   45.3870    5.8670 C.3   101  LYS101      0.1561
    144  C        -12.2960   45.3750    6.0210 C.2   101  LYS101      0.2260
    145  O        -12.9920   46.0600    5.2940 O.2   101  LYS101     -0.2867
    146  CB       -10.3780   44.0300    5.2500 C.3   101  LYS101      0.0271
    147  CG        -8.9930   43.9950    4.6660 C.3   101  LYS101      0.0035
    148  CD        -8.5690   42.5920    4.2590 C.3   101  LYS101      0.0206
    149  CE        -7.0370   42.5270    4.1980 C.3   101  LYS101      0.1093
    150  NZ        -6.4910   41.4250    3.3540 N.3   101  LYS101     -0.1314
    151  N         -4.3490   41.3710   16.8490 N.3   137  ALA137     -0.1245
    152  CA        -3.2060   40.7740   16.1620 C.3   137  ALA137      0.1562
    153  C         -2.6920   39.5210   16.8540 C.2   137  ALA137      0.2260
    154  O         -2.0200   38.7010   16.2140 O.2   137  ALA137     -0.2867
    155  CB        -2.0920   41.7680   16.0400 C.3   137  ALA137      0.0290
    156  N         -5.1980   34.5330   15.0300 N.3   140  LEU140     -0.1245
    157  CA        -5.2160   34.2180   13.6000 C.3   140  LEU140      0.1561
    158  C         -6.5280   33.6080   13.1800 C.2   140  LEU140      0.2260
    159  O         -7.1290   32.8480   13.9310 O.2   140  LEU140     -0.2867
    160  CB        -4.2110   33.1470   13.2720 C.3   140  LEU140      0.0270
    161  CG        -2.8740   33.4610   12.6640 C.3   140  LEU140      0.0019
    162  CD1       -2.2860   32.1220   12.2480 C.3   140  LEU140      0.0001
    163  CD2       -2.9460   34.3660   11.4700 C.3   140  LEU140      0.0001
    164  N         -2.0290   33.1500   18.9640 N.3   149  ILE149     -0.1231
    165  CA        -0.6500   33.0040   18.4760 C.3   149  ILE149      0.1692
    166  C          0.3550   33.7800   19.3030 C.2   149  ILE149      0.2592
    167  O          1.5400   33.7040   19.0240 O.2   149  ILE149     -0.2718
    168  CB        -0.5000   33.3910   16.9810 C.3   149  ILE149      0.0266
    169  CG1       -0.9280   34.8450   16.7150 C.3   149  ILE149      0.0019
    170  CG2       -1.3210   32.4580   16.1010 C.3   149  ILE149      0.0020
    171  CD1       -0.1540   35.5200   15.5980 C.3   149  ILE149      0.0001
    172  N         -0.0820   34.5150   20.3270 N.am  150  ASP150     -0.1960
    173  CA         0.8720   34.9800   21.3100 C.3   150  ASP150      0.1840
    174  C          0.3780   34.9530   22.7830 C.2   150  ASP150      0.2622
    175  O         -0.8050   34.9640   23.0570 O.2   150  ASP150     -0.2715
    176  CB         1.5130   36.2830   20.8050 C.3   150  ASP150      0.1450
    177  CG         1.4050   37.4160   21.7670 C.2   150  ASP150      0.3671
    178  OD1        0.2770   37.6760   22.2220 O.co2 150  ASP150     -0.2456
    179  OD2        2.4300   38.0910   22.0140 O.co2 150  ASP150     -0.2456
    180  N          1.3200   34.8250   23.7130 N.am  151  PHE151     -0.1974
    181  CA         1.0180   34.4390   25.1000 C.3   151  PHE151      0.1639
    182  C          1.5030   35.4610   26.1110 C.2   151  PHE151      0.2290
    183  O          1.4130   35.2200   27.2940 O.2   151  PHE151     -0.2864
    184  CB         1.6120   33.0440   25.3640 C.3   151  PHE151      0.0560
    185  CG         1.1250   32.0180   24.3810 C.ar  151  PHE151     -0.0200
    186  CD1        1.5850   32.0260   23.0670 C.ar  151  PHE151     -0.0042
    187  CD2        0.1360   31.1190   24.7210 C.ar  151  PHE151     -0.0042
    188  CE1        1.0830   31.1440   22.1200 C.ar  151  PHE151     -0.0003
    189  CE2       -0.3590   30.2220   23.7780 C.ar  151  PHE151     -0.0003
    190  CZ         0.1100   30.2400   22.4760 C.ar  151  PHE151     -0.0000
    191  N          4.8290   40.5670   17.7480 N.3   157  MET157     -0.1230
    192  CA         5.2510   40.4400   16.3430 C.3   157  MET157      0.1702
    193  C          4.3200   41.2180   15.4160 C.2   157  MET157      0.2592
    194  O          3.0980   41.1760   15.5980 O.2   157  MET157     -0.2718
    195  CB         5.2110   38.9530   15.9620 C.3   157  MET157      0.0401
    196  CG         6.4550   38.1720   16.3550 C.3   157  MET157      0.0596
    197  SD         7.4540   37.5270   14.9830 S.3   157  MET157     -0.1393
    198  CE         7.1710   38.6850   13.6530 C.3   157  MET157      0.0692
    199  N          4.8840   41.9000   14.4090 N.am  158  GLN158     -0.1966
    200  CA         4.1000   42.8340   13.5470 C.3   158  GLN158      0.1721
    201  C          3.7190   42.2000   12.2170 C.2   158  GLN158      0.2496
    202  O          4.5960   41.6980   11.5200 O.2   158  GLN158     -0.2727
    203  CB         4.8790   44.1350   13.2690 C.3   158  GLN158      0.0407
    204  CG         4.6940   45.2200   14.3190 C.3   158  GLN158      0.0908
    205  CD         4.9590   44.7290   15.7420 C.2   158  GLN158      0.2608
    206  OE1        5.8970   43.9610   15.9880 O.2   158  GLN158     -0.2717
    207  NE2        4.1260   45.1640   16.6840 N.am  158  GLN158     -0.0878
    208  N          2.4130   42.2300   11.8520 N.am  159  PRO159     -0.2490
    209  CA         2.0300   41.7330   10.5010 C.3   159  PRO159      0.1619
    210  C          2.5910   42.6140    9.3720 C.2   159  PRO159      0.2605
    211  O          2.3360   43.8110    9.3500 O.2   159  PRO159     -0.2715
    212  CB         0.4790   41.7540   10.5060 C.3   159  PRO159      0.0570
    213  CG         0.0450   42.3120   11.8320 C.2   159  PRO159     -0.0077
    214  CD         1.2470   42.5670   12.7050 C.2   159  PRO159      0.0634
    215  N          3.3620   42.0230    8.4610 N.am  160  ASP160     -0.1972
    216  CA         3.9010   42.7530    7.2940 C.3   160  ASP160      0.1709
    217  C          2.7880   43.0760    6.2930 C.2   160  ASP160      0.2293
    218  O          2.6390   44.2220    5.8720 O.2   160  ASP160     -0.2864
    219  CB         5.0110   41.9390    6.5880 C.3   160  ASP160      0.1436
    220  CG         6.3330   41.9010    7.3770 C.2   160  ASP160      0.3671
    221  OD1        6.4090   42.4230    8.5130 O.co2 160  ASP160     -0.2456
    222  OD2        7.3080   41.3390    6.8400 O.co2 160  ASP160     -0.2456
@<TRIPOS>BOND
     1     5     6    1
     2     5     2    1
     3     1     2    1
     4     7     6    1
     5     7     8    1
     6     2     3    1
     7    36    35    2
     8     8     9    1
     9    35    37   am
    10    35    34    1
    11     3     4    2
    12    34    33    1
    13    32    31    2
    14   150   149    1
    15    33    30    1
    16    31    30    1
    17   149   148    1
    18   148   147    1
    19   147   146    1
    20    30    29    1
    21    16    14    1
    22   146   143    1
    23   145   144    2
    24   115   114    2
    25   116   117    1
    26   116   113    1
    27   143   144    1
    28   143   142    1
    29   218   217    2
    30   118   117    2
    31   117   119   am
    32    10    11    1
    33   113   114    1
    34   113   112    1
    35   217   216    1
    36   114   120   am
    37   107   106    1
    38    14    11    1
    39    14    15    1
    40    11    12    1
    41   127   125    1
    42   219   216    1
    43   219   220    1
    44   111   110    2
    45   222   220   ar
    46   106   103    1
    47   112   110   am
    48   124   126    1
    49   124   125    1
    50   124   121    1
    51   216   215    1
    52    17    15    1
    53   220   221   ar
    54   110   109    1
    55   120   121    1
    56    25    24    2
    57    12    13    2
    58    12    18   am
    59   139   138    2
    60   121   122    1
    61   105   104    2
    62    38    39    1
    63   103   104    1
    64   103   102    1
    65   104   108   am
    66    24    23    1
    67   215   210   am
    68    18    19    1
    69   140   141    1
    70   140   137    1
    71   108   109    1
    72    39    40    1
    73    39    42    1
    74   138   137    1
    75   102    95   am
    76   211   210    2
    77   210   209    1
    78   137   136    1
    79    40    41    2
    80    21    20    2
    81   122   128   am
    82   122   123    2
    83    19    20    1
    84    23    22    1
    85    23    26    1
    86   128   129    1
    87   134   133   ar
    88    95    94    1
    89    95    96    2
    90    88    87    2
    91    27    26    1
    92   209   212    1
    93   209   208    1
    94   212   213    1
    95    26    28    1
    96    94    97    1
    97    94    93    1
    98   131   130    2
    99    97    98    1
   100    87    93   am
   101    87    86    1
   102   133   132    1
   103   133   135   ar
   104   163   161    1
   105   129   130    1
   106   129   132    1
   107   202   201    2
   108   213   214    2
   109   208   201   am
   110   208   214    1
   111    85    86    1
   112    43    44    1
   113   100    99   ar
   114   201   200    1
   115   162   161    1
   116    98    99    1
   117    86    89    1
   118   161   160    1
   119    44    45    1
   120    44    47    1
   121    80    79    2
   122    45    46    2
   123    99   101   ar
   124   158   157    1
   125   158   159    2
   126   203   200    1
   127   203   204    1
   128   160   157    1
   129    89    90    1
   130    79    78    1
   131   200   199    1
   132   157   156    1
   133   198   197    1
   134    47    48    1
   135    77    78    1
   136   204   205    1
   137    92    91    1
   138   199   193   am
   139    76    74    1
   140    90    91    1
   141    78    81    1
   142    48    49    1
   143   197   196    1
   144    74    73    1
   145   193   194    2
   146   193   192    1
   147   171   169    1
   148    81    82    1
   149   205   206    2
   150   205   207   am
   151   195   192    1
   152   195   196    1
   153   155   152    1
   154   170   168    1
   155   152   151    1
   156   152   153    1
   157   154   153    2
   158    49    50    1
   159   192   191    1
   160   169   168    1
   161    73    70    1
   162    73    75    1
   163    50    51    1
   164   168   165    1
   165    82    83    1
   166    70    71    1
   167    70    69    1
   168    71    72    2
   169    84    83    1
   170   165   164    1
   171   165   166    1
   172   167   166    2
   173   166   172   am
   174    67    66    1
   175   172   173    1
   176    68    66    1
   177   176   173    1
   178   176   177    1
   179    66    65    1
   180   173   174    1
   181    60    58   ar
   182   177   179   ar
   183   177   178   ar
   184   188   190   ar
   185   188   186   ar
   186    65    62    1
   187    59    58   ar
   188    58    57    1
   189   190   189   ar
   190    64    63    2
   191   174   175    2
   192   174   180   am
   193    63    62    1
   194   186   185   ar
   195    57    56    1
   196    62    61    1
   197   180   181    1
   198   189   187   ar
   199    56    53    1
   200    55    54    2
   201    54    53    1
   202   185   187   ar
   203   185   184    1
   204    53    52    1
   205   181   184    1
   206   181   182    1
   207   182   183    2
