@<TRIPOS>MOLECULE
tmp/6b4zA01.pdb
 138 131 0 0 0
SMALL
GASTEIGER

@<TRIPOS>ATOM
      1  N        118.1330    9.0720   15.9350 N.3    40  MET40      -0.1230
      2  CA       117.0210   10.0170   16.0220 C.3    40  MET40       0.1702
      3  C        116.5570   10.1380   17.4750 C.2    40  MET40       0.2592
      4  O        116.1330   11.2030   17.9090 O.2    40  MET40      -0.2718
      5  CB       115.8560    9.6070   15.1190 C.3    40  MET40       0.0401
      6  CG       114.7320   10.6330   15.0750 C.3    40  MET40       0.0596
      7  SD       115.2370   12.2360   14.4080 S.3    40  MET40      -0.1393
      8  CE       114.9890   11.9720   12.6540 C.3    40  MET40       0.0692
      9  N        116.6730    9.0500   18.2310 N.am   41  PHE41      -0.1976
     10  CA       116.3400    9.0660   19.6530 C.3    41  PHE41       0.1639
     11  C        117.2030   10.0530   20.4400 C.2    41  PHE41       0.2290
     12  O        116.7540   10.6150   21.4360 O.2    41  PHE41      -0.2864
     13  CB       116.4840    7.6660   20.2480 C.3    41  PHE41       0.0560
     14  CG       115.2640    6.8060   20.0790 C.ar   41  PHE41      -0.0200
     15  CD1      114.5870    6.7640   18.8720 C.ar   41  PHE41      -0.0042
     16  CD2      114.8020    6.0290   21.1280 C.ar   41  PHE41      -0.0042
     17  CE1      113.4660    5.9660   18.7180 C.ar   41  PHE41      -0.0003
     18  CE2      113.6860    5.2280   20.9790 C.ar   41  PHE41      -0.0003
     19  CZ       113.0170    5.1980   19.7740 C.ar   41  PHE41      -0.0000
     20  N        115.3600   13.3110   19.7480 N.3    44  ILE44      -0.1231
     21  CA       114.0580   13.3600   20.4090 C.3    44  ILE44       0.1692
     22  C        114.1620   13.5290   21.9220 C.2    44  ILE44       0.2592
     23  O        113.4410   14.3340   22.5180 O.2    44  ILE44      -0.2718
     24  CB       113.2430   12.0870   20.1050 C.3    44  ILE44       0.0266
     25  CG1      112.8430   12.0560   18.6290 C.3    44  ILE44       0.0019
     26  CG2      112.0080   12.0010   20.9970 C.3    44  ILE44       0.0020
     27  CD1      112.3280   10.7080   18.1660 C.3    44  ILE44       0.0001
     28  N        115.0710   12.7860   22.5440 N.am   45  PHE45      -0.1976
     29  CA       115.1100   12.7340   23.9990 C.3    45  PHE45       0.1639
     30  C        116.2200   13.5740   24.6310 C.2    45  PHE45       0.2290
     31  O        116.1780   13.8430   25.8310 O.2    45  PHE45      -0.2864
     32  CB       115.2270   11.2790   24.4580 C.3    45  PHE45       0.0560
     33  CG       114.0480   10.4360   24.0700 C.ar   45  PHE45      -0.0200
     34  CD1      112.8670   10.5030   24.7910 C.ar   45  PHE45      -0.0042
     35  CD2      114.1120    9.5890   22.9760 C.ar   45  PHE45      -0.0042
     36  CE1      111.7720    9.7360   24.4350 C.ar   45  PHE45      -0.0003
     37  CE2      113.0220    8.8200   22.6110 C.ar   45  PHE45      -0.0003
     38  CZ       111.8470    8.8940   23.3400 C.ar   45  PHE45      -0.0000
     39  N        105.5320    2.8160   12.4310 N.3   126  VAL126     -0.1231
     40  CA       106.2780    3.6650   13.3520 C.3   126  VAL126      0.1692
     41  C        106.6670    5.0230   12.7740 C.2   126  VAL126      0.2591
     42  O        106.4640    6.0570   13.4080 O.2   126  VAL126     -0.2718
     43  CB       107.5640    2.9490   13.8220 C.3   126  VAL126      0.0266
     44  CG1      108.3910    3.8540   14.7360 C.3   126  VAL126      0.0020
     45  CG2      107.2170    1.6340   14.5180 C.3   126  VAL126      0.0020
     46  N        107.2280    5.0150   11.5710 N.am  127  VAL127     -0.1980
     47  CA       107.8620    6.2090   11.0240 C.3   127  VAL127      0.1595
     48  C        107.0060    6.9100    9.9820 C.2   127  VAL127      0.2287
     49  O        106.8750    8.1360    9.9850 O.2   127  VAL127     -0.2864
     50  CB       109.2270    5.8640   10.3890 C.3   127  VAL127      0.0276
     51  CG1      109.8620    7.1030    9.7720 C.3   127  VAL127      0.0022
     52  CG2      110.1470    5.2480   11.4260 C.3   127  VAL127      0.0022
     53  N        100.0700    8.2670   16.6450 N.3   139  ILE139     -0.1245
     54  CA       101.4890    8.5980   16.6220 C.3   139  ILE139      0.1561
     55  C        101.6930   10.0800   16.8980 C.2   139  ILE139      0.2260
     56  O        102.5070   10.4600   17.7390 O.2   139  ILE139     -0.2867
     57  CB       102.1350    8.2430   15.2690 C.3   139  ILE139      0.0252
     58  CG1      102.2340    6.7260   15.1020 C.3   139  ILE139      0.0019
     59  CG2      103.5110    8.8770   15.1540 C.3   139  ILE139      0.0019
     60  CD1      102.8660    6.3010   13.7930 C.3   139  ILE139      0.0001
     61  N        103.4240   11.8810   20.0970 N.3   143  ASP143     -0.1239
     62  CA       104.6430   12.6370   19.8290 C.3   143  ASP143      0.1674
     63  C        104.5610   14.0570   20.3790 C.2   143  ASP143      0.2266
     64  O        105.5790   14.6340   20.7560 O.2   143  ASP143     -0.2867
     65  CB       104.9390   12.6840   18.3290 C.3   143  ASP143      0.1410
     66  CG       105.5010   11.3740   17.8000 C.2   143  ASP143      0.3668
     67  OD1      105.9310   10.5250   18.6140 O.co2 143  ASP143     -0.2456
     68  OD2      105.5210   11.1980   16.5650 O.co2 143  ASP143     -0.2456
     69  N        105.8970   14.3080   23.6820 N.3   146  LEU146     -0.1245
     70  CA       107.3580   14.3470   23.6860 C.3   146  LEU146      0.1561
     71  C        107.9130   15.7170   23.3040 C.2   146  LEU146      0.2260
     72  O        109.1230   15.9370   23.3510 O.2   146  LEU146     -0.2867
     73  CB       107.9190   13.2880   22.7340 C.3   146  LEU146      0.0270
     74  CG       107.6340   11.8240   23.0700 C.3   146  LEU146      0.0019
     75  CD1      108.2600   10.9020   22.0280 C.3   146  LEU146      0.0001
     76  CD2      108.1440   11.4870   24.4640 C.3   146  LEU146      0.0001
     77  N        107.4220   17.0430   20.2840 N.3   148  LEU148     -0.1245
     78  CA       107.7150   16.9890   18.8570 C.3   148  LEU148      0.1561
     79  C        106.6180   17.6540   18.0330 C.2   148  LEU148      0.2260
     80  O        105.4470   17.2980   18.1460 O.2   148  LEU148     -0.2867
     81  CB       107.8910   15.5370   18.4080 C.3   148  LEU148      0.0270
     82  CG       109.0040   14.7490   19.1000 C.3   148  LEU148      0.0019
     83  CD1      108.9950   13.2970   18.6310 C.3   148  LEU148      0.0001
     84  CD2      110.3580   15.3930   18.8360 C.3   148  LEU148      0.0001
     85  N        109.7150   18.2910   13.4290 N.3   152  PHE152     -0.1227
     86  CA       110.2600   16.9520   13.5930 C.3   152  PHE152      0.1736
     87  C        109.9040   16.0840   12.3920 C.2   152  PHE152      0.2595
     88  O        110.7530   15.3860   11.8470 O.2   152  PHE152     -0.2718
     89  CB       109.7490   16.2940   14.8750 C.3   152  PHE152      0.0547
     90  CG       110.0560   14.8230   14.9510 C.ar  152  PHE152     -0.0202
     91  CD1      111.3440   14.3880   15.2180 C.ar  152  PHE152     -0.0042
     92  CD2      109.0650   13.8790   14.7370 C.ar  152  PHE152     -0.0042
     93  CE1      111.6380   13.0420   15.2780 C.ar  152  PHE152     -0.0003
     94  CE2      109.3500   12.5270   14.7990 C.ar  152  PHE152     -0.0003
     95  CZ       110.6400   12.1070   15.0700 C.ar  152  PHE152     -0.0000
     96  N        108.6410   16.1330   11.9810 N.am  153  TYR153     -0.1976
     97  CA       108.1870   15.3280   10.8530 C.3   153  TYR153      0.1639
     98  C        108.8290   15.7960    9.5560 C.2   153  TYR153      0.2290
     99  O        109.1360   14.9860    8.6830 O.2   153  TYR153     -0.2864
    100  CB       106.6640   15.3690   10.7450 C.3   153  TYR153      0.0560
    101  CG       105.9890   14.7800   11.9550 C.ar  153  TYR153     -0.0198
    102  CD1      106.1990   13.4520   12.3090 C.ar  153  TYR153     -0.0009
    103  CD2      105.1570   15.5490   12.7540 C.ar  153  TYR153     -0.0009
    104  CE1      105.5940   12.9060   13.4210 C.ar  153  TYR153      0.0417
    105  CE2      104.5450   15.0120   13.8670 C.ar  153  TYR153      0.0417
    106  CZ       104.7650   13.6910   14.1950 C.ar  153  TYR153      0.1957
    107  OH       104.1560   13.1530   15.3040 O.3   153  TYR153     -0.2866
    108  N        106.8630    0.3110   20.1670 N.3   231  MET231     -0.1245
    109  CA       106.5590    1.6880   19.7970 C.3   231  MET231      0.1570
    110  C        105.0660    1.9620   19.9030 C.2   231  MET231      0.2261
    111  O        104.6540    3.0480   20.2990 O.2   231  MET231     -0.2867
    112  CB       107.0600    1.9870   18.3830 C.3   231  MET231      0.0387
    113  CG       108.5700    2.1700   18.2920 C.3   231  MET231      0.0595
    114  SD       109.1420    3.6430   19.1670 S.3   231  MET231     -0.1393
    115  CE       109.7150    2.9560   20.7030 C.3   231  MET231      0.0692
    116  N        104.4860    2.3880   23.5660 N.3   234  LEU234     -0.1231
    117  CA       104.9910    3.6830   24.0160 C.3   234  LEU234      0.1693
    118  C        104.0510    4.8170   23.6080 C.2   234  LEU234      0.2592
    119  O        103.7420    5.6980   24.4090 O.2   234  LEU234     -0.2718
    120  CB       106.3950    3.9390   23.4640 C.3   234  LEU234      0.0284
    121  CG       106.9860    5.3180   23.7680 C.3   234  LEU234      0.0019
    122  CD1      107.1170    5.5380   25.2680 C.3   234  LEU234      0.0001
    123  CD2      108.3270    5.4930   23.0760 C.3   234  LEU234      0.0001
    124  N        103.5960    4.7850   22.3600 N.am  235  THR235     -0.1953
    125  CA       102.6470    5.7780   21.8690 C.3   235  THR235      0.1897
    126  C        101.3780    5.7860   22.7210 C.2   235  THR235      0.2313
    127  O        100.9170    6.8410   23.1580 O.2   235  THR235     -0.2863
    128  CB       102.2840    5.5170   20.3950 C.3   235  THR235      0.1794
    129  OG1      103.4220    5.8040   19.5720 O.3   235  THR235     -0.2208
    130  CG2      101.1160    6.3920   19.9600 C.3   235  THR235      0.0378
    131  N        102.0960    7.1510   26.2670 N.3   238  LEU238     -0.1245
    132  CA       102.2880    8.6010   26.2440 C.3   238  LEU238      0.1561
    133  C        100.9430    9.3160   26.1870 C.2   238  LEU238      0.2260
    134  O        100.7320   10.3180   26.8690 O.2   238  LEU238     -0.2867
    135  CB       103.1550    9.0220   25.0530 C.3   238  LEU238      0.0270
    136  CG       104.6530    8.7150   25.1320 C.3   238  LEU238      0.0019
    137  CD1      105.3160    8.8960   23.7690 C.3   238  LEU238      0.0001
    138  CD2      105.3250    9.5950   26.1700 C.3   238  LEU238      0.0001
@<TRIPOS>BOND
     1    99    98    2
     2    98    97    1
     3    51    50    1
     4    48    49    2
     5    48    47    1
     6    50    47    1
     7    50    52    1
     8   100    97    1
     9   100   101    1
    10    97    96    1
    11    47    46    1
    12    46    41   am
    13    88    87    2
    14   101   102   ar
    15   101   103   ar
    16    96    87   am
    17   102   104   ar
    18    87    86    1
    19    39    40    1
    20     8     7    1
    21   103   105   ar
    22    41    40    1
    23    41    42    2
    24    40    43    1
    25   104   106   ar
    26    85    86    1
    27    86    89    1
    28    60    58    1
    29    43    45    1
    30    43    44    1
    31   105   106   ar
    32   106   107    1
    33     7     6    1
    34    92    94   ar
    35    92    90   ar
    36    94    95   ar
    37    89    90    1
    38    90    91   ar
    39    95    93   ar
    40     6     5    1
    41    58    57    1
    42     5     2    1
    43    59    57    1
    44    91    93   ar
    45    57    54    1
    46     1     2    1
    47     2     3    1
    48    68    66   ar
    49    54    53    1
    50    54    55    1
    51    55    56    2
    52     3     4    2
    53     3     9   am
    54    66    65    1
    55    66    67   ar
    56    79    80    2
    57    79    78    1
    58    27    25    1
    59     9    10    1
    60   113   112    1
    61   113   114    1
    62    65    62    1
    63   112   109    1
    64    81    78    1
    65    81    82    1
    66    25    24    1
    67    83    82    1
    68    17    15   ar
    69    17    19   ar
    70    84    82    1
    71    78    77    1
    72    15    14   ar
    73   114   115    1
    74   129   128    1
    75    10    13    1
    76    10    11    1
    77    20    21    1
    78    19    18   ar
    79   109   110    1
    80   109   108    1
    81    62    61    1
    82    62    63    1
    83   110   111    2
    84   130   128    1
    85    14    13    1
    86    14    16   ar
    87    24    21    1
    88    24    26    1
    89    63    64    2
    90   128   125    1
    91    21    22    1
    92    11    12    2
    93    18    16   ar
    94   125   124    1
    95   125   126    1
    96    22    23    2
    97    22    28   am
    98    75    74    1
    99   124   118   am
   100    28    29    1
   101    37    35   ar
   102    37    38   ar
   103   126   127    2
   104    73    74    1
   105    73    70    1
   106    35    33   ar
   107    74    76    1
   108   123   121    1
   109    71    72    2
   110    71    70    1
   111    38    36   ar
   112   120   121    1
   113   120   117    1
   114   116   117    1
   115   118   117    1
   116   118   119    2
   117    69    70    1
   118   121   122    1
   119   137   136    1
   120    29    32    1
   121    29    30    1
   122    33    32    1
   123    33    34   ar
   124    36    34   ar
   125    30    31    2
   126   135   136    1
   127   135   132    1
   128   136   138    1
   129   133   132    1
   130   133   134    2
   131   132   131    1
