@<TRIPOS>MOLECULE
tmp/6b50A01.pdb
 207 197 0 0 0
SMALL
GASTEIGER

@<TRIPOS>ATOM
      1  N        116.4020    3.9300    8.8130 N.3    18  PRO18      -0.2102
      2  CA       115.5460    3.6500    9.9680 C.3    18  PRO18       0.1504
      3  C        114.7900    2.3240    9.8290 C.2    18  PRO18       0.2575
      4  O        114.5040    1.9040    8.7050 O.2    18  PRO18      -0.2718
      5  CB       114.5630    4.8360    9.9920 C.3    18  PRO18       0.0282
      6  CG       114.8400    5.6380    8.7750 C.3    18  PRO18       0.0208
      7  CD       116.2030    5.2960    8.2920 C.3    18  PRO18       0.0893
      8  N        114.5440    1.6710   10.9690 N.am   19  ARG19      -0.1980
      9  CA       113.8180    0.4050   11.0740 C.3    19  ARG19       0.1597
     10  C        114.6510   -0.7780   10.5790 C.2    19  ARG19       0.2287
     11  O        114.0880   -1.7820   10.1220 O.2    19  ARG19      -0.2864
     12  CB       112.4650    0.4450   10.3160 C.3    19  ARG19       0.0334
     13  CG       111.5520    1.6160   10.6770 C.3    19  ARG19       0.0492
     14  CD       111.4730    1.8550   12.1870 C.3    19  ARG19       0.2205
     15  NE       110.8100    0.7550   12.8890 N.pl3  19  ARG19      -0.0865
     16  CZ       110.7540    0.6400   14.2120 C.cat  19  ARG19       0.5346
     17  NH1      111.3360    1.5590   14.9850 N.pl3  19  ARG19       0.1354
     18  NH2      110.1290   -0.3930   14.7620 N.pl3  19  ARG19       0.1354
     19  N        118.7220    0.0730   14.0170 N.3    22  THR22      -0.1218
     20  CA       119.6800    1.1560   14.3020 C.3    22  THR22       0.1862
     21  C        119.7370    1.4800   15.7920 C.2    22  THR22       0.2287
     22  O        120.7900    1.7940   16.3110 O.2    22  THR22      -0.2866
     23  CB       119.3560    2.4520   13.5280 C.3    22  THR22       0.1770
     24  OG1      118.0650    2.9410   13.9070 O.3    22  THR22      -0.2211
     25  CG2      119.3670    2.2110   12.0440 C.3    22  THR22       0.0375
     26  N        121.8470    9.1130   17.0040 N.3    39  HIS39      -0.1226
     27  CA       120.6490    8.3950   16.5600 C.3    39  HIS39       0.1752
     28  C        119.5150    9.4160   16.5560 C.2    39  HIS39       0.2596
     29  O        119.6260   10.4370   17.2160 O.2    39  HIS39      -0.2718
     30  CB       120.3210    7.2230   17.4920 C.3    39  HIS39       0.0759
     31  CG       119.2320    6.3210   16.9920 C.ar   39  HIS39       0.0818
     32  ND1      117.8940    6.5790   17.2130 N.ar   39  HIS39      -0.2268
     33  CD2      119.2810    5.1510   16.3100 C.ar   39  HIS39       0.1154
     34  CE1      117.1660    5.6170   16.6730 C.ar   39  HIS39       0.1986
     35  NE2      117.9790    4.7310   16.1250 N.ar   39  HIS39      -0.2212
     36  N        118.4320    9.1620   15.8340 N.am   40  MET40      -0.1965
     37  CA       117.3130   10.1050   15.8920 C.3    40  MET40       0.1736
     38  C        116.8410   10.2500   17.3410 C.2    40  MET40       0.2616
     39  O        116.4340   11.3250   17.7610 O.2    40  MET40      -0.2715
     40  CB       116.1610    9.6690   14.9930 C.3    40  MET40       0.0427
     41  CG       114.9880   10.6600   14.9660 C.3    40  MET40       0.0599
     42  SD       115.4480   12.2920   14.3250 S.3    40  MET40      -0.1393
     43  CE       115.4250   12.0320   12.5500 C.3    40  MET40       0.0692
     44  N        116.9240    9.1810   18.1200 N.am   41  PHE41      -0.1974
     45  CA       116.4950    9.2740   19.5210 C.3    41  PHE41       0.1639
     46  C        117.3080   10.2860   20.3240 C.2    41  PHE41       0.2290
     47  O        116.8250   10.8370   21.3100 O.2    41  PHE41      -0.2864
     48  CB       116.5670    7.9110   20.2030 C.3    41  PHE41       0.0560
     49  CG       115.3820    7.0250   19.9080 C.ar   41  PHE41      -0.0200
     50  CD1      114.7290    7.1020   18.6870 C.ar   41  PHE41      -0.0042
     51  CD2      114.9140    6.1320   20.8570 C.ar   41  PHE41      -0.0042
     52  CE1      113.6430    6.2960   18.4180 C.ar   41  PHE41      -0.0003
     53  CE2      113.8200    5.3100   20.5850 C.ar   41  PHE41      -0.0003
     54  CZ       113.1920    5.3960   19.3710 C.ar   41  PHE41      -0.0000
     55  N        115.5350   13.5570   19.5630 N.3    44  ILE44      -0.1231
     56  CA       114.2190   13.6160   20.1870 C.3    44  ILE44       0.1692
     57  C        114.2790   13.7770   21.7040 C.2    44  ILE44       0.2592
     58  O        113.5020   14.5300   22.2860 O.2    44  ILE44      -0.2718
     59  CB       113.4080   12.3660   19.8470 C.3    44  ILE44       0.0266
     60  CG1      113.0860   12.3530   18.3490 C.3    44  ILE44       0.0019
     61  CG2      112.1290   12.2990   20.6790 C.3    44  ILE44       0.0020
     62  CD1      112.5170   11.0340   17.8530 C.3    44  ILE44       0.0001
     63  N        115.2190   13.1020   22.3480 N.am   45  PHE45      -0.1976
     64  CA       115.1980   13.0470   23.8000 C.3    45  PHE45       0.1639
     65  C        116.2600   13.9160   24.4750 C.2    45  PHE45       0.2290
     66  O        116.0860   14.3130   25.6200 O.2    45  PHE45      -0.2864
     67  CB       115.3140   11.5870   24.2470 C.3    45  PHE45       0.0560
     68  CG       114.1550   10.7380   23.8010 C.ar   45  PHE45      -0.0200
     69  CD1      112.9280   10.8280   24.4450 C.ar   45  PHE45      -0.0042
     70  CD2      114.2740    9.8810   22.7150 C.ar   45  PHE45      -0.0042
     71  CE1      111.8450   10.0590   24.0290 C.ar   45  PHE45      -0.0003
     72  CE2      113.1950    9.1110   22.2860 C.ar   45  PHE45      -0.0003
     73  CZ       111.9800    9.2040   22.9420 C.ar   45  PHE45      -0.0000
     74  N        121.3030    5.9770   11.9380 N.3    86  ASP86      -0.1225
     75  CA       119.9390    6.4530   11.6920 C.3    86  ASP86       0.1805
     76  C        119.8770    7.8010   10.9550 C.2    86  ASP86       0.2597
     77  O        120.9000    8.4580   10.7630 O.2    86  ASP86      -0.2718
     78  CB       119.2050    6.5480   13.0340 C.3    86  ASP86       0.1424
     79  CG       117.6990    6.6120   12.8860 C.2    86  ASP86       0.3668
     80  OD1      117.1720    6.3720   11.7780 O.co2  86  ASP86      -0.2456
     81  OD2      117.0460    6.8920   13.9070 O.co2  86  ASP86      -0.2456
     82  N        118.6740    8.1940   10.5240 N.am   87  LEU87      -0.1979
     83  CA       118.4060    9.5800   10.1330 C.3    87  LEU87       0.1596
     84  C        118.7200   10.4980   11.3120 C.2    87  LEU87       0.2287
     85  O        118.5430   10.0940   12.4670 O.2    87  LEU87      -0.2864
     86  CB       116.9370    9.7680    9.7090 C.3    87  LEU87       0.0297
     87  CG       116.4000    9.0570    8.4620 C.3    87  LEU87       0.0022
     88  CD1      114.8930    9.3320    8.2760 C.3    87  LEU87       0.0001
     89  CD2      117.1630    9.4750    7.2300 C.3    87  LEU87       0.0001
     90  N        105.5220    3.1730   12.3610 N.3   122  VAL122     -0.1231
     91  CA       106.3050    3.9380   13.3160 C.3   122  VAL122      0.1692
     92  C        106.7210    5.3130   12.8050 C.2   122  VAL122      0.2591
     93  O        106.5220    6.3150   13.4790 O.2   122  VAL122     -0.2718
     94  CB       107.5590    3.1390   13.7330 C.3   122  VAL122      0.0266
     95  CG1      108.5780    4.0320   14.4210 C.3   122  VAL122      0.0020
     96  CG2      107.1660    2.0040   14.6440 C.3   122  VAL122      0.0020
     97  N        107.2930    5.3530   11.6060 N.am  123  VAL123     -0.1980
     98  CA       107.9210    6.5610   11.0910 C.3   123  VAL123      0.1595
     99  C        107.0560    7.2910   10.0630 C.2   123  VAL123      0.2287
    100  O        106.9600    8.5190   10.0730 O.2   123  VAL123     -0.2864
    101  CB       109.2910    6.2100   10.4530 C.3   123  VAL123      0.0276
    102  CG1      109.9120    7.4260    9.7740 C.3   123  VAL123      0.0022
    103  CG2      110.2050    5.6470   11.5080 C.3   123  VAL123      0.0022
    104  N        100.1510    8.9810   16.4590 N.3   135  ILE135     -0.1245
    105  CA       101.5670    9.3200   16.3840 C.3   135  ILE135      0.1561
    106  C        101.7510   10.8310   16.5660 C.2   135  ILE135      0.2260
    107  O        102.6240   11.2770   17.3070 O.2   135  ILE135     -0.2867
    108  CB       102.1870    8.8790   15.0440 C.3   135  ILE135      0.0252
    109  CG1      102.2710    7.3570   14.9500 C.3   135  ILE135      0.0019
    110  CG2      103.5800    9.4880   14.8570 C.3   135  ILE135      0.0019
    111  CD1      102.8990    6.8850   13.6370 C.3   135  ILE135      0.0001
    112  N        101.1630   11.7600   20.2670 N.3   138  GLY138     -0.1210
    113  CA       102.2530   11.3470   21.1310 C.3   138  GLY138      0.1956
    114  C        103.4470   12.2530   20.9130 C.2   138  GLY138      0.2611
    115  O        104.1230   12.6620   21.8560 O.2   138  GLY138     -0.2717
    116  N        103.6990   12.5830   19.6550 N.am  139  ASP139     -0.1973
    117  CA       104.7830   13.4990   19.3250 C.3   139  ASP139      0.1709
    118  C        104.6450   14.8550   20.0050 C.2   139  ASP139      0.2293
    119  O        105.6380   15.4160   20.4630 O.2   139  ASP139     -0.2864
    120  CB       104.8680   13.7000   17.8200 C.3   139  ASP139      0.1436
    121  CG       105.3990   12.4750   17.1040 C.2   139  ASP139      0.3671
    122  OD1      106.0470   11.6520   17.7680 O.co2 139  ASP139     -0.2456
    123  OD2      105.1810   12.3390   15.8840 O.co2 139  ASP139     -0.2456
    124  N        105.9290   14.8960   23.4410 N.3   142  LEU142     -0.1245
    125  CA       107.3940   14.9610   23.4270 C.3   142  LEU142      0.1561
    126  C        107.9270   16.3150   22.9920 C.2   142  LEU142      0.2260
    127  O        109.1370   16.5540   23.0290 O.2   142  LEU142     -0.2867
    128  CB       107.9670   13.9000   22.4870 C.3   142  LEU142      0.0270
    129  CG       107.7150   12.4330   22.7900 C.3   142  LEU142      0.0019
    130  CD1      108.3720   11.5950   21.7060 C.3   142  LEU142      0.0001
    131  CD2      108.2800   12.0980   24.1590 C.3   142  LEU142      0.0001
    132  N        107.6500   17.5380   19.9340 N.3   144  LEU144     -0.1245
    133  CA       108.0030   17.5100   18.5120 C.3   144  LEU144      0.1561
    134  C        106.9880   18.2510   17.6570 C.2   144  LEU144      0.2260
    135  O        105.8160   17.8780   17.6200 O.2   144  LEU144     -0.2867
    136  CB       108.1150   16.0740   18.0190 C.3   144  LEU144      0.0270
    137  CG       109.1970   15.2450   18.6990 C.3   144  LEU144      0.0019
    138  CD1      109.0540   13.7930   18.3230 C.3   144  LEU144      0.0001
    139  CD2      110.5580   15.7830   18.2870 C.3   144  LEU144      0.0001
    140  N        110.2260   19.1250   13.2530 N.3   148  PHE148     -0.1227
    141  CA       110.7120   17.7590   13.3860 C.3   148  PHE148      0.1736
    142  C        110.3020   16.9210   12.1820 C.2   148  PHE148      0.2595
    143  O        111.1230   16.2250   11.5950 O.2   148  PHE148     -0.2718
    144  CB       110.2010   17.1010   14.6720 C.3   148  PHE148      0.0547
    145  CG       110.5080   15.6410   14.7430 C.ar  148  PHE148     -0.0202
    146  CD1      111.7730   15.2040   15.1040 C.ar  148  PHE148     -0.0042
    147  CD2      109.5440   14.7020   14.4090 C.ar  148  PHE148     -0.0042
    148  CE1      112.0680   13.8430   15.1590 C.ar  148  PHE148     -0.0003
    149  CE2      109.8310   13.3460   14.4530 C.ar  148  PHE148     -0.0003
    150  CZ       111.0940   12.9170   14.8260 C.ar  148  PHE148     -0.0000
    151  N        109.0250   16.9850   11.8110 N.am  149  TYR149     -0.1976
    152  CA       108.5470   16.2210   10.6600 C.3   149  TYR149      0.1639
    153  C        109.2310   16.6600    9.3710 C.2   149  TYR149      0.2290
    154  O        109.5190   15.8340    8.5050 O.2   149  TYR149     -0.2864
    155  CB       107.0320   16.3600   10.5180 C.3   149  TYR149      0.0560
    156  CG       106.2750   15.7980   11.6900 C.ar  149  TYR149     -0.0198
    157  CD1      106.5840   14.5440   12.1980 C.ar  149  TYR149     -0.0009
    158  CD2      105.2610   16.5210   12.2970 C.ar  149  TYR149     -0.0009
    159  CE1      105.9050   14.0260   13.2710 C.ar  149  TYR149      0.0417
    160  CE2      104.5730   16.0120   13.3680 C.ar  149  TYR149      0.0417
    161  CZ       104.8960   14.7640   13.8480 C.ar  149  TYR149      0.1957
    162  OH       104.2060   14.2500   14.9170 O.3   149  TYR149     -0.2866
    163  N        112.6180   15.1140    9.4130 N.3   152  SER152     -0.1217
    164  CA       112.4770   13.6910    9.1310 C.3   152  SER152      0.1889
    165  C        112.3330   13.4370    7.6280 C.2   152  SER152      0.2288
    166  O        113.0960   12.6740    7.0430 O.2   152  SER152     -0.2866
    167  CB       111.2810   13.1160    9.8860 C.3   152  SER152      0.2089
    168  OG       111.5110   13.1340   11.2840 O.3   152  SER152     -0.2183
    169  N        113.2180   -1.3570   20.2570 N.3   223  ASN223     -0.1240
    170  CA       112.5900   -0.4770   19.2720 C.3   223  ASN223      0.1653
    171  C        111.7210   -1.2160   18.2370 C.2   223  ASN223      0.2266
    172  O        111.5980   -0.7740   17.0950 O.2   223  ASN223     -0.2867
    173  CB       113.6730    0.3710   18.5630 C.3   223  ASN223      0.1155
    174  CG       113.1190    1.6430   17.9520 C.2   223  ASN223      0.2627
    175  OD1      111.9880    2.0300   18.2280 O.2   223  ASN223     -0.2716
    176  ND2      113.9110    2.2910   17.1020 N.am  223  ASN223     -0.0877
    177  N        107.0900    0.6190   20.2610 N.3   228  MET228     -0.1245
    178  CA       106.7940    2.0010   19.8780 C.3   228  MET228      0.1570
    179  C        105.3040    2.3080   19.9830 C.2   228  MET228      0.2261
    180  O        104.9020    3.4080   20.3530 O.2   228  MET228     -0.2867
    181  CB       107.2700    2.2730   18.4520 C.3   228  MET228      0.0387
    182  CG       108.7110    2.7040   18.3420 C.3   228  MET228      0.0595
    183  SD       108.9620    4.3170   19.1030 S.3   228  MET228     -0.1393
    184  CE       110.1560    3.8720   20.3530 C.3   228  MET228      0.0692
    185  N        104.6670    2.7900   23.5940 N.3   231  LEU231     -0.1231
    186  CA       105.1900    4.0840   24.0270 C.3   231  LEU231      0.1693
    187  C        104.2150    5.2000   23.6370 C.2   231  LEU231      0.2592
    188  O        103.8550    6.0380   24.4550 O.2   231  LEU231     -0.2718
    189  CB       106.5770    4.3290   23.4310 C.3   231  LEU231      0.0284
    190  CG       107.1820    5.7220   23.6130 C.3   231  LEU231      0.0019
    191  CD1      107.1630    6.1410   25.0730 C.3   231  LEU231      0.0001
    192  CD2      108.6070    5.7320   23.0770 C.3   231  LEU231      0.0001
    193  N        103.7710    5.1790   22.3850 N.am  232  THR232     -0.1953
    194  CA       102.8400    6.1830   21.8760 C.3   232  THR232      0.1897
    195  C        101.5670    6.2230   22.7090 C.2   232  THR232      0.2313
    196  O        101.1410    7.2900   23.1520 O.2   232  THR232     -0.2863
    197  CB       102.4750    5.9130   20.4120 C.3   232  THR232      0.1794
    198  OG1      103.6620    5.9800   19.6150 O.3   232  THR232     -0.2208
    199  CG2      101.4430    6.9320   19.9040 C.3   232  THR232      0.0378
    200  N        102.3140    7.6610   26.1570 N.3   235  LEU235     -0.1245
    201  CA       102.5070    9.1020   26.0450 C.3   235  LEU235      0.1561
    202  C        101.1600    9.8200   25.9680 C.2   235  LEU235      0.2260
    203  O        100.9460   10.8510   26.6080 O.2   235  LEU235     -0.2867
    204  CB       103.3550    9.4290   24.8120 C.3   235  LEU235      0.0270
    205  CG       104.8640    9.1900   24.9480 C.3   235  LEU235      0.0019
    206  CD1      105.5910    9.2880   23.6120 C.3   235  LEU235      0.0001
    207  CD2      105.4490   10.1740   25.9190 C.3   235  LEU235      0.0001
@<TRIPOS>BOND
     1   166   165    2
     2    89    87    1
     3   165   164    1
     4    88    87    1
     5     7     6    1
     6     7     1    1
     7    87    86    1
     8   154   153    2
     9     4     3    2
    10     6     5    1
    11     1     2    1
    12   164   163    1
    13   164   167    1
    14   153   152    1
    15    86    83    1
    16   102   101    1
    17     3     2    1
    18     3     8   am
    19   167   168    1
    20     2     5    1
    21    99   100    2
    22    99    98    1
    23    11    10    2
    24    83    82    1
    25    83    84    1
    26    12    13    1
    27    12     9    1
    28   101    98    1
    29   101   103    1
    30   155   152    1
    31   155   156    1
    32    82    76   am
    33    10     9    1
    34   152   151    1
    35    13    14    1
    36    77    76    2
    37    76    75    1
    38     8     9    1
    39    98    97    1
    40    84    85    2
    41   143   142    2
    42    97    92   am
    43   156   157   ar
    44   156   158   ar
    45    75    74    1
    46    75    78    1
    47    80    79   ar
    48   151   142   am
    49    25    23    1
    50   142   141    1
    51    14    15    1
    52   157   159   ar
    53   158   160   ar
    54    90    91    1
    55    43    42    1
    56    92    91    1
    57    92    93    2
    58    79    78    1
    59    79    81   ar
    60    15    16    2
    61   140   141    1
    62   159   161   ar
    63    91    94    1
    64   160   161   ar
    65   141   144    1
    66    23    24    1
    67    23    20    1
    68   111   109    1
    69    94    95    1
    70    94    96    1
    71   161   162    1
    72    19    20    1
    73    16    18    1
    74    16    17    1
    75    20    21    1
    76    42    41    1
    77   147   149   ar
    78   147   145   ar
    79   149   150   ar
    80   144   145    1
    81   145   146   ar
    82   150   148   ar
    83   110   108    1
    84   109   108    1
    85    41    40    1
    86    40    37    1
    87   108   105    1
    88   146   148   ar
    89    21    22    2
    90    36    37    1
    91    36    28   am
    92   123   121   ar
    93    37    38    1
    94    35    33   ar
    95    35    34   ar
    96    33    31   ar
    97   105   104    1
    98   105   106    1
    99    28    27    1
   100    28    29    2
   101    27    26    1
   102    27    30    1
   103   106   107    2
   104    34    32   ar
   105    31    32   ar
   106    31    30    1
   107   172   171    2
   108   176   174   am
   109   121   122   ar
   110   121   120    1
   111    38    39    2
   112    38    44   am
   113   135   134    2
   114   134   133    1
   115   120   117    1
   116    62    60    1
   117   174   175    2
   118   174   173    1
   119   136   133    1
   120   136   137    1
   121    44    45    1
   122   171   170    1
   123   139   137    1
   124   138   137    1
   125   182   181    1
   126   182   183    1
   127    60    59    1
   128    52    50   ar
   129    52    54   ar
   130   181   178    1
   131   133   132    1
   132   173   170    1
   133    50    49   ar
   134   183   184    1
   135   170   169    1
   136   117   116    1
   137   117   118    1
   138    54    53   ar
   139    45    48    1
   140    45    46    1
   141    55    56    1
   142   198   197    1
   143   116   114   am
   144    59    56    1
   145    59    61    1
   146   178   179    1
   147   178   177    1
   148   199   197    1
   149    49    48    1
   150    49    51   ar
   151   179   180    2
   152   118   119    2
   153    56    57    1
   154   112   113    1
   155    46    47    2
   156   197   194    1
   157    53    51   ar
   158   114   113    1
   159   114   115    2
   160    57    58    2
   161    57    63   am
   162   130   129    1
   163   194   193    1
   164   194   195    1
   165    72    70   ar
   166    72    73   ar
   167    63    64    1
   168   193   187   am
   169   128   129    1
   170   128   125    1
   171   195   196    2
   172    70    68   ar
   173   129   131    1
   174    73    71   ar
   175   126   127    2
   176   126   125    1
   177   192   190    1
   178   125   124    1
   179   189   190    1
   180   189   186    1
   181   185   186    1
   182   206   205    1
   183   190   191    1
   184   187   186    1
   185   187   188    2
   186    64    67    1
   187    64    65    1
   188    68    67    1
   189    68    69   ar
   190    71    69   ar
   191    65    66    2
   192   204   205    1
   193   204   201    1
   194   205   207    1
   195   202   201    1
   196   202   203    2
   197   201   200    1
