@<TRIPOS>MOLECULE
tmp/6b53B01.pdb
 139 132 0 0 0
SMALL
GASTEIGER

@<TRIPOS>ATOM
      1  N          5.8370  -49.6650    9.9120 N.3    33  MET33      -0.1230
      2  CA         5.6070  -50.2230    8.5950 C.3    33  MET33       0.1702
      3  C          5.2320  -49.1150    7.6180 C.2    33  MET33       0.2592
      4  O          5.6240  -49.1470    6.4600 O.2    33  MET33      -0.2718
      5  CB         4.4980  -51.2720    8.6750 C.3    33  MET33       0.0401
      6  CG         3.7490  -51.5220    7.3830 C.3    33  MET33       0.0596
      7  SD         2.5970  -52.8940    7.5740 S.3    33  MET33      -0.1393
      8  CE         3.6700  -54.1070    8.3200 C.3    33  MET33       0.0692
      9  N          4.4890  -48.1270    8.1070 N.am   34  TYR34      -0.1976
     10  CA         4.0400  -47.0090    7.2830 C.3    34  TYR34       0.1639
     11  C          5.1930  -46.1110    6.8010 C.2    34  TYR34       0.2290
     12  O          5.0630  -45.4200    5.8030 O.2    34  TYR34      -0.2864
     13  CB         2.9150  -46.2320    7.9670 C.3    34  TYR34       0.0560
     14  CG         1.5960  -46.9790    7.9800 C.ar   34  TYR34      -0.0198
     15  CD1        1.5120  -48.2840    7.5200 C.ar   34  TYR34      -0.0009
     16  CD2        0.4410  -46.3830    8.4520 C.ar   34  TYR34      -0.0009
     17  CE1        0.3120  -48.9670    7.5260 C.ar   34  TYR34       0.0417
     18  CE2       -0.7620  -47.0580    8.4630 C.ar   34  TYR34       0.0417
     19  CZ        -0.8190  -48.3520    7.9990 C.ar   34  TYR34       0.1957
     20  OH        -2.0170  -49.0270    8.0170 O.3    34  TYR34      -0.2866
     21  N          6.1170  -47.8830    3.5970 N.3    37  ILE37      -0.1231
     22  CA         5.1160  -47.7190    2.5500 C.3    37  ILE37       0.1692
     23  C          5.0770  -46.3000    1.9770 C.2    37  ILE37       0.2592
     24  O          5.1110  -46.1140    0.7610 O.2    37  ILE37      -0.2718
     25  CB         3.7040  -48.0800    3.0650 C.3    37  ILE37       0.0266
     26  CG1        3.6660  -49.5350    3.5390 C.3    37  ILE37       0.0019
     27  CG2        2.6500  -47.8410    1.9720 C.3    37  ILE37       0.0020
     28  CD1        2.3650  -49.9470    4.2480 C.3    37  ILE37       0.0001
     29  N          5.0060  -45.2980    2.8440 N.am   38  PHE38      -0.1976
     30  CA         4.7650  -43.9360    2.3740 C.3    38  PHE38       0.1639
     31  C          6.0080  -43.0450    2.2810 C.2    38  PHE38       0.2290
     32  O          5.9020  -41.9010    1.8460 O.2    38  PHE38      -0.2864
     33  CB         3.7290  -43.2590    3.2760 C.3    38  PHE38       0.0560
     34  CG         2.4090  -43.9670    3.3130 C.ar   38  PHE38      -0.0200
     35  CD1        1.4910  -43.8060    2.2810 C.ar   38  PHE38      -0.0042
     36  CD2        2.0850  -44.8060    4.3680 C.ar   38  PHE38      -0.0042
     37  CE1        0.2660  -44.4640    2.3080 C.ar   38  PHE38      -0.0003
     38  CE2        0.8670  -45.4640    4.3990 C.ar   38  PHE38      -0.0003
     39  CZ        -0.0430  -45.2950    3.3660 C.ar   38  PHE38      -0.0000
     40  N         -7.0450  -56.0830    6.6520 N.3   116  VAL116     -0.1231
     41  CA        -6.0560  -55.0690    6.2800 C.3   116  VAL116      0.1692
     42  C         -4.6960  -55.6130    5.8210 C.2   116  VAL116      0.2591
     43  O         -4.1630  -55.1660    4.8060 O.2   116  VAL116     -0.2718
     44  CB        -5.7960  -54.0990    7.4610 C.3   116  VAL116      0.0266
     45  CG1       -4.7130  -53.1010    7.1070 C.3   116  VAL116      0.0020
     46  CG2       -7.0740  -53.4020    7.8780 C.3   116  VAL116      0.0020
     47  N         -4.1340  -56.5570    6.5740 N.am  117  VAL117     -0.1980
     48  CA        -2.7410  -56.9450    6.3950 C.3   117  VAL117      0.1595
     49  C         -2.5700  -58.3040    5.7360 C.2   117  VAL117      0.2287
     50  O         -1.7490  -58.4720    4.8280 O.2   117  VAL117     -0.2864
     51  CB        -2.0030  -56.9520    7.7590 C.3   117  VAL117      0.0276
     52  CG1       -0.6030  -57.5620    7.6430 C.3   117  VAL117      0.0022
     53  CG2       -1.9350  -55.5390    8.3290 C.3   117  VAL117      0.0022
     54  N         -7.3250  -54.9480   -2.2110 N.3   129  ILE129     -0.1245
     55  CA        -6.2090  -54.3790   -1.4540 C.3   129  ILE129      0.1561
     56  C         -5.0000  -54.2000   -2.3540 C.2   129  ILE129      0.2260
     57  O         -4.3220  -53.1800   -2.3020 O.2   129  ILE129     -0.2867
     58  CB        -5.8190  -55.2610   -0.2430 C.3   129  ILE129      0.0252
     59  CG1       -6.9240  -55.2330    0.8080 C.3   129  ILE129      0.0019
     60  CG2       -4.4980  -54.8010    0.3720 C.3   129  ILE129      0.0019
     61  CD1       -6.6620  -56.1580    1.9800 C.3   129  ILE129      0.0001
     62  N         -2.9860  -50.8260   -3.4450 N.3   133  ASP133     -0.1239
     63  CA        -1.5590  -50.7240   -3.1570 C.3   133  ASP133      0.1674
     64  C         -0.7480  -50.4130   -4.4200 C.2   133  ASP133      0.2266
     65  O          0.3390  -49.8510   -4.3410 O.2   133  ASP133     -0.2867
     66  CB        -1.0390  -52.0110   -2.5080 C.3   133  ASP133      0.1410
     67  CG        -1.5530  -52.2080   -1.0830 C.2   133  ASP133      0.3668
     68  OD1       -2.0440  -51.2330   -0.4730 O.co2 133  ASP133     -0.2456
     69  OD2       -1.4480  -53.3430   -0.5680 O.co2 133  ASP133     -0.2456
     70  N          0.0270  -46.9510   -4.7780 N.3   136  LEU136     -0.1245
     71  CA         1.1230  -46.5590   -3.8970 C.3   136  LEU136      0.1561
     72  C          2.4650  -47.0870   -4.3920 C.2   136  LEU136      0.2260
     73  O          3.5080  -46.7300   -3.8590 O.2   136  LEU136     -0.2867
     74  CB         0.8810  -47.0590   -2.4690 C.3   136  LEU136      0.0270
     75  CG        -0.3840  -46.5950   -1.7510 C.3   136  LEU136      0.0019
     76  CD1       -0.4730  -47.2270   -0.3670 C.3   136  LEU136      0.0001
     77  CD2       -0.4260  -45.0730   -1.6570 C.3   136  LEU136      0.0001
     78  N          3.1700  -50.2770   -4.3090 N.3   138  ILE138     -0.1245
     79  CA         3.4020  -51.4810   -3.5170 C.3   138  ILE138      0.1561
     80  C          3.0290  -52.7460   -4.2960 C.2   138  ILE138      0.2260
     81  O          1.9470  -52.8280   -4.8790 O.2   138  ILE138     -0.2867
     82  CB         2.5950  -51.4290   -2.1970 C.3   138  ILE138      0.0252
     83  CG1        3.1470  -50.3390   -1.2680 C.3   138  ILE138      0.0019
     84  CG2        2.5750  -52.7830   -1.5130 C.3   138  ILE138      0.0019
     85  CD1        4.5320  -50.6220   -0.7290 C.3   138  ILE138      0.0001
     86  N          6.6800  -56.2290   -1.2670 N.3   142  PHE142     -0.1227
     87  CA         6.2550  -55.7870    0.0560 C.3   142  PHE142      0.1736
     88  C          5.4780  -56.8830    0.7950 C.2   142  PHE142      0.2595
     89  O          5.6630  -57.0870    1.9960 O.2   142  PHE142     -0.2718
     90  CB         5.4010  -54.5240   -0.0500 C.3   142  PHE142      0.0547
     91  CG         4.8600  -54.0600    1.2620 C.ar  142  PHE142     -0.0202
     92  CD1        5.6710  -53.3630    2.1430 C.ar  142  PHE142     -0.0042
     93  CD2        3.5530  -54.3390    1.6330 C.ar  142  PHE142     -0.0042
     94  CE1        5.1910  -52.9420    3.3570 C.ar  142  PHE142     -0.0003
     95  CE2        3.0670  -53.9140    2.8540 C.ar  142  PHE142     -0.0003
     96  CZ         3.8910  -53.2160    3.7140 C.ar  142  PHE142     -0.0000
     97  N          4.6080  -57.5800    0.0720 N.am  143  TYR143     -0.1976
     98  CA         3.8120  -58.6480    0.6640 C.3   143  TYR143      0.1639
     99  C          4.6950  -59.7940    1.1430 C.2   143  TYR143      0.2290
    100  O          4.4500  -60.3710    2.2060 O.2   143  TYR143     -0.2864
    101  CB         2.7750  -59.1570   -0.3360 C.3   143  TYR143      0.0560
    102  CG         1.8370  -58.0750   -0.8090 C.ar  143  TYR143     -0.0198
    103  CD1        1.3540  -57.1170    0.0760 C.ar  143  TYR143     -0.0009
    104  CD2        1.4490  -57.9950   -2.1440 C.ar  143  TYR143     -0.0009
    105  CE1        0.5020  -56.1250   -0.3450 C.ar  143  TYR143      0.0417
    106  CE2        0.5940  -56.9970   -2.5780 C.ar  143  TYR143      0.0417
    107  CZ         0.1270  -56.0660   -1.6740 C.ar  143  TYR143      0.1957
    108  OH        -0.7260  -55.0770   -2.0930 O.3   143  TYR143     -0.2866
    109  N         -8.9040  -48.0110    6.7960 N.3   222  MET222     -0.1245
    110  CA        -8.0590  -48.6840    5.8140 C.3   222  MET222      0.1570
    111  C         -8.8860  -49.1720    4.6270 C.2   222  MET222      0.2261
    112  O         -8.4370  -49.1140    3.4870 O.2   222  MET222     -0.2867
    113  CB        -7.2950  -49.8590    6.4510 C.3   222  MET222      0.0387
    114  CG        -6.1110  -49.4550    7.3460 C.3   222  MET222      0.0595
    115  SD        -4.8840  -48.4650    6.4620 S.3   222  MET222     -0.1393
    116  CE        -5.3930  -46.8390    6.9770 C.3   222  MET222      0.0692
    117  N         -9.5060  -46.1230    2.5820 N.3   225  LEU225     -0.1231
    118  CA        -8.3010  -45.7560    1.8490 C.3   225  LEU225      0.1693
    119  C         -8.1580  -46.5800    0.5790 C.2   225  LEU225      0.2592
    120  O         -7.9410  -46.0300   -0.4980 O.2   225  LEU225     -0.2718
    121  CB        -7.0580  -45.9140    2.7300 C.3   225  LEU225      0.0284
    122  CG        -5.7380  -45.4430    2.1140 C.3   225  LEU225      0.0019
    123  CD1       -5.7980  -43.9650    1.7410 C.3   225  LEU225      0.0001
    124  CD2       -4.5940  -45.7010    3.0750 C.3   225  LEU225      0.0001
    125  N         -8.2970  -47.8950    0.7090 N.am  226  THR226     -0.1953
    126  CA        -8.1950  -48.7830   -0.4440 C.3   226  THR226      0.1897
    127  C         -9.2070  -48.3870   -1.5160 C.2   226  THR226      0.2313
    128  O         -8.8490  -48.2220   -2.6780 O.2   226  THR226     -0.2863
    129  CB        -8.3970  -50.2650   -0.0330 C.3   226  THR226      0.1794
    130  OG1       -7.2620  -50.6990    0.7200 O.3   226  THR226     -0.2208
    131  CG2       -8.5690  -51.1720   -1.2710 C.3   226  THR226      0.0378
    132  N         -8.2480  -45.0460   -3.1700 N.3   229  LEU229     -0.1245
    133  CA        -7.0740  -45.2110   -4.0260 C.3   229  LEU229      0.1561
    134  C         -7.4960  -45.8190   -5.3550 C.2   229  LEU229      0.2260
    135  O         -7.0140  -45.4300   -6.4160 O.2   229  LEU229     -0.2867
    136  CB        -6.0170  -46.0970   -3.3580 C.3   229  LEU229      0.0270
    137  CG        -5.1620  -45.4640   -2.2570 C.3   229  LEU229      0.0019
    138  CD1       -4.4600  -46.5400   -1.4290 C.3   229  LEU229      0.0001
    139  CD2       -4.1480  -44.4830   -2.8440 C.3   229  LEU229      0.0001
@<TRIPOS>BOND
     1   135   134    2
     2   134   133    1
     3    81    80    2
     4    70    71    1
     5    64    65    2
     6    64    63    1
     7    72    71    1
     8    72    73    2
     9    78    79    1
    10    80    79    1
    11   133   136    1
    12   133   132    1
    13    71    74    1
    14    79    82    1
    15    62    63    1
    16   136   137    1
    17    63    66    1
    18   139   137    1
    19   128   127    2
    20   106   104   ar
    21   106   107   ar
    22    66    67    1
    23    74    75    1
    24    56    57    2
    25    56    55    1
    26   137   138    1
    27    54    55    1
    28    82    84    1
    29    82    83    1
    30   104   102   ar
    31   108   107    1
    32    75    77    1
    33    75    76    1
    34   107   105   ar
    35   127   126    1
    36    55    58    1
    37   131   129    1
    38    83    85    1
    39    86    87    1
    40    67    69   ar
    41    67    68   ar
    42   102   101    1
    43   102   103   ar
    44   120   119    2
    45   126   129    1
    46   126   125    1
    47   105   103   ar
    48   101    98    1
    49    58    60    1
    50    58    59    1
    51    90    87    1
    52    90    91    1
    53   129   130    1
    54    87    88    1
    55    97    98    1
    56    97    88   am
    57   119   125   am
    58   119   118    1
    59    98    99    1
    60    24    23    2
    61    88    89    2
    62    59    61    1
    63    99   100    2
    64    91    93   ar
    65    91    92   ar
    66    93    95   ar
    67   123   122    1
    68    32    31    2
    69   118   117    1
    70   118   121    1
    71    27    25    1
    72    23    22    1
    73    23    29   am
    74   122   121    1
    75   122   124    1
    76    92    94   ar
    77    35    37   ar
    78    35    34   ar
    79    31    30    1
    80    37    39   ar
    81    30    29    1
    82    30    33    1
    83    22    25    1
    84    22    21    1
    85    95    96   ar
    86    25    26    1
    87    33    34    1
    88    34    36   ar
    89    94    96   ar
    90    39    38   ar
    91   112   111    2
    92    26    28    1
    93    36    38   ar
    94   111   110    1
    95    43    42    2
    96    50    49    2
    97    49    48    1
    98    12    11    2
    99   110   113    1
   100   110   109    1
   101    42    41    1
   102    42    47   am
   103    41    40    1
   104    41    44    1
   105    48    47    1
   106    48    51    1
   107   113   114    1
   108     4     3    2
   109   115   116    1
   110   115   114    1
   111    11    10    1
   112    45    44    1
   113    10    13    1
   114    10     9    1
   115     6     7    1
   116     6     5    1
   117    44    46    1
   118    15    17   ar
   119    15    14   ar
   120    17    19   ar
   121     7     8    1
   122     3     9   am
   123     3     2    1
   124    52    51    1
   125    51    53    1
   126    13    14    1
   127    14    16   ar
   128    19    20    1
   129    19    18   ar
   130    16    18   ar
   131     2     5    1
   132     2     1    1
