@<TRIPOS>MOLECULE
tmp/6b58C02.pdb
 83 76 0 0 0
SMALL
GASTEIGER

@<TRIPOS>ATOM
      1  N        -92.8630  -19.2810   71.1410 N.3    51  GLY51      -0.1210
      2  CA       -92.9450  -17.8420   71.2660 C.3    51  GLY51       0.1956
      3  C        -93.6820  -17.3710   72.4940 C.2    51  GLY51       0.2612
      4  O        -94.5420  -18.0750   73.0370 O.2    51  GLY51      -0.2717
      5  N        -93.3270  -16.1700   72.9310 N.am   52  GLY52      -0.1956
      6  CA       -93.8820  -15.5360   74.1070 C.3    52  GLY52       0.1869
      7  C        -92.9850  -14.3390   74.3180 C.2    52  GLY52       0.2309
      8  O        -92.0900  -14.1090   73.4900 O.2    52  GLY52      -0.2863
      9  N        -96.7850  -20.3540   58.1970 N.3   201  HIS201     -0.1241
     10  CA       -95.6840  -19.6670   58.8560 C.3   201  HIS201      0.1621
     11  C        -94.5590  -19.4230   57.8460 C.2   201  HIS201      0.2264
     12  O        -94.2320  -20.3070   57.0510 O.2   201  HIS201     -0.2867
     13  CB       -95.1820  -20.4880   60.0320 C.3   201  HIS201      0.0745
     14  CG       -94.2140  -19.7690   60.9160 C.ar  201  HIS201      0.0817
     15  ND1      -92.9040  -19.5460   60.5550 N.ar  201  HIS201     -0.2268
     16  CD2      -94.3490  -19.2690   62.1660 C.ar  201  HIS201      0.1154
     17  CE1      -92.2770  -18.9240   61.5380 C.ar  201  HIS201      0.1986
     18  NE2      -93.1320  -18.7380   62.5250 N.ar  201  HIS201     -0.2212
     19  N        -90.2110  -25.7790   61.6860 N.3   211  LEU211     -0.1245
     20  CA       -90.3340  -24.3310   61.7610 C.3   211  LEU211      0.1561
     21  C        -89.1110  -23.7260   62.4430 C.2   211  LEU211      0.2260
     22  O        -88.8400  -24.0150   63.6110 O.2   211  LEU211     -0.2867
     23  CB       -91.6180  -23.9700   62.5070 C.3   211  LEU211      0.0270
     24  CG       -91.8840  -22.5680   63.0510 C.3   211  LEU211      0.0019
     25  CD1      -93.3640  -22.2780   62.9240 C.3   211  LEU211      0.0001
     26  CD2      -91.4710  -22.4390   64.5160 C.3   211  LEU211      0.0001
     27  N        -89.8600  -17.7500   65.0900 N.3   214  GLU214     -0.1245
     28  CA       -89.8910  -16.2960   64.9520 C.3   214  GLU214      0.1567
     29  C        -88.7160  -15.6230   65.6490 C.2   214  GLU214      0.2260
     30  O        -88.2040  -14.6140   65.1530 O.2   214  GLU214     -0.2867
     31  CB       -91.2090  -15.7460   65.5110 C.3   214  GLU214      0.0388
     32  CG       -91.3530  -14.2590   65.4030 C.3   214  GLU214      0.1160
     33  CD       -92.6730  -13.6920   65.8260 C.2   214  GLU214      0.3649
     34  OE1      -93.5170  -14.4180   66.3060 O.co2 214  GLU214     -0.2457
     35  OE2      -92.8890  -12.4700   65.8530 O.co2 214  GLU214     -0.2457
     36  N        -97.5000  -12.1740   59.8150 N.3   256  ARG256     -0.1245
     37  CA       -97.0800  -13.4340   59.2160 C.3   256  ARG256      0.1563
     38  C        -97.6660  -13.6010   57.8190 C.2   256  ARG256      0.2260
     39  O        -96.9820  -14.0660   56.9040 O.2   256  ARG256     -0.2867
     40  CB       -97.4570  -14.6200   60.1150 C.3   256  ARG256      0.0307
     41  CG       -96.2890  -15.0980   60.9400 C.3   256  ARG256      0.0489
     42  CD       -96.4580  -16.5300   61.4490 C.3   256  ARG256      0.2205
     43  NE       -97.5450  -16.6920   62.4080 N.pl3 256  ARG256     -0.0865
     44  CZ       -97.3720  -16.8050   63.7230 C.cat 256  ARG256      0.5346
     45  NH1      -96.1520  -16.7750   64.2600 N.pl3 256  ARG256      0.1354
     46  NH2      -98.4350  -16.9380   64.5060 N.pl3 256  ARG256      0.1354
     47  N        -99.3680  -24.1530   58.8230 N.3   324  HIS324     -0.1241
     48  CA       -98.9850  -24.0050   60.2190 C.3   324  HIS324      0.1621
     49  C       -100.1660  -24.0900   61.1650 C.2   324  HIS324      0.2264
     50  O       -100.1900  -24.9530   62.0440 O.2   324  HIS324     -0.2867
     51  CB       -98.2850  -22.6720   60.4270 C.3   324  HIS324      0.0745
     52  CG       -97.8730  -22.4180   61.8350 C.ar  324  HIS324      0.0817
     53  ND1      -97.0530  -23.2750   62.5340 N.ar  324  HIS324     -0.2268
     54  CD2      -98.1690  -21.4020   62.6790 C.ar  324  HIS324      0.1154
     55  CE1      -96.8600  -22.7950   63.7490 C.ar  324  HIS324      0.1986
     56  NE2      -97.5240  -21.6570   63.8630 N.ar  324  HIS324     -0.2212
     57  N       -104.5480  -15.4730   62.6290 N.3   359  ARG359     -0.1245
     58  CA      -104.1950  -15.5130   64.0360 C.3   359  ARG359      0.1563
     59  C       -102.9430  -14.6830   64.2930 C.2   359  ARG359      0.2260
     60  O       -102.0090  -14.6880   63.4910 O.2   359  ARG359     -0.2867
     61  CB      -103.9870  -16.9650   64.4640 C.3   359  ARG359      0.0307
     62  CG      -102.9480  -17.1700   65.5140 C.3   359  ARG359      0.0489
     63  CD      -102.8450  -18.6130   65.8880 C.3   359  ARG359      0.2205
     64  NE      -101.6400  -19.2480   65.3560 N.pl3 359  ARG359     -0.0865
     65  CZ      -100.4160  -19.0080   65.8170 C.cat 359  ARG359      0.5346
     66  NH1     -100.2460  -18.1110   66.7890 N.pl3 359  ARG359      0.1354
     67  NH2      -99.3600  -19.6450   65.2990 N.pl3 359  ARG359      0.1354
     68  N        -99.7950  -13.3100   66.9210 N.3   361  GLY361     -0.1210
     69  CA       -98.9840  -13.3540   68.1290 C.3   361  GLY361      0.1956
     70  C        -99.2330  -14.6470   68.8680 C.2   361  GLY361      0.2612
     71  O        -99.2820  -15.7220   68.2620 O.2   361  GLY361     -0.2717
     72  N        -99.4370  -14.5380   70.1850 N.am  362  SER362     -0.1952
     73  CA       -99.7060  -15.6780   71.0530 C.3   362  SER362      0.1924
     74  C       -101.1880  -15.8090   71.3750 C.2   362  SER362      0.2314
     75  O       -101.5570  -16.3280   72.4430 O.2   362  SER362     -0.2863
     76  CB       -98.9030  -15.5670   72.3540 C.3   362  SER362      0.2116
     77  OG       -99.6770  -14.9400   73.3880 O.3   362  SER362     -0.2180
     78  N       -103.0970  -17.8440   70.2140 N.3   364  SER364     -0.1217
     79  CA      -103.5340  -19.2390   70.1900 C.3   364  SER364      0.1889
     80  C       -103.1990  -19.9610   71.4820 C.2   364  SER364      0.2288
     81  O       -103.9970  -20.7710   71.9580 O.2   364  SER364     -0.2866
     82  CB      -102.9130  -19.9840   69.0230 C.3   364  SER364      0.2089
     83  OG      -101.5880  -19.5290   68.8280 O.3   364  SER364     -0.2183
@<TRIPOS>BOND
     1    39    38    2
     2    12    11    2
     3    38    37    1
     4    11    10    1
     5     9    10    1
     6    47    48    1
     7    10    13    1
     8    37    36    1
     9    37    40    1
    10    13    14    1
    11    40    41    1
    12    48    51    1
    13    48    49    1
    14    51    52    1
    15    15    14   ar
    16    15    17   ar
    17    14    16   ar
    18    41    42    1
    19    49    50    2
    20    42    43    1
    21    17    18   ar
    22    19    20    1
    23    20    21    1
    24    20    23    1
    25    52    53   ar
    26    52    54   ar
    27    16    18   ar
    28    43    44    2
    29    21    22    2
    30    23    24    1
    31    53    55   ar
    32    57    58    1
    33    54    56   ar
    34    25    24    1
    35    24    26    1
    36    60    59    2
    37    44    45    1
    38    44    46    1
    39    55    56   ar
    40    58    59    1
    41    58    61    1
    42    61    62    1
    43    28    27    1
    44    28    31    1
    45    28    29    1
    46    30    29    2
    47    67    65    1
    48    64    65    2
    49    64    63    1
    50    32    31    1
    51    32    33    1
    52    62    63    1
    53    65    66    1
    54    33    35   ar
    55    33    34   ar
    56    68    69    1
    57    69    70    1
    58    71    70    2
    59    83    82    1
    60    70    72   am
    61    82    79    1
    62    72    73    1
    63    79    78    1
    64    79    80    1
    65    73    74    1
    66    73    76    1
    67     1     2    1
    68     2     3    1
    69    74    75    2
    70    80    81    2
    71    76    77    1
    72     3     5   am
    73     3     4    2
    74     5     6    1
    75     8     7    2
    76     6     7    1
