@<TRIPOS>MOLECULE
tmp/6b58C01.pdb
 82 76 0 0 0
SMALL
GASTEIGER

@<TRIPOS>ATOM
      1  N       -113.1290  -42.7730   68.7550 N.3   127  LEU127     -0.1231
      2  CA      -113.5390  -43.1530   67.4080 C.3   127  LEU127      0.1693
      3  C       -114.7890  -42.4350   66.9500 C.2   127  LEU127      0.2592
      4  O       -114.9500  -42.2210   65.7450 O.2   127  LEU127     -0.2718
      5  CB      -113.7790  -44.6570   67.3270 C.3   127  LEU127      0.0284
      6  CG      -112.5390  -45.4700   67.6630 C.3   127  LEU127      0.0019
      7  CD1     -112.9280  -46.8180   68.2760 C.3   127  LEU127      0.0001
      8  CD2     -111.7230  -45.6330   66.4070 C.3   127  LEU127      0.0001
      9  N       -115.6650  -42.0560   67.8730 N.am  128  ASP128     -0.1974
     10  CA      -116.9060  -41.3800   67.5290 C.3   128  ASP128      0.1709
     11  C       -117.6110  -40.9570   68.8110 C.2   128  ASP128      0.2293
     12  O       -117.3510  -41.4900   69.8950 O.2   128  ASP128     -0.2864
     13  CB      -117.8160  -42.2680   66.6840 C.3   128  ASP128      0.1436
     14  CG      -118.8820  -41.4900   65.9570 C.2   128  ASP128      0.3671
     15  OD1     -118.7660  -40.2590   65.8600 O.co2 128  ASP128     -0.2456
     16  OD2     -119.8440  -42.1060   65.4740 O.co2 128  ASP128     -0.2456
     17  N       -114.9090  -35.7780   63.4390 N.3   184  MET184     -0.1245
     18  CA      -116.0130  -36.3530   64.2050 C.3   184  MET184      0.1570
     19  C       -117.2120  -35.4300   64.2590 C.2   184  MET184      0.2261
     20  O       -118.3500  -35.8950   64.2510 O.2   184  MET184     -0.2867
     21  CB      -115.5580  -36.6870   65.6080 C.3   184  MET184      0.0387
     22  CG      -115.1850  -38.1320   65.7480 C.3   184  MET184      0.0595
     23  SD      -114.6670  -38.5000   67.4100 S.3   184  MET184     -0.1393
     24  CE      -113.2810  -37.3970   67.6260 C.3   184  MET184      0.0692
     25  N       -119.2100  -35.6860   60.7750 N.3   187  SER187     -0.1217
     26  CA      -120.0190  -36.8970   60.6600 C.3   187  SER187      0.1889
     27  C       -121.3420  -36.8080   61.3940 C.2   187  SER187      0.2288
     28  O       -122.2240  -37.6180   61.1260 O.2   187  SER187     -0.2866
     29  CB      -119.2590  -38.0920   61.1890 C.3   187  SER187      0.2089
     30  OG      -117.9080  -37.9780   60.8230 O.3   187  SER187     -0.2183
     31  N       -119.3190  -51.0520   62.7210 N.3   404  ARG404     -0.1245
     32  CA      -118.6620  -50.2050   61.7320 C.3   404  ARG404      0.1563
     33  C       -117.1550  -50.4050   61.7900 C.2   404  ARG404      0.2260
     34  O       -116.4750  -50.4270   60.7590 O.2   404  ARG404     -0.2867
     35  CB      -119.0340  -48.7410   61.9650 C.3   404  ARG404      0.0307
     36  CG      -118.6970  -47.7980   60.8230 C.3   404  ARG404      0.0489
     37  CD      -118.5040  -46.3610   61.3070 C.3   404  ARG404      0.2205
     38  NE      -119.6570  -45.8560   62.0440 N.pl3 404  ARG404     -0.0865
     39  CZ      -119.5800  -45.1020   63.1420 C.cat 404  ARG404      0.5346
     40  NH1     -118.3900  -44.7560   63.6490 N.pl3 404  ARG404      0.1354
     41  NH2     -120.7000  -44.6920   63.7420 N.pl3 404  ARG404      0.1354
     42  N       -110.8090  -44.1090   49.0630 N.3   455  PHE455     -0.1241
     43  CA      -110.7510  -44.4020   50.4910 C.3   455  PHE455      0.1605
     44  C       -111.6320  -45.5920   50.8430 C.2   455  PHE455      0.2264
     45  O       -111.2540  -46.4200   51.6760 O.2   455  PHE455     -0.2867
     46  CB      -111.1490  -43.1770   51.3190 C.3   455  PHE455      0.0534
     47  CG      -110.9280  -43.3450   52.7960 C.ar  455  PHE455     -0.0203
     48  CD1     -109.6420  -43.4880   53.3060 C.ar  455  PHE455     -0.0042
     49  CD2     -112.0070  -43.3750   53.6760 C.ar  455  PHE455     -0.0042
     50  CE1     -109.4290  -43.6490   54.6610 C.ar  455  PHE455     -0.0003
     51  CE2     -111.8000  -43.5280   55.0310 C.ar  455  PHE455     -0.0003
     52  CZ      -110.5110  -43.6640   55.5270 C.ar  455  PHE455     -0.0000
     53  N       -108.2410  -44.2250   59.8190 N.3   474  ILE474     -0.1245
     54  CA      -109.3340  -43.4310   60.3570 C.3   474  ILE474      0.1561
     55  C       -108.9200  -41.9680   60.4220 C.2   474  ILE474      0.2260
     56  O       -109.6760  -41.0680   60.0280 O.2   474  ILE474     -0.2867
     57  CB      -109.7500  -43.9790   61.7290 C.3   474  ILE474      0.0252
     58  CG1     -110.6820  -45.1910   61.5300 C.3   474  ILE474      0.0019
     59  CG2     -110.3560  -42.8420   62.6200 C.3   474  ILE474      0.0019
     60  CD1     -111.0600  -45.9480   62.8100 C.3   474  ILE474      0.0001
     61  N       -109.1040  -40.7030   56.9930 N.3   477  GLY477     -0.1210
     62  CA      -110.4950  -40.4390   56.6540 C.3   477  GLY477      0.1956
     63  C       -110.9690  -39.0840   57.1480 C.2   477  GLY477      0.2611
     64  O       -111.6750  -38.3630   56.4330 O.2   477  GLY477     -0.2717
     65  N       -110.5840  -38.7150   58.3790 N.am  478  HIS478     -0.1975
     66  CA      -110.9140  -37.3910   58.9070 C.3   478  HIS478      0.1656
     67  C       -110.2600  -36.2850   58.0910 C.2   478  HIS478      0.2291
     68  O       -110.9140  -35.3020   57.7240 O.2   478  HIS478     -0.2864
     69  CB      -110.4830  -37.2800   60.3640 C.3   478  HIS478      0.0771
     70  CG      -111.3520  -38.0510   61.2920 C.ar  478  HIS478      0.0820
     71  ND1     -112.7280  -37.9760   61.2470 N.ar  478  HIS478     -0.2267
     72  CD2     -111.0510  -38.9390   62.2620 C.ar  478  HIS478      0.1154
     73  CE1     -113.2370  -38.7640   62.1750 C.ar  478  HIS478      0.1986
     74  NE2     -112.2410  -39.3600   62.8020 N.ar  478  HIS478     -0.2212
     75  N       -112.1410  -35.4860   54.7260 N.3   481  ASN481     -0.1240
     76  CA      -113.3440  -34.6770   54.9050 C.3   481  ASN481      0.1653
     77  C       -112.9900  -33.2650   55.3350 C.2   481  ASN481      0.2266
     78  O       -113.6390  -32.2950   54.9240 O.2   481  ASN481     -0.2867
     79  CB      -114.2780  -35.3260   55.9160 C.3   481  ASN481      0.1155
     80  CG      -114.4930  -36.7850   55.6310 C.2   481  ASN481      0.2627
     81  OD1     -114.3450  -37.2330   54.4900 O.2   481  ASN481     -0.2716
     82  ND2     -114.8220  -37.5460   56.6610 N.am  481  ASN481     -0.0877
@<TRIPOS>BOND
     1    42    43    1
     2    43    44    1
     3    43    46    1
     4    44    45    2
     5    46    47    1
     6    47    48   ar
     7    47    49   ar
     8    48    50   ar
     9    49    51   ar
    10    81    80    2
    11    50    52   ar
    12    75    76    1
    13    76    77    1
    14    76    79    1
    15    78    77    2
    16    51    52   ar
    17    80    79    1
    18    80    82   am
    19    64    63    2
    20    62    61    1
    21    62    63    1
    22    63    65   am
    23    68    67    2
    24    67    66    1
    25    65    66    1
    26    66    69    1
    27    53    54    1
    28    56    55    2
    29    54    55    1
    30    54    57    1
    31    69    70    1
    32    26    25    1
    33    26    29    1
    34    26    27    1
    35    34    33    2
    36    30    29    1
    37    36    37    1
    38    36    35    1
    39    28    27    2
    40    71    70   ar
    41    71    73   ar
    42    70    72   ar
    43    37    38    1
    44    58    57    1
    45    58    60    1
    46    57    59    1
    47    32    33    1
    48    32    35    1
    49    32    31    1
    50    38    39    2
    51    73    74   ar
    52    72    74   ar
    53    39    40    1
    54    39    41    1
    55    17    18    1
    56    18    19    1
    57    18    21    1
    58    20    19    2
    59    16    14   ar
    60    21    22    1
    61     4     3    2
    62    22    23    1
    63    15    14   ar
    64    14    13    1
    65     8     6    1
    66    13    10    1
    67     3     2    1
    68     3     9   am
    69     5     2    1
    70     5     6    1
    71     2     1    1
    72    23    24    1
    73    10     9    1
    74    10    11    1
    75     6     7    1
    76    11    12    2
