@<TRIPOS>MOLECULE
tmp/6b5aA00.pdb
 171 164 0 0 0
SMALL
GASTEIGER

@<TRIPOS>ATOM
      1  N          3.9880   -1.9350   76.2040 N.3    61  HIS61      -0.1241
      2  CA         3.8100   -2.7380   77.4090 C.3    61  HIS61       0.1621
      3  C          2.3860   -3.2100   77.6630 C.2    61  HIS61       0.2264
      4  O          2.2030   -4.1170   78.4820 O.2    61  HIS61      -0.2867
      5  CB         4.2950   -1.9830   78.6510 C.3    61  HIS61       0.0745
      6  CG         3.8770   -0.5560   78.7120 C.ar   61  HIS61       0.0817
      7  ND1        2.7870   -0.1290   79.4480 N.ar   61  HIS61      -0.2268
      8  CD2        4.4340    0.5560   78.1800 C.ar   61  HIS61       0.1154
      9  CE1        2.6900    1.1870   79.3630 C.ar   61  HIS61       0.1986
     10  NE2        3.6730    1.6270   78.5930 N.ar   61  HIS61      -0.2212
     11  N         -4.1490    0.1270   75.3320 N.3    64  GLN64      -0.1245
     12  CA        -4.9820    1.0050   76.1280 C.3    64  GLN64       0.1566
     13  C         -6.0150    1.6750   75.2390 C.2    64  GLN64       0.2260
     14  O         -5.7640    2.0010   74.0660 O.2    64  GLN64      -0.2867
     15  CB        -4.1760    2.0510   76.9140 C.3    64  GLN64       0.0367
     16  CG        -3.5230    3.1460   76.1500 C.3    64  GLN64       0.0905
     17  CD        -2.9430    4.1870   77.0990 C.2    64  GLN64       0.2608
     18  OE1       -3.5300    5.2540   77.3250 O.2    64  GLN64      -0.2717
     19  NE2       -1.8000    3.8720   77.6750 N.am   64  GLN64      -0.0878
     20  N         -8.2860    5.0750   75.2900 N.3    66  THR66      -0.1218
     21  CA        -8.2220    6.4200   75.8490 C.3    66  THR66       0.1862
     22  C         -9.5420    7.1450   75.6520 C.2    66  THR66       0.2287
     23  O        -10.2170    6.9810   74.6240 O.2    66  THR66      -0.2866
     24  CB        -7.1090    7.2280   75.1900 C.3    66  THR66       0.1770
     25  OG1       -7.4130    7.3950   73.7970 O.3    66  THR66      -0.2211
     26  CG2       -5.7920    6.4860   75.3200 C.3    66  THR66       0.0375
     27  N        -11.0150   13.2610   78.5720 N.3    69  ASP69      -0.1239
     28  CA       -11.0720   13.6690   79.9690 C.3    69  ASP69       0.1674
     29  C        -11.0380   15.1910   80.1150 C.2    69  ASP69       0.2266
     30  O        -10.6050   15.7010   81.1580 O.2    69  ASP69      -0.2867
     31  CB        -9.9370   13.0130   80.7580 C.3    69  ASP69       0.1410
     32  CG        -8.5750   13.4360   80.2820 C.2    69  ASP69       0.3668
     33  OD1       -7.5900   13.1300   80.9870 O.co2  69  ASP69      -0.2456
     34  OD2       -8.4790   14.0840   79.2170 O.co2  69  ASP69      -0.2456
     35  N         -9.3910    8.5200   82.3330 N.3    88  LEU88      -0.1231
     36  CA        -8.4280    8.7990   81.2680 C.3    88  LEU88       0.1693
     37  C         -8.3320    7.6550   80.2750 C.2    88  LEU88       0.2591
     38  O         -8.3790    7.8710   79.0640 O.2    88  LEU88      -0.2718
     39  CB        -7.0400    9.0570   81.8860 C.3    88  LEU88       0.0284
     40  CG        -5.8390    9.1770   80.9500 C.3    88  LEU88       0.0019
     41  CD1       -6.1120   10.2770   79.9530 C.3    88  LEU88       0.0001
     42  CD2       -4.5470    9.4220   81.7000 C.3    88  LEU88       0.0001
     43  N         -8.1770    6.4330   80.7720 N.am   89  GLN89      -0.1979
     44  CA        -7.8560    5.2940   79.9150 C.3    89  GLN89       0.1601
     45  C         -8.0990    4.0070   80.6970 C.2    89  GLN89       0.2287
     46  O         -8.1740    4.0210   81.9300 O.2    89  GLN89      -0.2864
     47  CB        -6.4010    5.3480   79.4340 C.3    89  GLN89       0.0394
     48  CG        -5.3910    5.4520   80.5820 C.3    89  GLN89       0.0908
     49  CD        -4.6360    4.1520   80.9030 C.2    89  GLN89       0.2608
     50  OE1       -5.1520    3.0280   80.7410 O.2    89  GLN89      -0.2717
     51  NE2       -3.3940    4.3130   81.3500 N.am   89  GLN89      -0.0878
     52  N         -6.6390   -0.2620   80.4640 N.3    91  HIS91      -0.1241
     53  CA        -5.6940   -1.1870   79.8600 C.3    91  HIS91       0.1621
     54  C         -5.7370   -2.4820   80.6600 C.2    91  HIS91       0.2264
     55  O         -6.3930   -2.5660   81.7020 O.2    91  HIS91      -0.2867
     56  CB        -4.2700   -0.6180   79.8590 C.3    91  HIS91       0.0745
     57  CG        -3.7310   -0.3920   81.2360 C.ar   91  HIS91       0.0817
     58  ND1       -3.8870    0.7960   81.9160 N.ar   91  HIS91      -0.2268
     59  CD2       -3.0710   -1.2240   82.0790 C.ar   91  HIS91       0.1154
     60  CE1       -3.3340    0.6840   83.1150 C.ar   91  HIS91       0.1986
     61  NE2       -2.8440   -0.5350   83.2410 N.ar   91  HIS91      -0.2212
     62  N         -3.5160   -6.2280   82.0360 N.3    93  HIS93      -0.1241
     63  CA        -2.3260   -7.0300   82.3040 C.3    93  HIS93       0.1621
     64  C         -2.7370   -8.4970   82.2010 C.2    93  HIS93       0.2264
     65  O         -3.7940   -8.8690   82.7140 O.2    93  HIS93      -0.2867
     66  CB        -1.7450   -6.7080   83.7020 C.3    93  HIS93       0.0745
     67  CG        -1.4140   -5.2550   83.9160 C.ar   93  HIS93       0.0817
     68  ND1       -0.1940   -4.7170   83.5840 N.ar   93  HIS93      -0.2268
     69  CD2       -2.1590   -4.2300   84.3940 C.ar   93  HIS93       0.1154
     70  CE1       -0.1840   -3.4260   83.8750 C.ar   93  HIS93       0.1986
     71  NE2       -1.3720   -3.1010   84.3540 N.ar   93  HIS93      -0.2212
     72  N         -7.4760   -2.4290   84.4350 N.3   116  HIS116     -0.1241
     73  CA        -7.2250   -1.1990   85.1880 C.3   116  HIS116      0.1621
     74  C         -7.9390   -0.0310   84.5170 C.2   116  HIS116      0.2264
     75  O         -7.6200    0.3250   83.3720 O.2   116  HIS116     -0.2867
     76  CB        -5.7180   -0.9180   85.3030 C.3   116  HIS116      0.0745
     77  CG        -5.0190   -1.8580   86.2350 C.ar  116  HIS116      0.0817
     78  ND1       -3.6540   -2.0480   86.2470 N.ar  116  HIS116     -0.2268
     79  CD2       -5.5270   -2.6770   87.1910 C.ar  116  HIS116      0.1154
     80  CE1       -3.3530   -2.9370   87.1740 C.ar  116  HIS116      0.1986
     81  NE2       -4.4690   -3.3230   87.7760 N.ar  116  HIS116     -0.2212
     82  N         -8.2440    3.8070   84.8240 N.3   118  VAL118     -0.1245
     83  CA        -7.3470    4.8010   85.3930 C.3   118  VAL118      0.1561
     84  C         -8.0650    6.1540   85.4290 C.2   118  VAL118      0.2260
     85  O         -8.4870    6.6600   84.3810 O.2   118  VAL118     -0.2867
     86  CB        -6.0470    4.8840   84.5680 C.3   118  VAL118      0.0252
     87  CG1       -5.0730    5.8280   85.2010 C.3   118  VAL118      0.0019
     88  CG2       -5.4060    3.5140   84.3620 C.3   118  VAL118      0.0019
     89  N         -3.3890   15.0360   84.4100 N.3   127  VAL127     -0.1231
     90  CA        -2.8550   13.8020   84.9890 C.3   127  VAL127      0.1692
     91  C         -1.3580   13.9130   85.2830 C.2   127  VAL127      0.2592
     92  O         -0.8690   13.2790   86.2230 O.2   127  VAL127     -0.2718
     93  CB        -3.1770   12.5740   84.0930 C.3   127  VAL127      0.0266
     94  CG1       -2.7190   12.7560   82.7020 C.3   127  VAL127      0.0020
     95  CG2       -2.5740   11.3050   84.6800 C.3   127  VAL127      0.0020
     96  N         -0.6270   14.7690   84.5720 N.am  128  GLY128     -0.1957
     97  CA         0.7830   14.9570   84.8910 C.3   128  GLY128      0.1869
     98  C          1.0160   15.5960   86.2550 C.2   128  GLY128      0.2309
     99  O          2.0030   15.2800   86.9410 O.2   128  GLY128     -0.2863
    100  N         -0.0620   12.8050   89.0870 N.3   131  VAL131     -0.1245
    101  CA         0.8610   11.7220   89.4340 C.3   131  VAL131      0.1561
    102  C          1.8800   12.1840   90.4700 C.2   131  VAL131      0.2260
    103  O          2.4970   11.3490   91.1510 O.2   131  VAL131     -0.2867
    104  CB         1.5830   11.1290   88.2080 C.3   131  VAL131      0.0252
    105  CG1        0.5990   10.3950   87.3150 C.3   131  VAL131      0.0019
    106  CG2        2.3170   12.1970   87.4350 C.3   131  VAL131      0.0019
    107  N         -4.3980    9.8470   91.7470 N.3   137  LEU137     -0.1245
    108  CA        -5.0700    8.8990   90.8800 C.3   137  LEU137      0.1561
    109  C         -5.8940    7.9050   91.6960 C.2   137  LEU137      0.2260
    110  O         -5.5740    7.6050   92.8540 O.2   137  LEU137     -0.2867
    111  CB        -4.0470    8.1490   90.0030 C.3   137  LEU137      0.0270
    112  CG        -3.5990    8.7440   88.6620 C.3   137  LEU137      0.0019
    113  CD1       -2.9860   10.1290   88.7850 C.3   137  LEU137      0.0001
    114  CD2       -2.6120    7.8040   87.9430 C.3   137  LEU137      0.0001
    115  N         -7.3240    4.0470   90.6790 N.3   139  VAL139     -0.1245
    116  CA        -7.3820    2.9960   89.6710 C.3   139  VAL139      0.1561
    117  C         -8.3300    1.9260   90.1610 C.2   139  VAL139      0.2260
    118  O         -8.1890    1.4280   91.2850 O.2   139  VAL139     -0.2867
    119  CB        -6.0140    2.3830   89.3340 C.3   139  VAL139      0.0252
    120  CG1       -6.1660    1.3340   88.1830 C.3   139  VAL139      0.0019
    121  CG2       -5.0510    3.4800   88.9450 C.3   139  VAL139      0.0019
    122  N          1.5800    3.4140   90.8910 N.3   194  LEU194     -0.1231
    123  CA         1.5600    2.8720   89.5380 C.3   194  LEU194      0.1693
    124  C          2.3140    1.5450   89.5460 C.2   194  LEU194      0.2593
    125  O          3.2430    1.3580   90.3390 O.2   194  LEU194     -0.2718
    126  CB         2.2160    3.8680   88.5580 C.3   194  LEU194      0.0284
    127  CG         1.7740    5.3470   88.5380 C.3   194  LEU194      0.0019
    128  CD1        2.6470    6.1320   87.5650 C.3   194  LEU194      0.0001
    129  CD2        0.2980    5.4660   88.1510 C.3   194  LEU194      0.0001
    130  N          1.8790    0.5870   88.7050 N.am  195  THR195     -0.1939
    131  CA         2.5720   -0.7060   88.6010 C.3   195  THR195      0.2028
    132  C          3.5440   -0.7920   87.4300 C.2   195  THR195      0.2643
    133  O          4.1400   -1.8570   87.2080 O.2   195  THR195     -0.2714
    134  CB         1.5710   -1.8530   88.4900 C.3   195  THR195      0.1808
    135  OG1        0.8630   -1.7550   87.2560 O.3   195  THR195     -0.2208
    136  CG2        0.6100   -1.8200   89.6680 C.3   195  THR195      0.0379
    137  N          3.6930    0.2850   86.6740 N.am  196  THR196     -0.1937
    138  CA         4.7090    0.4330   85.6520 C.3   196  THR196      0.2013
    139  C          5.4640    1.7230   85.9260 C.2   196  THR196      0.2484
    140  O          4.9510    2.6290   86.6030 O.2   196  THR196     -0.2729
    141  CB         4.1070    0.4550   84.2270 C.3   196  THR196      0.1807
    142  OG1        3.0960    1.4740   84.1060 O.3   196  THR196     -0.2208
    143  CG2        3.4860   -0.8860   83.8610 C.3   196  THR196      0.0379
    144  N          6.6900    1.8380   85.4310 N.am  197  PRO197     -0.2715
    145  CA         7.4180    3.0750   85.6010 C.3   197  PRO197      0.1521
    146  C          6.5560    4.2590   85.2070 C.2   197  PRO197      0.2440
    147  O          5.7760    4.1960   84.2380 O.2   197  PRO197     -0.2731
    148  CB         8.6160    2.8980   84.6700 C.3   197  PRO197      0.0310
    149  CG         8.9210    1.4370   84.8250 C.3   197  PRO197      0.0237
    150  CD         7.5680    0.7580   84.9500 C.3   197  PRO197      0.0939
    151  N          6.6700    5.3700   85.9320 N.am  198  PRO198     -0.2727
    152  CA         7.6310    5.6750   87.0070 C.3   198  PRO198      0.1402
    153  C          7.3130    5.1470   88.4300 C.2   198  PRO198      0.2269
    154  O          7.9800    5.5410   89.4100 O.2   198  PRO198     -0.2865
    155  CB         7.6270    7.2030   87.0230 C.3   198  PRO198      0.0296
    156  CG         6.2390    7.5550   86.6210 C.3   198  PRO198      0.0237
    157  CD         5.8120    6.5130   85.6100 C.3   198  PRO198      0.0939
    158  N         -5.9490    2.6230   95.2960 N.3   205  TRP205     -0.1241
    159  CA        -6.3620    1.3920   94.6310 C.3   205  TRP205      0.1605
    160  C         -7.7370    0.9890   95.1250 C.2   205  TRP205      0.2264
    161  O         -8.0010    1.0070   96.3300 O.2   205  TRP205     -0.2867
    162  CB        -5.3550    0.2620   94.8830 C.3   205  TRP205      0.0550
    163  CG        -4.2630    0.3580   93.8910 C.ar  205  TRP205      0.0003
    164  CD1       -3.0370    0.9180   94.0740 C.ar  205  TRP205      0.0946
    165  CD2       -4.3370   -0.0260   92.5110 C.ar  205  TRP205      0.0152
    166  NE1       -2.3340    0.8900   92.8980 N.ar  205  TRP205     -0.2442
    167  CE2       -3.1030    0.2960   91.9280 C.ar  205  TRP205      0.0810
    168  CE3       -5.3190   -0.6440   91.7230 C.ar  205  TRP205      0.0012
    169  CZ2       -2.8140    0.0320   90.5820 C.ar  205  TRP205      0.0191
    170  CZ3       -5.0310   -0.9210   90.3920 C.ar  205  TRP205      0.0001
    171  CH2       -3.7830   -0.5760   89.8390 C.ar  205  TRP205      0.0015
@<TRIPOS>BOND
     1    25    24    1
     2    14    13    2
     3    23    22    2
     4    24    26    1
     5    24    21    1
     6    13    12    1
     7    20    21    1
     8    11    12    1
     9    22    21    1
    10    12    15    1
    11    16    15    1
    12    16    17    1
    13     1     2    1
    14    17    18    2
    15    17    19   am
    16     2     3    1
    17     2     5    1
    18     3     4    2
    19     8    10   ar
    20     8     6   ar
    21    27    28    1
    22    10     9   ar
    23     5     6    1
    24     6     7   ar
    25    38    37    2
    26    34    32   ar
    27     9     7   ar
    28    47    44    1
    29    47    48    1
    30    56    53    1
    31    56    57    1
    32    53    52    1
    33    53    54    1
    34    44    45    1
    35    44    43    1
    36    41    40    1
    37    28    29    1
    38    28    31    1
    39    29    30    2
    40    37    43   am
    41    37    36    1
    42    32    31    1
    43    32    33   ar
    44    48    49    1
    45    54    55    2
    46    45    46    2
    47    50    49    2
    48    49    51   am
    49    40    42    1
    50    40    39    1
    51    57    58   ar
    52    57    59   ar
    53    36    39    1
    54    36    35    1
    55    58    60   ar
    56    62    63    1
    57    59    61   ar
    58    64    63    1
    59    64    65    2
    60    63    66    1
    61    94    93    1
    62    60    61   ar
    63    75    74    2
    64    68    70   ar
    65    68    67   ar
    66    66    67    1
    67   143   141    1
    68    70    71   ar
    69    67    69   ar
    70    93    95    1
    71    93    90    1
    72   142   141    1
    73   141   138    1
    74   147   146    2
    75    71    69   ar
    76    88    86    1
    77    85    84    2
    78    89    90    1
    79    72    73    1
    80    74    73    1
    81    86    87    1
    82    86    83    1
    83    96    97    1
    84    96    91   am
    85   148   149    1
    86   148   145    1
    87    82    83    1
    88   149   150    1
    89    97    98    1
    90   150   144    1
    91    90    91    1
    92    73    76    1
    93   146   145    1
    94   146   151   am
    95    91    92    2
    96    76    77    1
    97    83    84    1
    98   144   145    1
    99   144   139   am
   100   157   151    1
   101   157   156    1
   102   138   139    1
   103   138   137    1
   104   139   140    2
   105   151   152    1
   106    77    78   ar
   107    77    79   ar
   108    78    80   ar
   109    98    99    2
   110   156   155    1
   111   137   132   am
   112   152   155    1
   113   152   153    1
   114    80    81   ar
   115    79    81   ar
   116   133   132    2
   117   135   134    1
   118   105   104    1
   119   132   131    1
   120   106   104    1
   121   128   127    1
   122   114   112    1
   123   129   127    1
   124   120   119    1
   125   104   101    1
   126   153   154    2
   127   134   131    1
   128   134   136    1
   129   127   126    1
   130   126   123    1
   131   131   130    1
   132   112   113    1
   133   112   111    1
   134   130   124   am
   135   121   119    1
   136   100   101    1
   137   119   116    1
   138   101   102    1
   139   123   124    1
   140   123   122    1
   141   124   125    2
   142   116   117    1
   143   116   115    1
   144   171   170   ar
   145   171   169   ar
   146   111   108    1
   147   117   118    2
   148   170   168   ar
   149   102   103    2
   150   169   167   ar
   151   108   109    1
   152   108   107    1
   153   109   110    2
   154   168   165   ar
   155   167   165   ar
   156   167   166   ar
   157   165   163   ar
   158   166   164   ar
   159   163   164   ar
   160   163   162    1
   161   159   162    1
   162   159   160    1
   163   159   158    1
   164   160   161    2
