@<TRIPOS>MOLECULE
tmp/6b5dA00.pdb
 126 119 0 0 0
SMALL
GASTEIGER

@<TRIPOS>ATOM
      1  N         79.1440   44.0390   -2.5050 N.3    29  ASP29      -0.1225
      2  CA        78.1180   43.0150   -2.6470 C.3    29  ASP29       0.1805
      3  C         78.1390   42.0250   -1.4890 C.2    29  ASP29       0.2598
      4  O         77.6080   40.9140   -1.6140 O.2    29  ASP29      -0.2718
      5  CB        78.2730   42.2850   -3.9820 C.3    29  ASP29       0.1424
      6  CG        78.2320   43.2270   -5.1700 C.2    29  ASP29       0.3668
      7  OD1       78.6250   42.8130   -6.2810 O.co2  29  ASP29      -0.2456
      8  OD2       77.8090   44.3890   -4.9890 O.co2  29  ASP29      -0.2456
      9  N         78.7460   42.4070   -0.3680 N.am   30  ILE30      -0.1966
     10  CA        78.7970   41.5950    0.8400 C.3    30  ILE30       0.1727
     11  C         78.0730   42.3540    1.9410 C.2    30  ILE30       0.2616
     12  O         78.1350   43.5870    1.9950 O.2    30  ILE30      -0.2715
     13  CB        80.2520   41.2880    1.2540 C.3    30  ILE30       0.0290
     14  CG1       81.0500   40.7340    0.0700 C.3    30  ILE30       0.0022
     15  CG2       80.2910   40.3180    2.4210 C.3    30  ILE30       0.0023
     16  CD1       80.6090   39.3740   -0.3760 C.3    30  ILE30       0.0001
     17  N         77.3800   41.6260    2.8100 N.am   31  ILE31      -0.1977
     18  CA        76.6420   42.2200    3.9180 C.3    31  ILE31       0.1596
     19  C         77.4900   42.0720    5.1730 C.2    31  ILE31       0.2287
     20  O         77.7080   40.9570    5.6610 O.2    31  ILE31      -0.2864
     21  CB        75.2620   41.5750    4.0960 C.3    31  ILE31       0.0276
     22  CG1       74.4340   41.7160    2.8170 C.3    31  ILE31       0.0022
     23  CG2       74.5310   42.2100    5.2680 C.3    31  ILE31       0.0022
     24  CD1       74.1770   43.1490    2.4100 C.3    31  ILE31       0.0001
     25  N         80.0440   27.3920    8.8800 N.3    68  PRO68      -0.2102
     26  CA        79.7790   27.2720    7.4430 C.3    68  PRO68       0.1504
     27  C         78.7990   28.3280    6.9560 C.2    68  PRO68       0.2576
     28  O         77.9620   28.8330    7.7090 O.2    68  PRO68      -0.2718
     29  CB        79.1930   25.8620    7.3070 C.3    68  PRO68       0.0282
     30  CG        78.6040   25.5740    8.6470 C.3    68  PRO68       0.0208
     31  CD        79.5150   26.2420    9.6360 C.3    68  PRO68       0.0893
     32  N         78.9200   28.6620    5.6730 N.am   69  GLY69      -0.1943
     33  CA        78.0240   29.6210    5.0550 C.3    69  GLY69       0.2014
     34  C         78.1720   31.0460    5.5350 C.2    69  GLY69       0.2640
     35  O         77.2480   31.8450    5.3640 O.2    69  GLY69      -0.2714
     36  N         79.3150   31.3910    6.1280 N.am   70  THR70      -0.1936
     37  CA        79.5450   32.7370    6.6380 C.3    70  THR70       0.2028
     38  C         80.0690   33.7020    5.5820 C.2    70  THR70       0.2643
     39  O         80.1500   34.9040    5.8540 O.2    70  THR70      -0.2714
     40  CB        80.5200   32.6910    7.8160 C.3    70  THR70       0.1808
     41  OG1       81.5530   31.7330    7.5490 O.3    70  THR70      -0.2208
     42  CG2       79.7900   32.3150    9.0960 C.3    70  THR70       0.0379
     43  N         80.4220   33.2170    4.3990 N.am   71  GLY71      -0.1939
     44  CA        80.8780   34.0670    3.3260 C.3    71  GLY71       0.2014
     45  C         82.3710   34.0830    3.0850 C.2    71  GLY71       0.2639
     46  O         82.8870   35.0870    2.5820 O.2    71  GLY71      -0.2714
     47  N         83.0820   33.0050    3.4240 N.am   72  LYS72      -0.1963
     48  CA        84.5260   32.9790    3.2180 C.3    72  LYS72       0.1728
     49  C         84.8820   32.9040    1.7380 C.2    72  LYS72       0.2617
     50  O         85.9010   33.4610    1.3170 O.2    72  LYS72      -0.2715
     51  CB        85.1420   31.8050    3.9800 C.3    72  LYS72       0.0311
     52  CG        84.5050   31.5470    5.3400 C.3    72  LYS72       0.0038
     53  CD        85.3520   30.6060    6.1860 C.3    72  LYS72       0.0206
     54  CE        84.4910   29.6700    7.0220 C.3    72  LYS72       0.1093
     55  NZ        83.7680   28.6670    6.1880 N.3    72  LYS72      -0.1314
     56  N         84.0600   32.2270    0.9350 N.am   73  THR73      -0.1937
     57  CA        84.3170   32.1630   -0.4990 C.3    73  THR73       0.2028
     58  C         83.9300   33.4660   -1.1880 C.2    73  THR73       0.2642
     59  O         84.6220   33.9120   -2.1090 O.2    73  THR73      -0.2714
     60  CB        83.5610   30.9860   -1.1200 C.3    73  THR73       0.1808
     61  OG1       83.7620   29.8120   -0.3220 O.3    73  THR73      -0.2208
     62  CG2       84.0540   30.7230   -2.5390 C.3    73  THR73       0.0379
     63  N         82.8260   34.0830   -0.7570 N.am   74  LEU74      -0.1977
     64  CA        82.4330   35.3840   -1.2880 C.3    74  LEU74       0.1596
     65  C         83.5400   36.4090   -1.0970 C.2    74  LEU74       0.2287
     66  O         84.0040   37.0340   -2.0580 O.2    74  LEU74      -0.2864
     67  CB        81.1540   35.8680   -0.6070 C.3    74  LEU74       0.0297
     68  CG        79.7970   35.6110   -1.2530 C.3    74  LEU74       0.0022
     69  CD1       78.7730   36.5090   -0.5910 C.3    74  LEU74       0.0001
     70  CD2       79.8510   35.8600   -2.7490 C.3    74  LEU74       0.0001
     71  N         89.2100   25.7630    0.0220 N.3   121  ASP121     -0.1239
     72  CA        88.0890   25.5740    0.9280 C.3   121  ASP121      0.1674
     73  C         88.2140   24.2400    1.6510 C.2   121  ASP121      0.2266
     74  O         88.6300   23.2380    1.0610 O.2   121  ASP121     -0.2867
     75  CB        86.7600   25.6410    0.1750 C.3   121  ASP121      0.1410
     76  CG        85.5770   25.8180    1.1040 C.2   121  ASP121      0.3668
     77  OD1       85.7320   26.5060    2.1360 O.co2 121  ASP121     -0.2456
     78  OD2       84.4940   25.2740    0.8020 O.co2 121  ASP121     -0.2456
     79  N         86.0010   25.2380    8.2540 N.3   153  ASN153     -0.1240
     80  CA        84.9240   25.2830    9.2320 C.3   153  ASN153      0.1653
     81  C         85.2990   24.5950   10.5350 C.2   153  ASN153      0.2266
     82  O         84.6530   24.8440   11.5600 O.2   153  ASN153     -0.2867
     83  CB        83.6550   24.6510    8.6560 C.3   153  ASN153      0.1155
     84  CG        83.3660   25.1180    7.2440 C.2   153  ASN153      0.2627
     85  OD1       82.9360   26.2510    7.0300 O.2   153  ASN153     -0.2716
     86  ND2       83.6050   24.2460    6.2720 N.am  153  ASN153     -0.0877
     87  N         76.3000   36.5850   10.9800 N.3   175  PRO175     -0.2116
     88  CA        75.6990   37.9120   10.7980 C.3   175  PRO175      0.1372
     89  C         74.8080   38.2780   11.9760 C.2   175  PRO175      0.2244
     90  O         73.9780   37.4820   12.4230 O.2   175  PRO175     -0.2868
     91  CB        74.8990   37.7650    9.4970 C.3   175  PRO175      0.0268
     92  CG        74.6700   36.2970    9.3490 C.3   175  PRO175      0.0207
     93  CD        75.8740   35.6320    9.9410 C.3   175  PRO175      0.0892
     94  N         70.4280   40.9730    4.7270 N.3   183  LEU183     -0.1245
     95  CA        70.6000   39.7310    3.9800 C.3   183  LEU183      0.1561
     96  C         69.2570   39.1700    3.5200 C.2   183  LEU183      0.2260
     97  O         69.1380   38.6770    2.3920 O.2   183  LEU183     -0.2867
     98  CB        71.3520   38.7100    4.8350 C.3   183  LEU183      0.0270
     99  CG        72.8360   38.5230    4.5070 C.3   183  LEU183      0.0019
    100  CD1       73.5790   37.8490    5.6530 C.3   183  LEU183      0.0001
    101  CD2       72.9870   37.7170    3.2250 C.3   183  LEU183      0.0001
    102  N         68.0640   41.4130    0.7950 N.3   186  LYS186     -0.1245
    103  CA        68.8630   41.1820   -0.4050 C.3   186  LYS186      0.1561
    104  C         68.4470   39.8940   -1.1070 C.2   186  LYS186      0.2260
    105  O         68.3780   39.8460   -2.3410 O.2   186  LYS186     -0.2867
    106  CB        70.3480   41.1420   -0.0480 C.3   186  LYS186      0.0271
    107  CG        71.2660   40.8120   -1.2140 C.3   186  LYS186      0.0035
    108  CD        72.6570   40.4320   -0.7270 C.3   186  LYS186      0.0206
    109  CE        73.5770   40.0810   -1.8860 C.3   186  LYS186      0.1093
    110  NZ        73.8330   41.2530   -2.7680 N.3   186  LYS186     -0.1314
    111  N         74.7470   33.4060    6.7370 N.3   210  GLY210     -0.1210
    112  CA        74.3000   33.9520    5.4670 C.3   210  GLY210      0.1956
    113  C         73.6940   32.9010    4.5580 C.2   210  GLY210      0.2611
    114  O         72.7400   33.1740    3.8270 O.2   210  GLY210     -0.2717
    115  N         74.2400   31.6830    4.5890 N.am  211  ALA211     -0.1979
    116  CA        73.6620   30.6030    3.7970 C.3   211  ALA211      0.1597
    117  C         72.3480   30.1170    4.3920 C.2   211  ALA211      0.2287
    118  O         71.4610   29.6730    3.6550 O.2   211  ALA211     -0.2864
    119  CB        74.6530   29.4470    3.6760 C.3   211  ALA211      0.0319
    120  N         69.5810   32.7690    3.2360 N.3   214  VAL214     -0.1245
    121  CA        69.1470   32.5460    1.8630 C.3   214  VAL214      0.1561
    122  C         68.4330   31.2020    1.7400 C.2   214  VAL214      0.2260
    123  O         67.5690   31.0290    0.8730 O.2   214  VAL214     -0.2867
    124  CB        70.3440   32.6660    0.8970 C.3   214  VAL214      0.0252
    125  CG1       71.2980   31.4930    1.0560 C.3   214  VAL214      0.0019
    126  CG2       69.8670   32.7940   -0.5440 C.3   214  VAL214      0.0019
@<TRIPOS>BOND
     1     7     6   ar
     2     6     8   ar
     3     6     5    1
     4     5     2    1
     5   110   109    1
     6    70    68    1
     7     2     1    1
     8     2     3    1
     9    62    60    1
    10   105   104    2
    11    59    58    2
    12    66    65    2
    13   109   108    1
    14     4     3    2
    15     3     9   am
    16    64    65    1
    17    64    63    1
    18    64    67    1
    19    68    67    1
    20    68    69    1
    21   107   108    1
    22   107   106    1
    23    58    63   am
    24    58    57    1
    25    60    57    1
    26    60    61    1
    27   104   103    1
    28   126   124    1
    29    57    56    1
    30   103   106    1
    31   103   102    1
    32    16    14    1
    33     9    10    1
    34    71    72    1
    35    14    13    1
    36    75    72    1
    37    75    76    1
    38    78    76   ar
    39    10    13    1
    40    10    11    1
    41   123   122    2
    42   124   125    1
    43   124   121    1
    44    72    73    1
    45    56    49   am
    46    74    73    2
    47    76    77   ar
    48    13    15    1
    49    50    49    2
    50    49    48    1
    51   122   121    1
    52   121   120    1
    53    11    12    2
    54    11    17   am
    55    97    96    2
    56    24    22    1
    57    46    45    2
    58    17    18    1
    59    22    21    1
    60    45    44    1
    61    45    47   am
    62    48    47    1
    63    48    51    1
    64   101    99    1
    65    44    43    1
    66    96    95    1
    67   118   117    2
    68   119   116    1
    69   116   117    1
    70   116   115    1
    71   114   113    2
    72    18    21    1
    73    18    19    1
    74    51    52    1
    75    95    94    1
    76    95    98    1
    77    21    23    1
    78    43    38   am
    79    99    98    1
    80    99   100    1
    81   113   115   am
    82   113   112    1
    83    33    34    1
    84    33    32    1
    85    19    20    2
    86    52    53    1
    87    35    34    2
    88   112   111    1
    89    34    36   am
    90    38    39    2
    91    38    37    1
    92    32    27   am
    93    36    37    1
    94    53    54    1
    95    55    54    1
    96    86    84   am
    97    37    40    1
    98    27    26    1
    99    27    28    2
   100    85    84    2
   101    84    83    1
   102    29    26    1
   103    29    30    1
   104    26    25    1
   105    41    40    1
   106    40    42    1
   107    79    80    1
   108    30    31    1
   109    83    80    1
   110    25    31    1
   111    80    81    1
   112    92    91    1
   113    92    93    1
   114    91    88    1
   115    93    87    1
   116    81    82    2
   117    88    87    1
   118    88    89    1
   119    89    90    2
