@<TRIPOS>MOLECULE
tmp/6b5eC01.pdb
 128 126 0 0 0
SMALL
GASTEIGER

@<TRIPOS>ATOM
      1  N        -13.7080   -5.6110   41.3750 N.3    43  MET43      -0.1245
      2  CA       -14.2520   -5.7680   42.7270 C.3    43  MET43       0.1570
      3  C        -15.6460   -5.1690   42.9320 C.2    43  MET43       0.2261
      4  O        -16.3910   -5.6860   43.8010 O.2    43  MET43      -0.2867
      5  CB       -13.2790   -5.2450   43.7950 C.3    43  MET43       0.0387
      6  CG       -12.0720   -6.1700   43.9100 C.3    43  MET43       0.0595
      7  SD       -10.8210   -5.6550   45.0990 S.3    43  MET43      -0.1393
      8  CE       -10.4200   -4.0390   44.4900 C.3    43  MET43       0.0692
      9  N         -6.6970    2.6480   44.8070 N.3   111  PHE111     -0.1227
     10  CA        -7.5990    2.6500   45.9340 C.3   111  PHE111      0.1736
     11  C         -7.3340    1.3880   46.7250 C.2   111  PHE111      0.2595
     12  O         -7.4780    0.2640   46.2040 O.2   111  PHE111     -0.2718
     13  CB        -9.0590    2.6270   45.4270 C.3   111  PHE111      0.0547
     14  CG        -9.4990    3.9110   44.8090 C.ar  111  PHE111     -0.0202
     15  CD1       -9.3340    4.1460   43.4320 C.ar  111  PHE111     -0.0042
     16  CD2      -10.0370    4.9080   45.5870 C.ar  111  PHE111     -0.0042
     17  CE1       -9.7090    5.3480   42.8870 C.ar  111  PHE111     -0.0003
     18  CE2      -10.4160    6.1140   45.0390 C.ar  111  PHE111     -0.0003
     19  CZ       -10.2730    6.3240   43.6630 C.ar  111  PHE111     -0.0000
     20  N         -7.0380    1.5580   48.0150 N.am  112  TYR112     -0.1962
     21  CA        -6.7970    0.4520   48.8840 C.3   112  TYR112      0.1771
     22  C         -7.4440    0.6630   50.2680 C.2   112  TYR112      0.2620
     23  O         -7.3070    1.7000   50.8730 O.2   112  TYR112     -0.2715
     24  CB        -5.3050    0.2240   49.0850 C.3   112  TYR112      0.0574
     25  CG        -5.1020   -0.9290   50.0130 C.ar  112  TYR112     -0.0198
     26  CD1       -5.2790   -2.2250   49.5700 C.ar  112  TYR112     -0.0009
     27  CD2       -4.8080   -0.7150   51.3730 C.ar  112  TYR112     -0.0009
     28  CE1       -5.1170   -3.2930   50.4310 C.ar  112  TYR112      0.0417
     29  CE2       -4.6530   -1.7780   52.2420 C.ar  112  TYR112      0.0417
     30  CZ        -4.7930   -3.0620   51.7610 C.ar  112  TYR112      0.1957
     31  OH        -4.6720   -4.1290   52.5920 O.3   112  TYR112     -0.2866
     32  N         -8.1460   -0.3490   50.7300 N.am  113  GLY113     -0.1940
     33  CA        -8.5640   -0.4090   52.1230 C.3   113  GLY113      0.1998
     34  C        -10.0510   -0.6480   52.3060 C.2   113  GLY113      0.2481
     35  O        -10.7460   -1.0670   51.3670 O.2   113  GLY113     -0.2729
     36  N        -10.5270   -0.4190   53.5410 N.am  114  PRO114     -0.2715
     37  CA       -11.9130   -0.6100   53.9350 C.3   114  PRO114      0.1536
     38  C        -12.8700    0.1450   53.0390 C.2   114  PRO114      0.2599
     39  O        -12.7430    1.3890   52.8470 O.2   114  PRO114     -0.2715
     40  CB       -11.9570   -0.0420   55.3760 C.3   114  PRO114      0.0310
     41  CG       -10.5600   -0.2670   55.8910 C.3   114  PRO114      0.0237
     42  CD        -9.6800   -0.0550   54.6960 C.3   114  PRO114      0.0939
     43  N        -13.8560   -0.6020   52.5510 N.am  115  GLY115     -0.1941
     44  CA       -14.8760   -0.0350   51.6790 C.3   115  GLY115      0.2014
     45  C        -14.4610    0.1190   50.2070 C.2   115  GLY115      0.2639
     46  O        -15.2370    0.6190   49.4140 O.2   115  GLY115     -0.2714
     47  N        -13.2520   -0.3050   49.8400 N.am  116  LEU116     -0.1963
     48  CA       -12.7550   -0.1170   48.4670 C.3   116  LEU116      0.1728
     49  C        -12.5210   -1.4530   47.7720 C.2   116  LEU116      0.2617
     50  O        -11.8350   -1.5420   46.7410 O.2   116  LEU116     -0.2715
     51  CB       -11.5100    0.7740   48.4820 C.3   116  LEU116      0.0311
     52  CG       -11.8340    2.2020   48.9450 C.3   116  LEU116      0.0022
     53  CD1      -10.5770    3.0420   49.1820 C.3   116  LEU116      0.0001
     54  CD2      -12.7460    2.9160   47.9540 C.3   116  LEU116      0.0001
     55  N        -13.1250   -2.4900   48.3330 N.am  117  GLY117     -0.1940
     56  CA       -13.0700   -3.8360   47.8000 C.3   117  GLY117      0.2014
     57  C        -14.4010   -4.3020   47.2170 C.2   117  GLY117      0.2640
     58  O        -15.0900   -3.5490   46.5550 O.2   117  GLY117     -0.2714
     59  N        -14.7140   -5.5540   47.4630 N.am  118  THR118     -0.1936
     60  CA       -15.9180   -6.1880   46.9300 C.3   118  THR118      0.2028
     61  C        -17.1650   -5.4890   47.4820 C.2   118  THR118      0.2642
     62  O        -18.2610   -5.5890   46.9100 O.2   118  THR118     -0.2714
     63  CB       -15.9190   -7.6940   47.2130 C.3   118  THR118      0.1808
     64  OG1      -15.9000   -7.9100   48.6300 O.3   118  THR118     -0.2208
     65  CG2      -14.6680   -8.3520   46.6120 C.3   118  THR118      0.0379
     66  N        -17.0060   -4.7260   48.5610 N.am  119  SER119     -0.1949
     67  CA       -18.1160   -3.9160   49.0500 C.3   119  SER119      0.1924
     68  C        -18.5650   -2.8650   48.0360 C.2   119  SER119      0.2314
     69  O        -19.6540   -2.3290   48.1490 O.2   119  SER119     -0.2863
     70  CB       -17.7810   -3.2800   50.4040 C.3   119  SER119      0.2116
     71  OG       -17.0980   -2.0590   50.2820 O.3   119  SER119     -0.2180
     72  N         -0.8070   -9.2350   48.8490 N.3   246  LYS246     -0.1231
     73  CA        -0.6320   -8.7520   47.4760 C.3   246  LYS246      0.1693
     74  C         -1.9470   -8.0720   47.1230 C.2   246  LYS246      0.2592
     75  O         -3.0030   -8.6710   47.2360 O.2   246  LYS246     -0.2718
     76  CB        -0.3070   -9.8980   46.5090 C.3   246  LYS246      0.0285
     77  CG         1.1870  -10.3070   46.3940 C.3   246  LYS246      0.0035
     78  CD         1.6010  -10.6250   44.9540 C.3   246  LYS246      0.0206
     79  CE         3.0830  -10.9620   44.7760 C.3   246  LYS246      0.1093
     80  NZ         4.0540   -9.8120   44.7020 N.3   246  LYS246     -0.1314
     81  N         -1.8880   -6.8190   46.7320 N.am  247  VAL247     -0.1966
     82  CA        -3.1090   -6.0880   46.4200 C.3   247  VAL247      0.1727
     83  C         -3.3770   -5.8540   44.9250 C.2   247  VAL247      0.2617
     84  O         -2.4570   -5.6340   44.1260 O.2   247  VAL247     -0.2715
     85  CB        -3.1860   -4.7870   47.1810 C.3   247  VAL247      0.0290
     86  CG1       -3.1420   -5.1010   48.6730 C.3   247  VAL247      0.0023
     87  CG2       -2.0740   -3.8230   46.7990 C.3   247  VAL247      0.0023
     88  N         -4.6550   -5.8620   44.5730 N.am  248  SER248     -0.1936
     89  CA        -5.0950   -5.5910   43.1860 C.3   248  SER248      0.2055
     90  C         -4.4950   -6.5900   42.1710 C.2   248  SER248      0.2642
     91  O         -4.0230   -6.2180   41.0930 O.2   248  SER248     -0.2714
     92  CB        -4.8420   -4.1420   42.8080 C.3   248  SER248      0.2130
     93  OG        -5.5090   -3.2980   43.7280 O.3   248  SER248     -0.2179
     94  N         -4.5290   -7.8590   42.5470 N.am  249  ILE249     -0.1977
     95  CA        -4.1320   -8.9740   41.6820 C.3   249  ILE249      0.1596
     96  C         -5.3920   -9.4550   40.9170 C.2   249  ILE249      0.2287
     97  O         -6.2600  -10.1070   41.5030 O.2   249  ILE249     -0.2864
     98  CB        -3.5460  -10.1040   42.5220 C.3   249  ILE249      0.0276
     99  CG1       -2.2920   -9.6100   43.2630 C.3   249  ILE249      0.0022
    100  CG2       -3.2130  -11.3070   41.6480 C.3   249  ILE249      0.0022
    101  CD1       -1.0540   -9.5380   42.4070 C.3   249  ILE249      0.0001
    102  N         -6.6520  -13.0480   41.0550 N.3   252  GLU252     -0.1231
    103  CA        -7.1770  -13.4060   42.3680 C.3   252  GLU252      0.1699
    104  C         -8.6000  -12.9600   42.4930 C.2   252  GLU252      0.2592
    105  O         -9.4590  -13.7290   42.9090 O.2   252  GLU252     -0.2718
    106  CB        -6.3300  -12.8290   43.4930 C.3   252  GLU252      0.0402
    107  CG        -6.9830  -13.0300   44.8570 C.3   252  GLU252      0.1161
    108  CD        -6.1400  -12.5810   46.0300 C.2   252  GLU252      0.3649
    109  OE1       -5.0910  -11.9170   45.8480 O.co2 252  GLU252     -0.2457
    110  OE2       -6.5920  -12.8700   47.1520 O.co2 252  GLU252     -0.2457
    111  N         -8.8800  -11.7240   42.1180 N.am  253  VAL253     -0.1980
    112  CA       -10.2460  -11.2270   42.2240 C.3   253  VAL253      0.1595
    113  C        -11.1910  -12.0350   41.3440 C.2   253  VAL253      0.2287
    114  O        -12.3000  -12.3740   41.7930 O.2   253  VAL253     -0.2864
    115  CB       -10.3630   -9.7390   41.8700 C.3   253  VAL253      0.0276
    116  CG1      -11.8270   -9.3070   41.7860 C.3   253  VAL253      0.0022
    117  CG2       -9.6100   -8.9110   42.8850 C.3   253  VAL253      0.0022
    118  N        -11.8010  -15.4150   42.9450 N.3   256  ARG256     -0.1245
    119  CA       -12.7030  -15.2570   44.1060 C.3   256  ARG256      0.1563
    120  C        -14.1630  -15.0390   43.6880 C.2   256  ARG256      0.2260
    121  O        -15.0830  -15.5000   44.3770 O.2   256  ARG256     -0.2867
    122  CB       -12.2610  -14.1170   45.0380 C.3   256  ARG256      0.0307
    123  CG       -11.0270  -14.4230   45.8760 C.3   256  ARG256      0.0489
    124  CD       -10.6320  -13.2680   46.7960 C.3   256  ARG256      0.2205
    125  NE        -9.3620  -13.5780   47.4640 N.pl3 256  ARG256     -0.0865
    126  CZ        -9.2270  -14.4540   48.4590 C.cat 256  ARG256      0.5346
    127  NH1      -10.2810  -15.0890   48.9630 N.pl3 256  ARG256      0.1354
    128  NH2       -8.0280  -14.6920   48.9720 N.pl3 256  ARG256      0.1354
@<TRIPOS>BOND
     1    96    97    2
     2    96    95    1
     3   102   103    1
     4    91    90    2
     5   113   114    2
     6   113   112    1
     7     1     2    1
     8   100    98    1
     9    95    98    1
    10    95    94    1
    11   116   115    1
    12   115   112    1
    13   115   117    1
    14   111   112    1
    15   111   104   am
    16    90    94   am
    17    90    89    1
    18   103   104    1
    19   103   106    1
    20   101    99    1
    21   104   105    2
    22    98    99    1
    23     2     3    1
    24     2     5    1
    25    92    89    1
    26    92    93    1
    27    17    15   ar
    28    17    19   ar
    29     3     4    2
    30   118   119    1
    31    89    88    1
    32    15    14   ar
    33   106   107    1
    34    19    18   ar
    35   120   119    1
    36   120   121    2
    37     5     6    1
    38     6     7    1
    39   119   122    1
    40    84    83    2
    41     8     7    1
    42    88    83   am
    43    80    79    1
    44    79    78    1
    45     9    10    1
    46    14    13    1
    47    14    16   ar
    48   107   108    1
    49    83    82    1
    50    78    77    1
    51   122   123    1
    52    18    16   ar
    53    13    10    1
    54   109   108   ar
    55   123   124    1
    56    10    11    1
    57   108   110   ar
    58    12    11    2
    59    77    76    1
    60    82    81    1
    61    82    85    1
    62    76    73    1
    63    58    57    2
    64    65    63    1
    65    11    20   am
    66    81    74   am
    67    50    49    2
    68   124   125    1
    69    87    85    1
    70    62    61    2
    71    60    63    1
    72    60    59    1
    73    60    61    1
    74    74    75    2
    75    74    73    1
    76    85    86    1
    77    63    64    1
    78    57    59   am
    79    57    56    1
    80   125   126    2
    81    73    72    1
    82    61    66   am
    83    49    55   am
    84    49    48    1
    85    56    55    1
    86    54    52    1
    87    20    21    1
    88    68    69    2
    89    68    67    1
    90   126   127    1
    91   126   128    1
    92    48    51    1
    93    48    47    1
    94    51    52    1
    95    66    67    1
    96    21    24    1
    97    21    22    1
    98    52    53    1
    99    67    70    1
   100    24    25    1
   101    46    45    2
   102    26    25   ar
   103    26    28   ar
   104    47    45   am
   105    25    27   ar
   106    45    44    1
   107    22    32   am
   108    22    23    2
   109    71    70    1
   110    28    30   ar
   111    32    33    1
   112    35    34    2
   113    27    29   ar
   114    44    43    1
   115    30    29   ar
   116    30    31    1
   117    33    34    1
   118    34    36   am
   119    43    38   am
   120    39    38    2
   121    38    37    1
   122    36    37    1
   123    36    42    1
   124    37    40    1
   125    42    41    1
   126    40    41    1
