@<TRIPOS>MOLECULE
tmp/6b5eF01.pdb
 128 126 0 0 0
SMALL
GASTEIGER

@<TRIPOS>ATOM
      1  N         48.7620   49.8430   38.7710 N.3    43  MET43      -0.1245
      2  CA        49.8290   49.6540   37.7690 C.3    43  MET43       0.1570
      3  C         51.1500   50.3640   38.0720 C.2    43  MET43       0.2261
      4  O         52.2390   49.8990   37.6470 O.2    43  MET43      -0.2867
      5  CB        49.2960   49.9420   36.3600 C.3    43  MET43       0.0387
      6  CG        48.2740   48.9060   35.9440 C.3    43  MET43       0.0595
      7  SD        47.6260   49.1240   34.2710 S.3    43  MET43      -0.1393
      8  CE        46.7810   50.6900   34.4740 C.3    43  MET43       0.0692
      9  N         43.2870   57.1980   32.1160 N.3   111  PHE111     -0.1227
     10  CA        44.5640   57.1870   31.3930 C.3   111  PHE111      0.1736
     11  C         44.6810   55.8630   30.6640 C.2   111  PHE111      0.2595
     12  O         44.5050   54.7890   31.2650 O.2   111  PHE111     -0.2718
     13  CB        45.7400   57.3710   32.3670 C.3   111  PHE111      0.0547
     14  CG        45.8080   58.7260   32.9710 C.ar  111  PHE111     -0.0202
     15  CD1       45.0630   59.0350   34.1130 C.ar  111  PHE111     -0.0042
     16  CD2       46.6080   59.6980   32.4070 C.ar  111  PHE111     -0.0042
     17  CE1       45.0960   60.2970   34.6560 C.ar  111  PHE111     -0.0003
     18  CE2       46.6610   60.9710   32.9500 C.ar  111  PHE111     -0.0003
     19  CZ        45.9050   61.2630   34.0890 C.ar  111  PHE111     -0.0000
     20  N         44.9990   55.9170   29.3720 N.am  112  TYR112     -0.1962
     21  CA        45.1980   54.7080   28.6000 C.3   112  TYR112      0.1771
     22  C         46.3000   54.8620   27.5600 C.2   112  TYR112      0.2620
     23  O         46.3710   55.8610   26.8670 O.2   112  TYR112     -0.2715
     24  CB        43.9100   54.2690   27.9140 C.3   112  TYR112      0.0574
     25  CG        44.1420   53.0630   27.0970 C.ar  112  TYR112     -0.0198
     26  CD1       44.1700   51.8300   27.6870 C.ar  112  TYR112     -0.0009
     27  CD2       44.4140   53.1530   25.7360 C.ar  112  TYR112     -0.0009
     28  CE1       44.4490   50.7190   26.9760 C.ar  112  TYR112      0.0417
     29  CE2       44.6920   52.0070   24.9930 C.ar  112  TYR112      0.0417
     30  CZ        44.6890   50.8020   25.6270 C.ar  112  TYR112      0.1957
     31  OH        44.9770   49.6400   24.9600 O.3   112  TYR112     -0.2866
     32  N         47.1890   53.8910   27.5230 N.am  113  GLY113     -0.1940
     33  CA        48.1290   53.7860   26.4450 C.3   113  GLY113      0.1998
     34  C         49.5680   53.6780   26.8670 C.2   113  GLY113      0.2481
     35  O         49.8780   53.3850   28.0430 O.2   113  GLY113     -0.2729
     36  N         50.4750   53.8440   25.8850 N.am  114  PRO114     -0.2715
     37  CA        51.8920   53.6380   26.1130 C.3   114  PRO114      0.1536
     38  C         52.4240   54.5550   27.2150 C.2   114  PRO114      0.2599
     39  O         52.1970   55.7820   27.1990 O.2   114  PRO114     -0.2715
     40  CB        52.5260   54.0270   24.7540 C.3   114  PRO114      0.0310
     41  CG        51.4840   53.6640   23.7800 C.3   114  PRO114      0.0237
     42  CD        50.1960   54.0870   24.4580 C.3   114  PRO114      0.0939
     43  N         53.1550   53.9610   28.1480 N.am  115  GLY115     -0.1941
     44  CA        53.6140   54.6700   29.3300 C.3   115  GLY115      0.2014
     45  C         52.6350   54.8580   30.4780 C.2   115  GLY115      0.2639
     46  O         53.0060   55.4750   31.4990 O.2   115  GLY115     -0.2714
     47  N         51.4100   54.3280   30.3580 N.am  116  LEU116     -0.1963
     48  CA        50.3790   54.5960   31.3560 C.3   116  LEU116      0.1728
     49  C         49.9460   53.3340   32.1020 C.2   116  LEU116      0.2617
     50  O         48.9160   53.3000   32.7720 O.2   116  LEU116     -0.2715
     51  CB        49.2230   55.3670   30.7210 C.3   116  LEU116      0.0311
     52  CG        49.6010   56.7820   30.2260 C.3   116  LEU116      0.0022
     53  CD1       48.4990   57.4170   29.3990 C.3   116  LEU116      0.0001
     54  CD2       49.9150   57.7150   31.3770 C.3   116  LEU116      0.0001
     55  N         50.7900   52.3130   32.0110 N.am  117  GLY117     -0.1940
     56  CA        50.5780   51.0280   32.6380 C.3   117  GLY117      0.2014
     57  C         51.6780   50.7400   33.6500 C.2   117  GLY117      0.2640
     58  O         52.1040   51.6380   34.4010 O.2   117  GLY117     -0.2714
     59  N         52.1440   49.4930   33.6380 N.am  118  THR118     -0.1936
     60  CA        53.0730   48.9820   34.6220 C.3   118  THR118      0.2028
     61  C         54.3700   49.7810   34.6400 C.2   118  THR118      0.2642
     62  O         55.0860   49.7660   35.6460 O.2   118  THR118     -0.2714
     63  CB        53.3960   47.4840   34.3900 C.3   118  THR118      0.1808
     64  OG1       53.8900   47.3070   33.0620 O.3   118  THR118     -0.2208
     65  CG2       52.1730   46.5910   34.6130 C.3   118  THR118      0.0379
     66  N         54.6490   50.5200   33.5600 N.am  119  SER119     -0.1949
     67  CA        55.8560   51.3410   33.5010 C.3   119  SER119      0.1924
     68  C         55.7930   52.5720   34.3830 C.2   119  SER119      0.2314
     69  O         56.7950   53.2360   34.5670 O.2   119  SER119     -0.2863
     70  CB        56.1110   51.8340   32.0870 C.3   119  SER119      0.2116
     71  OG        55.0460   52.6550   31.6420 O.3   119  SER119     -0.2180
     72  N         40.0970   44.4430   27.2120 N.3   244  LYS244     -0.1231
     73  CA        39.3590   45.0400   28.3380 C.3   244  LYS244      0.1693
     74  C         40.3550   45.8160   29.1590 C.2   244  LYS244      0.2592
     75  O         41.3870   45.2850   29.5610 O.2   244  LYS244     -0.2718
     76  CB        38.5930   43.9840   29.1710 C.3   244  LYS244      0.0285
     77  CG        37.0980   43.8810   28.7960 C.3   244  LYS244      0.0035
     78  CD        36.2180   43.2250   29.8660 C.3   244  LYS244      0.0206
     79  CE        34.8530   42.7820   29.3380 C.3   244  LYS244      0.1093
     80  NZ        33.9470   43.9220   28.9360 N.3   244  LYS244     -0.1314
     81  N         40.0740   47.0880   29.3800 N.am  245  VAL245     -0.1966
     82  CA        41.0570   47.9530   30.0320 C.3   245  VAL245      0.1727
     83  C         40.6690   48.3100   31.4760 C.2   245  VAL245      0.2617
     84  O         39.4760   48.4030   31.8150 O.2   245  VAL245     -0.2715
     85  CB        41.3260   49.2300   29.2400 C.3   245  VAL245      0.0290
     86  CG1       41.8430   48.8830   27.8430 C.3   245  VAL245      0.0023
     87  CG2       40.1070   50.1400   29.1570 C.3   245  VAL245      0.0023
     88  N         41.7020   48.5240   32.2880 N.am  246  SER246     -0.1936
     89  CA        41.5500   48.8430   33.7020 C.3   246  SER246      0.2055
     90  C         40.6200   47.8950   34.4260 C.2   246  SER246      0.2642
     91  O         39.6750   48.3010   35.1020 O.2   246  SER246     -0.2714
     92  CB        41.0360   50.2410   33.8690 C.3   246  SER246      0.2130
     93  OG        41.9110   51.1590   33.2710 O.3   246  SER246     -0.2179
     94  N         40.9240   46.6280   34.3050 N.am  247  ILE247     -0.1977
     95  CA        40.2470   45.6050   35.0420 C.3   247  ILE247      0.1596
     96  C         41.1150   45.3000   36.2620 C.2   247  ILE247      0.2287
     97  O         42.1520   44.6600   36.1300 O.2   247  ILE247     -0.2864
     98  CB        40.0910   44.3750   34.1600 C.3   247  ILE247      0.0276
     99  CG1       39.2530   44.7430   32.9350 C.3   247  ILE247      0.0022
    100  CG2       39.5110   43.2010   34.9450 C.3   247  ILE247      0.0022
    101  CD1       37.7940   45.0110   33.2230 C.3   247  ILE247      0.0001
    102  N         42.3940   41.7110   36.9190 N.3   250  GLU250     -0.1231
    103  CA        43.4980   41.3520   36.0220 C.3   250  GLU250      0.1699
    104  C         44.8550   41.9650   36.4440 C.2   250  GLU250      0.2592
    105  O         45.8970   41.3050   36.4550 O.2   250  GLU250     -0.2718
    106  CB        43.1750   41.7620   34.5790 C.3   250  GLU250      0.0402
    107  CG        44.3760   41.5660   33.6530 C.3   250  GLU250      0.1161
    108  CD        44.0850   41.8700   32.2020 C.2   250  GLU250      0.3649
    109  OE1       43.0010   42.3770   31.8840 O.co2 250  GLU250     -0.2457
    110  OE2       44.9850   41.6060   31.3790 O.co2 250  GLU250     -0.2457
    111  N         44.8550   43.2510   36.7540 N.am  251  VAL251     -0.1980
    112  CA        46.0800   43.9190   37.1280 C.3   251  VAL251      0.1595
    113  C         46.7040   43.3110   38.3970 C.2   251  VAL251      0.2287
    114  O         47.9220   43.0870   38.4430 O.2   251  VAL251     -0.2864
    115  CB        45.8640   45.4430   37.3050 C.3   251  VAL251      0.0276
    116  CG1       47.0420   46.0870   38.0280 C.3   251  VAL251      0.0022
    117  CG2       45.6310   46.0990   35.9490 C.3   251  VAL251      0.0022
    118  N         48.1350   39.9290   37.3050 N.3   254  ARG254     -0.1245
    119  CA        49.4180   40.1860   36.6180 C.3   254  ARG254      0.1563
    120  C         50.5440   40.7280   37.4790 C.2   254  ARG254      0.2260
    121  O         51.6960   40.5530   37.1280 O.2   254  ARG254     -0.2867
    122  CB        49.2410   41.1530   35.4530 C.3   254  ARG254      0.0307
    123  CG        48.4770   40.5950   34.2670 C.3   254  ARG254      0.0489
    124  CD        48.4190   41.5890   33.1200 C.3   254  ARG254      0.2205
    125  NE        47.4930   41.1260   32.1050 N.pl3 254  ARG254     -0.0865
    126  CZ        47.7390   40.1420   31.2460 C.cat 254  ARG254      0.5346
    127  NH1       48.9150   39.5170   31.2390 N.pl3 254  ARG254      0.1354
    128  NH2       46.7980   39.7800   30.3790 N.pl3 254  ARG254      0.1354
@<TRIPOS>BOND
     1    41    42    1
     2    41    40    1
     3    42    36    1
     4    40    37    1
     5    31    30    1
     6    29    30   ar
     7    29    27   ar
     8    30    28   ar
     9    27    25   ar
    10    36    37    1
    11    36    34   am
    12    37    38    1
    13    33    34    1
    14    33    32    1
    15    34    35    2
    16    23    22    2
    17    28    26   ar
    18    25    26   ar
    19    25    24    1
    20    39    38    2
    21    72    73    1
    22    38    43   am
    23    32    22   am
    24    22    21    1
    25    86    85    1
    26    24    21    1
    27    43    44    1
    28    73    74    1
    29    73    76    1
    30    21    20    1
    31    77    76    1
    32    77    78    1
    33    80    79    1
    34    87    85    1
    35    74    81   am
    36    74    75    2
    37    85    82    1
    38    44    45    1
    39    79    78    1
    40    20    11   am
    41    81    82    1
    42    53    52    1
    43    82    83    1
    44    52    51    1
    45    52    54    1
    46    47    45   am
    47    47    48    1
    48   128   126    1
    49    45    46    2
    50    11    12    2
    51    11    10    1
    52    51    48    1
    53   127   126    1
    54   126   125    2
    55    48    49    1
    56   110   108   ar
    57    10     9    1
    58    10    13    1
    59    83    84    2
    60    83    88   am
    61    71    70    1
    62   109   108   ar
    63    55    49   am
    64    55    56    1
    65    70    67    1
    66    49    50    2
    67   125   124    1
    68   108   107    1
    69    88    89    1
    70    13    14    1
    71    16    18   ar
    72    16    14   ar
    73    56    57    1
    74    99   101    1
    75    99    98    1
    76    18    19   ar
    77    14    15   ar
    78    64    63    1
    79   124   123    1
    80    93    92    1
    81    67    66    1
    82    67    68    1
    83    66    61   am
    84    59    57   am
    85    59    60    1
    86    57    58    2
    87   107   106    1
    88    89    92    1
    89    89    90    1
    90    19    17   ar
    91    15    17   ar
    92    98   100    1
    93    98    95    1
    94   123   122    1
    95     7     8    1
    96     7     6    1
    97    94    90   am
    98    94    95    1
    99    68    69    2
   100    63    65    1
   101    63    60    1
   102    90    91    2
   103   106   103    1
   104    60    61    1
   105    61    62    2
   106    95    96    1
   107   122   119    1
   108     6     5    1
   109   117   115    1
   110   103   104    1
   111   103   102    1
   112    97    96    2
   113     5     2    1
   114   104   105    2
   115   104   111   am
   116   119   118    1
   117   119   120    1
   118   111   112    1
   119   121   120    2
   120   112   115    1
   121   112   113    1
   122   115   116    1
   123     4     3    2
   124     2     3    1
   125     2     1    1
   126   113   114    2
