@<TRIPOS>MOLECULE
tmp/6b5gA01.pdb
 167 162 0 0 0
SMALL
GASTEIGER

@<TRIPOS>ATOM
      1  N         39.9630  -12.6680  -47.0940 N.3   112  VAL112     -0.1245
      2  CA        40.1280  -12.4210  -45.6670 C.3   112  VAL112      0.1561
      3  C         40.2340  -10.9240  -45.4200 C.2   112  VAL112      0.2260
      4  O         39.3310  -10.3120  -44.8360 O.2   112  VAL112     -0.2867
      5  CB        41.3570  -13.1680  -45.1140 C.3   112  VAL112      0.0252
      6  CG1       41.6000  -12.8010  -43.6580 C.3   112  VAL112      0.0019
      7  CG2       41.1670  -14.6740  -45.2660 C.3   112  VAL112      0.0019
      8  N         37.5130   -8.6500  -47.2140 N.3   115  GLN115     -0.1231
      9  CA        36.2390   -8.8750  -46.5480 C.3   115  GLN115      0.1698
     10  C         36.2190   -8.2010  -45.1820 C.2   115  GLN115      0.2592
     11  O         35.1980   -7.6350  -44.7730 O.2   115  GLN115     -0.2718
     12  CB        35.9700  -10.3760  -46.4130 C.3   115  GLN115      0.0381
     13  CG        34.6130  -10.7090  -45.8160 C.3   115  GLN115      0.0905
     14  CD        34.5970  -12.0560  -45.1230 C.2   115  GLN115      0.2608
     15  OE1       34.3140  -12.1520  -43.9290 O.2   115  GLN115     -0.2717
     16  NE2       34.9080  -13.1100  -45.8710 N.am  115  GLN115     -0.0878
     17  N         37.3390   -8.2490  -44.4620 N.am  116  GLY116     -0.1957
     18  CA        37.4060   -7.5860  -43.1730 C.3   116  GLY116      0.1869
     19  C         37.4130   -6.0740  -43.2840 C.2   116  GLY116      0.2309
     20  O         37.0880   -5.3740  -42.3200 O.2   116  GLY116     -0.2863
     21  N         51.6150   -4.7880  -41.7480 N.3   161  ASN161     -0.1225
     22  CA        51.2980   -6.2020  -41.9160 C.3   161  ASN161      0.1785
     23  C         49.8440   -6.4550  -42.2960 C.2   161  ASN161      0.2597
     24  O         49.5290   -7.5390  -42.7970 O.2   161  ASN161     -0.2718
     25  CB        51.6500   -6.9640  -40.6390 C.3   161  ASN161      0.1169
     26  CG        50.8710   -6.4840  -39.4370 C.2   161  ASN161      0.2627
     27  OD1       50.6310   -5.2880  -39.2680 O.2   161  ASN161     -0.2716
     28  ND2       50.4670   -7.4220  -38.5930 N.am  161  ASN161     -0.0877
     29  N         48.9550   -5.4940  -42.0670 N.am  162  PHE162     -0.1976
     30  CA        47.5750   -5.5580  -42.5500 C.3   162  PHE162      0.1639
     31  C         47.1810   -4.1670  -43.0170 C.2   162  PHE162      0.2290
     32  O         46.3050   -3.5210  -42.4330 O.2   162  PHE162     -0.2864
     33  CB        46.6290   -6.0670  -41.4620 C.3   162  PHE162      0.0560
     34  CG        46.5470   -7.5650  -41.3750 C.ar  162  PHE162     -0.0200
     35  CD1       45.7330   -8.2780  -42.2360 C.ar  162  PHE162     -0.0042
     36  CD2       47.2810   -8.2600  -40.4310 C.ar  162  PHE162     -0.0042
     37  CE1       45.6530   -9.6570  -42.1580 C.ar  162  PHE162     -0.0003
     38  CE2       47.2080   -9.6400  -40.3450 C.ar  162  PHE162     -0.0003
     39  CZ        46.3930  -10.3390  -41.2120 C.ar  162  PHE162     -0.0000
     40  N         43.3960   -3.2750  -43.8660 N.3   165  LEU165     -0.1231
     41  CA        42.5180   -3.6010  -42.7460 C.3   165  LEU165      0.1693
     42  C         42.7400   -2.6560  -41.5690 C.2   165  LEU165      0.2591
     43  O         41.7690   -2.1820  -40.9600 O.2   165  LEU165     -0.2718
     44  CB        42.7060   -5.0550  -42.3230 C.3   165  LEU165      0.0284
     45  CG        41.7080   -5.5650  -41.2830 C.3   165  LEU165      0.0019
     46  CD1       40.3100   -5.0980  -41.6150 C.3   165  LEU165      0.0001
     47  CD2       41.7410   -7.0800  -41.2000 C.3   165  LEU165      0.0001
     48  N         44.0090   -2.3710  -41.2380 N.am  166  MET166     -0.1979
     49  CA        44.2800   -1.4360  -40.1530 C.3   166  MET166      0.1605
     50  C         43.8140   -0.0290  -40.5090 C.2   166  MET166      0.2287
     51  O         43.3330    0.7140  -39.6430 O.2   166  MET166     -0.2864
     52  CB        45.7670   -1.4380  -39.8160 C.3   166  MET166      0.0413
     53  CG        46.2170   -2.6030  -38.9540 C.3   166  MET166      0.0598
     54  SD        48.0030   -2.8160  -39.0010 S.3   166  MET166     -0.1393
     55  CE        48.1480   -4.4710  -38.3610 C.3   166  MET166      0.0692
     56  N         40.2800   -0.1310  -39.6760 N.3   169  TRP169     -0.1241
     57  CA        40.0990   -0.1910  -38.2260 C.3   169  TRP169      0.1605
     58  C         40.3000    1.1660  -37.5740 C.2   169  TRP169      0.2264
     59  O         39.7470    1.4260  -36.5000 O.2   169  TRP169     -0.2867
     60  CB        41.0730   -1.1970  -37.6150 C.3   169  TRP169      0.0550
     61  CG        40.5700   -2.6150  -37.5680 C.ar  169  TRP169      0.0003
     62  CD1       39.8350   -3.2610  -38.5240 C.ar  169  TRP169      0.0946
     63  CD2       40.7830   -3.5610  -36.5160 C.ar  169  TRP169      0.0152
     64  NE1       39.5780   -4.5550  -38.1250 N.ar  169  TRP169     -0.2442
     65  CE2       40.1510   -4.7610  -36.8980 C.ar  169  TRP169      0.0810
     66  CE3       41.4480   -3.5110  -35.2850 C.ar  169  TRP169      0.0012
     67  CZ2       40.1630   -5.8990  -36.0960 C.ar  169  TRP169      0.0191
     68  CZ3       41.4590   -4.6450  -34.4900 C.ar  169  TRP169      0.0001
     69  CH2       40.8200   -5.8210  -34.9000 C.ar  169  TRP169      0.0015
     70  N         49.5870    2.0160  -33.7400 N.3   236  THR236     -0.1218
     71  CA        49.8290    0.5860  -33.8890 C.3   236  THR236      0.1862
     72  C         51.1030    0.4490  -34.7110 C.2   236  THR236      0.2287
     73  O         51.1730    1.0230  -35.8000 O.2   236  THR236     -0.2866
     74  CB        48.6500   -0.0930  -34.5930 C.3   236  THR236      0.1770
     75  OG1       47.4230    0.2650  -33.9450 O.3   236  THR236     -0.2211
     76  CG2       48.8060   -1.5940  -34.5810 C.3   236  THR236      0.0375
     77  N         50.0050  -17.7590  -40.1700 N.3   288  PHE288     -0.1241
     78  CA        49.0800  -16.8850  -40.8810 C.3   288  PHE288      0.1605
     79  C         49.7220  -15.5290  -41.1500 C.2   288  PHE288      0.2264
     80  O         50.4050  -14.9650  -40.2920 O.2   288  PHE288     -0.2867
     81  CB        47.7960  -16.7030  -40.0720 C.3   288  PHE288      0.0534
     82  CG        46.7880  -15.7970  -40.7200 C.ar  288  PHE288     -0.0203
     83  CD1       46.0490  -16.2250  -41.8090 C.ar  288  PHE288     -0.0042
     84  CD2       46.5770  -14.5160  -40.2390 C.ar  288  PHE288     -0.0042
     85  CE1       45.1200  -15.3930  -42.4080 C.ar  288  PHE288     -0.0003
     86  CE2       45.6500  -13.6770  -40.8340 C.ar  288  PHE288     -0.0003
     87  CZ        44.9190  -14.1160  -41.9190 C.ar  288  PHE288     -0.0000
     88  N         51.9260  -11.2760  -37.5960 N.3   293  CYS293     -0.1221
     89  CA        50.7000  -10.9830  -36.8660 C.3   293  CYS293      0.1808
     90  C         51.0530  -10.6740  -35.4210 C.2   293  CYS293      0.2601
     91  O         51.8050  -11.4240  -34.7890 O.2   293  CYS293     -0.2717
     92  CB        49.7200  -12.1650  -36.8970 C.3   293  CYS293      0.0970
     93  SG        49.0730  -12.6300  -38.5160 S.3   293  CYS293     -0.0800
     94  N         50.5060   -9.5740  -34.9040 N.am  294  CYS294     -0.1956
     95  CA        50.6000   -9.3000  -33.4770 C.3   294  CYS294      0.1843
     96  C         49.9370  -10.3790  -32.6350 C.2   294  CYS294      0.2626
     97  O         50.2230  -10.4790  -31.4370 O.2   294  CYS294     -0.2714
     98  CB        49.9450   -7.9660  -33.1690 C.3   294  CYS294      0.0997
     99  SG        48.2110   -7.9550  -33.6800 S.3   294  CYS294     -0.0797
    100  N         49.0480  -11.1800  -33.2290 N.am  295  THR295     -0.1950
    101  CA        48.2580  -12.1600  -32.4930 C.3   295  THR295      0.1897
    102  C         48.8390  -13.5660  -32.5210 C.2   295  THR295      0.2313
    103  O         48.2440  -14.4670  -31.9230 O.2   295  THR295     -0.2863
    104  CB        46.8180  -12.2040  -33.0260 C.3   295  THR295      0.1794
    105  OG1       46.8280  -12.4630  -34.4350 O.3   295  THR295     -0.2208
    106  CG2       46.0970  -10.8920  -32.7510 C.3   295  THR295      0.0378
    107  N         41.3250  -19.8530  -33.1560 N.3   448  TYR448     -0.1227
    108  CA        42.3980  -18.8670  -33.1500 C.3   448  TYR448      0.1736
    109  C         42.1820  -17.8620  -34.2690 C.2   448  TYR448      0.2595
    110  O         41.7090  -18.2090  -35.3560 O.2   448  TYR448     -0.2718
    111  CB        43.7750  -19.5210  -33.2940 C.3   448  TYR448      0.0548
    112  CG        44.8720  -18.7410  -32.6200 C.ar  448  TYR448     -0.0200
    113  CD1       45.5470  -17.7300  -33.2880 C.ar  448  TYR448     -0.0009
    114  CD2       45.2220  -19.0110  -31.3120 C.ar  448  TYR448     -0.0009
    115  CE1       46.5380  -17.0170  -32.6700 C.ar  448  TYR448      0.0417
    116  CE2       46.2130  -18.3020  -30.6810 C.ar  448  TYR448      0.0417
    117  CZ        46.8680  -17.3060  -31.3660 C.ar  448  TYR448      0.1957
    118  OH        47.8560  -16.5930  -30.7390 O.3   448  TYR448     -0.2866
    119  N         42.5560  -16.6120  -33.9870 N.am  449  ASN449     -0.1960
    120  CA        42.4530  -15.5020  -34.9440 C.3   449  ASN449      0.1819
    121  C         41.0100  -15.2590  -35.3800 C.2   449  ASN449      0.2621
    122  O         40.7390  -14.9350  -36.5370 O.2   449  ASN449     -0.2715
    123  CB        43.3560  -15.7230  -36.1640 C.3   449  ASN449      0.1195
    124  CG        44.7560  -15.1790  -35.9570 C.2   449  ASN449      0.2630
    125  OD1       44.9630  -14.2680  -35.1550 O.2   449  ASN449     -0.2716
    126  ND2       45.7250  -15.7400  -36.6740 N.am  449  ASN449     -0.0877
    127  N         40.0710  -15.3980  -34.4430 N.am  450  ALA450     -0.1963
    128  CA        38.6750  -15.0370  -34.7020 C.3   450  ALA450      0.1728
    129  C         38.4870  -13.5800  -34.2910 C.2   450  ALA450      0.2616
    130  O         38.1320  -13.2560  -33.1550 O.2   450  ALA450     -0.2715
    131  CB        37.7250  -15.9700  -33.9640 C.3   450  ALA450      0.0334
    132  N         38.7410  -12.6900  -35.2440 N.am  451  LEU451     -0.1963
    133  CA        38.6930  -11.2450  -35.0300 C.3   451  LEU451      0.1728
    134  C         37.5220  -10.6890  -35.8330 C.2   451  LEU451      0.2616
    135  O         37.6490  -10.3760  -37.0180 O.2   451  LEU451     -0.2715
    136  CB        40.0080  -10.5900  -35.4320 C.3   451  LEU451      0.0311
    137  CG        41.1750  -10.8100  -34.4700 C.3   451  LEU451      0.0022
    138  CD1       42.3590   -9.9430  -34.8600 C.3   451  LEU451      0.0001
    139  CD2       40.7450  -10.5240  -33.0430 C.3   451  LEU451      0.0001
    140  N         36.3790  -10.5670  -35.1760 N.am  452  ASN452     -0.1972
    141  CA        35.1930  -10.0250  -35.8110 C.3   452  ASN452      0.1688
    142  C         35.1220   -8.5190  -35.5810 C.2   452  ASN452      0.2292
    143  O         35.7520   -7.9730  -34.6720 O.2   452  ASN452     -0.2864
    144  CB        33.9460  -10.7120  -35.2610 C.3   452  ASN452      0.1181
    145  CG        34.2000  -12.1630  -34.8860 C.2   452  ASN452      0.2629
    146  OD1       34.7060  -12.4550  -33.8010 O.2   452  ASN452     -0.2716
    147  ND2       33.8530  -13.0790  -35.7840 N.am  452  ASN452     -0.0877
    148  N         39.1690   -5.4420  -29.1590 N.3   457  PHE457     -0.1241
    149  CA        40.4920   -6.0370  -29.3070 C.3   457  PHE457      0.1605
    150  C         41.5310   -5.0910  -28.7240 C.2   457  PHE457      0.2264
    151  O         41.5200   -3.8950  -29.0300 O.2   457  PHE457     -0.2867
    152  CB        40.7880   -6.3120  -30.7870 C.3   457  PHE457      0.0534
    153  CG        42.1400   -6.9060  -31.0440 C.ar  457  PHE457     -0.0203
    154  CD1       42.3450   -8.2690  -30.9280 C.ar  457  PHE457     -0.0042
    155  CD2       43.2020   -6.1030  -31.4240 C.ar  457  PHE457     -0.0042
    156  CE1       43.5890   -8.8210  -31.1780 C.ar  457  PHE457     -0.0003
    157  CE2       44.4480   -6.6450  -31.6740 C.ar  457  PHE457     -0.0003
    158  CZ        44.6440   -8.0050  -31.5510 C.ar  457  PHE457     -0.0000
    159  N         40.1550   -1.4790  -29.5420 N.3   468  GLU468     -0.1245
    160  CA        39.6380   -1.1960  -30.8720 C.3   468  GLU468      0.1567
    161  C         38.5430   -2.2000  -31.2090 C.2   468  GLU468      0.2260
    162  O         38.4760   -3.2880  -30.6300 O.2   468  GLU468     -0.2867
    163  CB        40.7560   -1.2370  -31.9250 C.3   468  GLU468      0.0388
    164  CG        41.7550   -0.0910  -31.8000 C.3   468  GLU468      0.1160
    165  CD        42.6540    0.0710  -33.0190 C.2   468  GLU468      0.3649
    166  OE1       42.6800   -0.8350  -33.8790 O.co2 468  GLU468     -0.2457
    167  OE2       43.3440    1.1100  -33.1120 O.co2 468  GLU468     -0.2457
@<TRIPOS>BOND
     1     8     9    1
     2     1     2    1
     3     9    12    1
     4     9    10    1
     5    12    13    1
     6    16    14   am
     7    13    14    1
     8     2     3    1
     9     2     5    1
    10     3     4    2
    11     7     5    1
    12    10    11    2
    13    10    17   am
    14    14    15    2
    15     5     6    1
    16    17    18    1
    17    40    41    1
    18    19    18    1
    19    19    20    2
    20    31    30    1
    21    31    32    2
    22    24    23    2
    23    41    44    1
    24    41    42    1
    25    30    29    1
    26    30    33    1
    27    85    87   ar
    28    85    83   ar
    29    44    45    1
    30    23    29   am
    31    23    22    1
    32    35    37   ar
    33    35    34   ar
    34    37    39   ar
    35    87    86   ar
    36    22    21    1
    37    22    25    1
    38    83    82   ar
    39    46    45    1
    40    42    48   am
    41    42    43    2
    42    33    34    1
    43    34    36   ar
    44    45    47    1
    45    48    49    1
    46    39    38   ar
    47    79    78    1
    48    79    80    2
    49    78    77    1
    50    78    81    1
    51    86    84   ar
    52    82    84   ar
    53    82    81    1
    54    25    26    1
    55    50    49    1
    56    50    51    2
    57    36    38   ar
    58    49    52    1
    59    52    53    1
    60    56    57    1
    61    26    27    2
    62    26    28   am
    63    54    53    1
    64    54    55    1
    65    62    64   ar
    66    62    61   ar
    67    93    92    1
    68    57    60    1
    69    57    58    1
    70    64    65   ar
    71    60    61    1
    72    88    89    1
    73    58    59    2
    74    61    63   ar
    75   135   134    2
    76    65    63   ar
    77    65    67   ar
    78    92    89    1
    79    89    90    1
    80   126   124   am
    81   122   121    2
    82    63    66   ar
    83   123   124    1
    84   123   120    1
    85    67    69   ar
    86   124   125    2
    87   134   140   am
    88   134   133    1
    89   141   142    1
    90   141   144    1
    91   141   140    1
    92    73    72    2
    93   147   145   am
    94   142   143    2
    95   136   133    1
    96   136   137    1
    97    90    94   am
    98    90    91    2
    99   121   120    1
   100   121   127   am
   101   110   109    2
   102    66    68   ar
   103   144   145    1
   104   132   133    1
   105   132   129   am
   106   120   119    1
   107    94    95    1
   108    69    68   ar
   109   145   146    2
   110   138   137    1
   111    72    71    1
   112   128   127    1
   113   128   129    1
   114   128   131    1
   115    74    76    1
   116    74    75    1
   117    74    71    1
   118   137   139    1
   119   105   104    1
   120   129   130    2
   121   109   119   am
   122   109   108    1
   123    71    70    1
   124   166   165   ar
   125    99    98    1
   126    95    98    1
   127    95    96    1
   128   111   108    1
   129   111   112    1
   130   113   115   ar
   131   113   112   ar
   132   100    96   am
   133   100   101    1
   134   107   108    1
   135   167   165   ar
   136   104   106    1
   137   104   101    1
   138   165   164    1
   139   115   117   ar
   140    96    97    2
   141   112   114   ar
   142   102   101    1
   143   102   103    2
   144   163   164    1
   145   163   160    1
   146   157   158   ar
   147   157   155   ar
   148   158   156   ar
   149   155   153   ar
   150   117   118    1
   151   117   116   ar
   152   114   116   ar
   153   161   160    1
   154   161   162    2
   155   156   154   ar
   156   153   154   ar
   157   153   152    1
   158   160   159    1
   159   152   149    1
   160   149   148    1
   161   149   150    1
   162   151   150    2
