@<TRIPOS>MOLECULE
tmp/6b5hC01.pdb
 200 190 0 0 0
SMALL
GASTEIGER

@<TRIPOS>ATOM
      1  N         29.7640   20.6510    3.4160 N.3   112  VAL112     -0.1245
      2  CA        30.0180   20.5280    1.9840 C.3   112  VAL112      0.1561
      3  C         31.0220   19.4140    1.7250 C.2   112  VAL112      0.2260
      4  O         30.6800   18.3800    1.1390 O.2   112  VAL112     -0.2867
      5  CB        30.5140   21.8570    1.3850 C.3   112  VAL112      0.0252
      6  CG1       30.7300   21.7120   -0.1140 C.3   112  VAL112      0.0019
      7  CG2       29.5300   22.9750    1.6850 C.3   112  VAL112      0.0019
      8  N         30.0440   16.1020    3.3480 N.3   115  GLN115     -0.1231
      9  CA        28.8080   15.6110    2.7490 C.3   115  GLN115      0.1698
     10  C         29.0870   14.9490    1.4070 C.2   115  GLN115      0.2592
     11  O         28.4540   13.9480    1.0530 O.2   115  GLN115     -0.2718
     12  CB        27.8010   16.7490    2.5860 C.3   115  GLN115      0.0381
     13  CG        26.4210   16.2820    2.1390 C.3   115  GLN115      0.0905
     14  CD        25.7120   17.2940    1.2610 C.2   115  GLN115      0.2608
     15  OE1       25.3650   17.0030    0.1160 O.2   115  GLN115     -0.2717
     16  NE2       25.4850   18.4890    1.7950 N.am  115  GLN115     -0.0878
     17  N         30.0420   15.4920    0.6500 N.am  116  GLY116     -0.1957
     18  CA        30.4370   14.8520   -0.5920 C.3   116  GLY116      0.1869
     19  C         31.2110   13.5690   -0.3620 C.2   116  GLY116      0.2309
     20  O         31.0820   12.6120   -1.1300 O.2   116  GLY116     -0.2863
     21  N         28.5820   10.7980    0.6860 N.3   119  LYS119     -0.1231
     22  CA        27.7580   10.4250   -0.4600 C.3   119  LYS119      0.1693
     23  C         28.5730    9.7150   -1.5330 C.2   119  LYS119      0.2592
     24  O         28.0470    8.8400   -2.2310 O.2   119  LYS119     -0.2718
     25  CB        27.0750   11.6620   -1.0440 C.3   119  LYS119      0.0285
     26  CG        25.9110   12.1800   -0.2140 C.3   119  LYS119      0.0035
     27  CD        25.2280   13.3550   -0.8940 C.3   119  LYS119      0.0206
     28  CE        23.9830   13.7850   -0.1340 C.3   119  LYS119      0.1093
     29  NZ        23.2350   14.8520   -0.8520 N.3   119  LYS119     -0.1314
     30  N         29.8520   10.0700   -1.6800 N.am  120  THR120     -0.1953
     31  CA        30.6960    9.4160   -2.6760 C.3   120  THR120      0.1897
     32  C         30.9000    7.9440   -2.3390 C.2   120  THR120      0.2313
     33  O         30.7710    7.0740   -3.2090 O.2   120  THR120     -0.2863
     34  CB        32.0440   10.1350   -2.7790 C.3   120  THR120      0.1794
     35  OG1       31.8590   11.4220   -3.3800 O.3   120  THR120     -0.2208
     36  CG2       33.0210    9.3260   -3.6170 C.3   120  THR120      0.0378
     37  N         43.7360   21.1430   -2.2180 N.3   161  ASN161     -0.1225
     38  CA        42.6100   22.0640   -2.1160 C.3   161  ASN161      0.1785
     39  C         41.3170   21.4000   -1.6620 C.2   161  ASN161      0.2597
     40  O         40.4170   22.0990   -1.1810 O.2   161  ASN161     -0.2718
     41  CB        42.3860   22.7710   -3.4570 C.3   161  ASN161      0.1169
     42  CG        42.0030   21.8170   -4.5650 C.2   161  ASN161      0.2627
     43  OD1       42.6320   20.7750   -4.7510 O.2   161  ASN161     -0.2716
     44  ND2       40.9680   22.1720   -5.3170 N.am  161  ASN161     -0.0877
     45  N         41.1990   20.0820   -1.8000 N.am  162  PHE162     -0.1976
     46  CA        40.0610   19.3270   -1.2710 C.3   162  PHE162      0.1639
     47  C         40.5710   17.9740   -0.7990 C.2   162  PHE162      0.2290
     48  O         40.2140   16.9270   -1.3500 O.2   162  PHE162     -0.2864
     49  CB        38.9610   19.1800   -2.3250 C.3   162  PHE162      0.0560
     50  CG        38.0980   20.4010   -2.4710 C.ar  162  PHE162     -0.0200
     51  CD1       36.9950   20.5870   -1.6550 C.ar  162  PHE162     -0.0042
     52  CD2       38.3920   21.3650   -3.4210 C.ar  162  PHE162     -0.0042
     53  CE1       36.2000   21.7100   -1.7840 C.ar  162  PHE162     -0.0003
     54  CE2       37.6020   22.4920   -3.5540 C.ar  162  PHE162     -0.0003
     55  CZ        36.5040   22.6640   -2.7350 C.ar  162  PHE162     -0.0000
     56  N         38.0010   15.1030    0.1480 N.3   165  LEU165     -0.1231
     57  CA        37.1580   14.8230   -1.0100 C.3   165  LEU165      0.1693
     58  C         37.9690   14.2140   -2.1490 C.2   165  LEU165      0.2591
     59  O         37.5080   13.2790   -2.8140 O.2   165  LEU165     -0.2718
     60  CB        36.4580   16.1040   -1.4650 C.3   165  LEU165      0.0284
     61  CG        35.1670   15.9720   -2.2750 C.3   165  LEU165      0.0019
     62  CD1       34.1620   15.0830   -1.5610 C.3   165  LEU165      0.0001
     63  CD2       34.5720   17.3460   -2.5380 C.3   165  LEU165      0.0001
     64  N         39.1780   14.7330   -2.3890 N.am  166  MET166     -0.1979
     65  CA        40.0660   14.1310   -3.3810 C.3   166  MET166      0.1605
     66  C         40.3580   12.6790   -3.0360 C.2   166  MET166      0.2287
     67  O         40.3040   11.7970   -3.9010 O.2   166  MET166     -0.2864
     68  CB        41.3730   14.9190   -3.4700 C.3   166  MET166      0.0413
     69  CG        41.2550   16.2290   -4.2030 C.3   166  MET166      0.0598
     70  SD        40.6340   16.0040   -5.8700 S.3   166  MET166     -0.1393
     71  CE        40.5370   17.7090   -6.3760 C.3   166  MET166      0.0692
     72  N         37.2780   10.6370   -3.8560 N.3   169  TRP169     -0.1241
     73  CA        37.0480   10.5420   -5.2930 C.3   169  TRP169      0.1605
     74  C         38.0230    9.5970   -5.9810 C.2   169  TRP169      0.2264
     75  O         37.7190    9.0930   -7.0670 O.2   169  TRP169     -0.2867
     76  CB        37.1430   11.9290   -5.9310 C.3   169  TRP169      0.0550
     77  CG        35.9350   12.7810   -5.7070 C.ar  169  TRP169      0.0003
     78  CD1       34.7160   12.3760   -5.2480 C.ar  169  TRP169      0.0946
     79  CD2       35.8280   14.1900   -5.9380 C.ar  169  TRP169      0.0152
     80  NE1       33.8560   13.4450   -5.1790 N.ar  169  TRP169     -0.2442
     81  CE2       34.5160   14.5710   -5.5960 C.ar  169  TRP169      0.0810
     82  CE3       36.7160   15.1670   -6.3980 C.ar  169  TRP169      0.0012
     83  CZ2       34.0690   15.8860   -5.7010 C.ar  169  TRP169      0.0191
     84  CZ3       36.2710   16.4720   -6.5010 C.ar  169  TRP169      0.0001
     85  CH2       34.9600   16.8200   -6.1540 C.ar  169  TRP169      0.0015
     86  N         43.7440   15.0400  -14.1550 N.3   260  GLU260     -0.1245
     87  CA        42.7570   16.0670  -13.8320 C.3   260  GLU260      0.1567
     88  C         43.5320   17.3580  -13.5950 C.2   260  GLU260      0.2260
     89  O         44.1540   17.5310  -12.5420 O.2   260  GLU260     -0.2867
     90  CB        41.9300   15.6780  -12.6140 C.3   260  GLU260      0.0388
     91  CG        40.8990   14.6050  -12.8820 C.3   260  GLU260      0.1160
     92  CD        39.6200   14.8470  -12.1120 C.2   260  GLU260      0.3649
     93  OE1       38.5310   14.6250  -12.6790 O.co2 260  GLU260     -0.2457
     94  OE2       39.7060   15.2750  -10.9410 O.co2 260  GLU260     -0.2457
     95  N         25.4640   36.1780   -6.8320 N.3   280  GLU280     -0.1231
     96  CA        25.9470   35.3380   -5.7420 C.3   280  GLU280      0.1699
     97  C         26.5370   34.0280   -6.2550 C.2   280  GLU280      0.2592
     98  O         27.5360   33.5430   -5.7110 O.2   280  GLU280     -0.2718
     99  CB        24.8150   35.0670   -4.7480 C.3   280  GLU280      0.0402
    100  CG        25.1570   34.0610   -3.6560 C.3   280  GLU280      0.1161
    101  CD        26.2400   34.5510   -2.7090 C.2   280  GLU280      0.3649
    102  OE1       26.5320   35.7660   -2.6990 O.co2 280  GLU280     -0.2457
    103  OE2       26.8010   33.7150   -1.9700 O.co2 280  GLU280     -0.2457
    104  N         25.9380   33.4430   -7.2950 N.am  281  GLN281     -0.1979
    105  CA        26.4720   32.2040   -7.8530 C.3   281  GLN281      0.1601
    106  C         27.8530   32.4280   -8.4560 C.2   281  GLN281      0.2287
    107  O         28.7880   31.6590   -8.2020 O.2   281  GLN281     -0.2864
    108  CB        25.5120   31.6420   -8.9010 C.3   281  GLN281      0.0394
    109  CG        24.2540   31.0190   -8.3220 C.3   281  GLN281      0.0908
    110  CD        24.5330   29.7440   -7.5500 C.2   281  GLN281      0.2608
    111  OE1       24.6610   28.6670   -8.1320 O.2   281  GLN281     -0.2717
    112  NE2       24.6230   29.8600   -6.2300 N.am  281  GLN281     -0.0878
    113  N         30.3310   32.9110   -5.5460 N.3   284  GLN284     -0.1245
    114  CA        30.8280   31.6470   -5.0190 C.3   284  GLN284      0.1566
    115  C         31.6510   30.9020   -6.0580 C.2   284  GLN284      0.2260
    116  O         32.5440   30.1260   -5.7000 O.2   284  GLN284     -0.2867
    117  CB        29.6650   30.7790   -4.5370 C.3   284  GLN284      0.0367
    118  CG        28.8590   31.3880   -3.3990 C.3   284  GLN284      0.0905
    119  CD        29.5950   31.3600   -2.0710 C.2   284  GLN284      0.2608
    120  OE1       30.6660   30.7650   -1.9510 O.2   284  GLN284     -0.2717
    121  NE2       29.0180   32.0060   -1.0630 N.am  284  GLN284     -0.0878
    122  N         34.7500   30.5010   -3.4990 N.3   288  PHE288     -0.1241
    123  CA        34.6190   29.2990   -2.6840 C.3   288  PHE288      0.1605
    124  C         35.9650   28.6040   -2.5210 C.2   288  PHE288      0.2264
    125  O         36.7960   28.6030   -3.4330 O.2   288  PHE288     -0.2867
    126  CB        33.6030   28.3380   -3.3050 C.3   288  PHE288      0.0534
    127  CG        33.3140   27.1290   -2.4580 C.ar  288  PHE288     -0.0203
    128  CD1       32.4710   27.2200   -1.3630 C.ar  288  PHE288     -0.0042
    129  CD2       33.8830   25.9010   -2.7590 C.ar  288  PHE288     -0.0042
    130  CE1       32.2000   26.1110   -0.5820 C.ar  288  PHE288     -0.0003
    131  CE2       33.6170   24.7870   -1.9810 C.ar  288  PHE288     -0.0003
    132  CZ        32.7730   24.8930   -0.8930 C.ar  288  PHE288     -0.0000
    133  N         39.6440   26.4970   -6.1780 N.3   293  CYS293     -0.1221
    134  CA        38.9820   25.4510   -6.9440 C.3   293  CYS293      0.1808
    135  C         39.4720   25.5190   -8.3820 C.2   293  CYS293      0.2601
    136  O         39.5310   26.6050   -8.9690 O.2   293  CYS293     -0.2717
    137  CB        37.4590   25.6040   -6.9010 C.3   293  CYS293      0.0970
    138  SG        36.7330   25.5960   -5.2500 S.3   293  CYS293     -0.0800
    139  N         39.8380   24.3650   -8.9400 N.am  294  CYS294     -0.1956
    140  CA        40.1270   24.3050  -10.3690 C.3   294  CYS294      0.1843
    141  C         38.9270   24.7550  -11.1880 C.2   294  CYS294      0.2626
    142  O         39.0890   25.2980  -12.2870 O.2   294  CYS294     -0.2714
    143  CB        40.5130   22.8860  -10.7640 C.3   294  CYS294      0.0997
    144  SG        39.0790   21.8000  -10.8010 S.3   294  CYS294     -0.0797
    145  N         37.7200   24.5310  -10.6710 N.am  295  THR295     -0.1950
    146  CA        36.4790   24.9500  -11.3020 C.3   295  THR295      0.1897
    147  C         36.1660   26.4230  -11.0740 C.2   295  THR295      0.2313
    148  O         35.0170   26.8320  -11.2780 O.2   295  THR295     -0.2863
    149  CB        35.3170   24.0920  -10.7910 C.3   295  THR295      0.1794
    150  OG1       35.2660   24.1590   -9.3600 O.3   295  THR295     -0.2208
    151  CG2       35.5000   22.6440  -11.2130 C.3   295  THR295      0.0378
    152  N         29.0270   25.6100   -9.0270 N.3   449  ASN449     -0.1240
    153  CA        29.8030   24.4970   -8.4820 C.3   449  ASN449      0.1653
    154  C         28.9420   23.3210   -8.0300 C.2   449  ASN449      0.2266
    155  O         29.1720   22.7560   -6.9560 O.2   449  ASN449     -0.2867
    156  CB        30.6590   24.9850   -7.3090 C.3   449  ASN449      0.1155
    157  CG        32.0940   25.2710   -7.7090 C.2   449  ASN449      0.2627
    158  OD1       32.6740   24.5660   -8.5350 O.2   449  ASN449     -0.2716
    159  ND2       32.6760   26.3100   -7.1200 N.am  449  ASN449     -0.0877
    160  N         28.4660   19.9540   -8.2810 N.3   451  LEU451     -0.1231
    161  CA        28.9570   18.6090   -8.5310 C.3   451  LEU451      0.1693
    162  C         28.1760   17.6180   -7.6760 C.2   451  LEU451      0.2592
    163  O         27.5900   17.9750   -6.6510 O.2   451  LEU451     -0.2718
    164  CB        30.4560   18.5040   -8.2300 C.3   451  LEU451      0.0284
    165  CG        31.4350   19.1840   -9.1940 C.3   451  LEU451      0.0019
    166  CD1       31.5400   20.6780   -8.9200 C.3   451  LEU451      0.0001
    167  CD2       32.8060   18.5290   -9.1130 C.3   451  LEU451      0.0001
    168  N         28.1670   16.3620   -8.1130 N.am  452  ASN452     -0.1960
    169  CA        27.4280   15.3220   -7.4150 C.3   452  ASN452      0.1819
    170  C         28.2290   14.0290   -7.4340 C.2   452  ASN452      0.2621
    171  O         29.2070   13.8920   -8.1740 O.2   452  ASN452     -0.2715
    172  CB        26.0410   15.1060   -8.0370 C.3   452  ASN452      0.1195
    173  CG        24.9510   15.8630   -7.3030 C.2   452  ASN452      0.2630
    174  OD1       24.4400   15.4010   -6.2830 O.2   452  ASN452     -0.2716
    175  ND2       24.5900   17.0330   -7.8180 N.am  452  ASN452     -0.0877
    176  N         27.8110   13.0840   -6.5860 N.am  453  ALA453     -0.1977
    177  CA        28.4330   11.7630   -6.5900 C.3   453  ALA453      0.1597
    178  C         28.2370   11.0840   -7.9350 C.2   453  ALA453      0.2287
    179  O         29.1410   10.4090   -8.4430 O.2   453  ALA453     -0.2864
    180  CB        27.8560   10.9050   -5.4630 C.3   453  ALA453      0.0319
    181  N         33.1270   14.1230  -14.8650 N.3   457  PHE457     -0.1241
    182  CA        34.0570   15.2190  -14.5840 C.3   457  PHE457      0.1605
    183  C         35.4610   14.7160  -14.9280 C.2   457  PHE457      0.2264
    184  O         35.7820   13.5780  -14.5710 O.2   457  PHE457     -0.2867
    185  CB        33.9480   15.6280  -13.1080 C.3   457  PHE457      0.0534
    186  CG        34.6750   16.8940  -12.7570 C.ar  457  PHE457     -0.0203
    187  CD1       36.0150   16.8660  -12.4080 C.ar  457  PHE457     -0.0042
    188  CD2       34.0090   18.1080  -12.7430 C.ar  457  PHE457     -0.0042
    189  CE1       36.6830   18.0280  -12.0760 C.ar  457  PHE457     -0.0003
    190  CE2       34.6720   19.2740  -12.4090 C.ar  457  PHE457     -0.0003
    191  CZ        36.0100   19.2330  -12.0760 C.ar  457  PHE457     -0.0000
    192  N         36.2500   11.1580  -14.0190 N.3   468  GLU468     -0.1245
    193  CA        35.9080   10.6520  -12.6990 C.3   468  GLU468      0.1567
    194  C         34.4230   10.8720  -12.4390 C.2   468  GLU468      0.2260
    195  O         33.7400   11.5850  -13.1800 O.2   468  GLU468     -0.2867
    196  CB        36.7460   11.3390  -11.6150 C.3   468  GLU468      0.0388
    197  CG        36.1140   12.6090  -11.0730 C.3   468  GLU468      0.1160
    198  CD        37.0800   13.4450  -10.2590 C.2   468  GLU468      0.3649
    199  OE1       38.2410   13.0190  -10.0940 O.co2 468  GLU468     -0.2457
    200  OE2       36.6790   14.5300   -9.7870 O.co2 468  GLU468     -0.2457
@<TRIPOS>BOND
     1   183   182    1
     2   183   184    2
     3   181   182    1
     4   182   185    1
     5    86    87    1
     6   192   193    1
     7    87    88    1
     8    87    90    1
     9    88    89    2
    10   195   194    2
    11   185   186    1
    12    91    90    1
    13    91    92    1
    14   186   188   ar
    15   186   187   ar
    16   188   190   ar
    17   193   194    1
    18   193   196    1
    19    93    92   ar
    20   190   191   ar
    21   187   189   ar
    22   142   141    2
    23    92    94   ar
    24   189   191   ar
    25   196   197    1
    26   146   147    1
    27   146   149    1
    28   146   145    1
    29   148   147    2
    30   151   149    1
    31   141   145   am
    32   141   140    1
    33   197   198    1
    34   144   143    1
    35   149   150    1
    36   143   140    1
    37   140   139    1
    38   198   199   ar
    39   198   200   ar
    40   165   167    1
    41   165   166    1
    42   165   164    1
    43   152   153    1
    44   136   135    2
    45   139   135   am
    46   108   109    1
    47   108   105    1
    48   158   157    2
    49   161   160    1
    50   161   164    1
    51   161   162    1
    52   153   154    1
    53   153   156    1
    54   106   107    2
    55   106   105    1
    56   179   178    2
    57   135   134    1
    58   109   110    1
    59   171   170    2
    60   111   110    2
    61   168   162   am
    62   168   169    1
    63   172   169    1
    64   172   173    1
    65   154   155    2
    66   178   177    1
    67   105   104    1
    68   175   173   am
    69   157   156    1
    70   157   159   am
    71   162   163    2
    72   110   112   am
    73   170   169    1
    74   170   176   am
    75   173   174    2
    76   104    97   am
    77    75    74    2
    78   134   137    1
    79   134   133    1
    80   137   138    1
    81    95    96    1
    82   177   176    1
    83   177   180    1
    84    84    82   ar
    85    84    85   ar
    86    82    79   ar
    87    71    70    1
    88    97    96    1
    89    97    98    2
    90    85    83   ar
    91   115   116    2
    92   115   114    1
    93    74    73    1
    94    79    77   ar
    95    79    81   ar
    96    76    77    1
    97    76    73    1
    98    70    69    1
    99    96    99    1
   100    77    78   ar
   101    83    81   ar
   102    81    80   ar
   103   113   114    1
   104    44    42   am
   105    73    72    1
   106    78    80   ar
   107   114   117    1
   108    43    42    2
   109    99   100    1
   110    42    41    1
   111   117   118    1
   112    69    68    1
   113    67    66    2
   114   100   101    1
   115    36    34    1
   116    54    52   ar
   117    54    55   ar
   118   122   123    1
   119    68    65    1
   120    41    38    1
   121   125   124    2
   122    52    50   ar
   123   118   119    1
   124    65    66    1
   125    65    64    1
   126    35    34    1
   127   126   123    1
   128   126   127    1
   129    33    32    2
   130    59    58    2
   131    34    31    1
   132   129   127   ar
   133   129   131   ar
   134    55    53   ar
   135   101   102   ar
   136   101   103   ar
   137   123   124    1
   138    31    32    1
   139    31    30    1
   140    63    61    1
   141    50    49    1
   142    50    51   ar
   143   127   128   ar
   144    64    58   am
   145    49    46    1
   146    61    62    1
   147    61    60    1
   148    24    23    2
   149    37    38    1
   150    58    57    1
   151    38    39    1
   152   119   120    2
   153   119   121   am
   154   131   132   ar
   155    45    39   am
   156    45    46    1
   157    53    51   ar
   158    30    23   am
   159    39    40    2
   160    23    22    1
   161    60    57    1
   162   128   130   ar
   163    48    47    2
   164    46    47    1
   165    20    19    2
   166    25    22    1
   167    25    26    1
   168    57    56    1
   169    27    26    1
   170    27    28    1
   171   132   130   ar
   172    29    28    1
   173    18    19    1
   174    18    17    1
   175    22    21    1
   176     6     5    1
   177    15    14    2
   178    17    10   am
   179    11    10    2
   180     4     3    2
   181    14    16   am
   182    14    13    1
   183     5     7    1
   184     5     2    1
   185    10     9    1
   186     3     2    1
   187     2     1    1
   188    13    12    1
   189    12     9    1
   190     9     8    1
