@<TRIPOS>MOLECULE
tmp/6b5jA00.pdb
 206 196 0 0 0
SMALL
GASTEIGER

@<TRIPOS>ATOM
      1  N         55.7500   42.3000  -12.6170 N.3    25  ILE25      -0.1231
      2  CA        54.7030   42.1980  -11.5600 C.3    25  ILE25       0.1692
      3  C         53.3980   42.9450  -11.8600 C.2    25  ILE25       0.2592
      4  O         52.3810   42.6440  -11.2480 O.2    25  ILE25      -0.2718
      5  CB        55.2250   42.5500  -10.1320 C.3    25  ILE25       0.0266
      6  CG1       56.0940   43.8190  -10.1570 C.3    25  ILE25       0.0019
      7  CG2       55.9780   41.3480   -9.5410 C.3    25  ILE25       0.0020
      8  CD1       56.7610   44.2020   -8.8450 C.3    25  ILE25       0.0001
      9  N         53.4200   43.8860  -12.8020 N.am   26  GLY26      -0.1957
     10  CA        52.2240   44.6380  -13.2150 C.3    26  GLY26       0.1869
     11  C         52.4000   45.1350  -14.6470 C.2    26  GLY26       0.2309
     12  O         53.5290   45.3800  -15.0720 O.2    26  GLY26      -0.2863
     13  N         50.1930   51.7930  -20.2290 N.3    28  PHE28      -0.1241
     14  CA        50.9770   52.8190  -19.5400 C.3    28  PHE28       0.1605
     15  C         52.5110   52.5190  -19.4720 C.2    28  PHE28       0.2264
     16  O         53.3310   53.4270  -19.2240 O.2    28  PHE28      -0.2867
     17  CB        50.3750   53.0730  -18.1330 C.3    28  PHE28       0.0534
     18  CG        50.7570   52.0380  -17.0880 C.ar   28  PHE28      -0.0203
     19  CD1       49.9650   50.8960  -16.8820 C.ar   28  PHE28      -0.0042
     20  CD2       51.9140   52.2040  -16.2880 C.ar   28  PHE28      -0.0042
     21  CE1       50.3230   49.9450  -15.9170 C.ar   28  PHE28      -0.0003
     22  CE2       52.2700   51.2540  -15.3240 C.ar   28  PHE28      -0.0003
     23  CZ        51.4710   50.1260  -15.1340 C.ar   28  PHE28      -0.0000
     24  N         55.8320   47.3030  -14.8630 N.3    31  VAL31      -0.1245
     25  CA        56.4580   47.3230  -13.5490 C.3    31  VAL31       0.1561
     26  C         57.2250   46.0170  -13.3210 C.2    31  VAL31       0.2260
     27  O         56.6460   44.9250  -13.3820 O.2    31  VAL31      -0.2867
     28  CB        55.4110   47.5000  -12.4160 C.3    31  VAL31       0.0252
     29  CG1       56.0870   47.4450  -11.0520 C.3    31  VAL31       0.0019
     30  CG2       54.6530   48.8240  -12.5730 C.3    31  VAL31       0.0019
     31  N         61.1260   47.5910   -6.8150 N.3    42  ALA42      -0.1231
     32  CA        60.1430   47.5390   -7.8710 C.3    42  ALA42       0.1694
     33  C         60.4520   48.6780   -8.7960 C.2    42  ALA42       0.2592
     34  O         60.7360   49.7720   -8.3300 O.2    42  ALA42      -0.2718
     35  CB        58.7730   47.7110   -7.2800 C.3    42  ALA42       0.0304
     36  N         60.3830   48.4330  -10.0960 N.am   43  ILE43      -0.1966
     37  CA        60.7080   49.4450  -11.0980 C.3    43  ILE43       0.1727
     38  C         59.5610   49.6450  -12.0320 C.2    43  ILE43       0.2616
     39  O         59.1580   48.7140  -12.7060 O.2    43  ILE43      -0.2715
     40  CB        61.9180   49.0470  -11.9930 C.3    43  ILE43       0.0290
     41  CG1       63.1300   48.6300  -11.1360 C.3    43  ILE43       0.0022
     42  CG2       62.2880   50.1990  -12.9530 C.3    43  ILE43       0.0023
     43  CD1       63.3540   47.1350  -11.0970 C.3    43  ILE43       0.0001
     44  N         59.0930   50.8740  -12.1350 N.am   44  LYS44      -0.1977
     45  CA        58.0430   51.2100  -13.0770 C.3    44  LYS44       0.1596
     46  C         58.7290   51.8160  -14.2730 C.2    44  LYS44       0.2287
     47  O         59.3360   52.8670  -14.1470 O.2    44  LYS44      -0.2864
     48  CB        57.0500   52.2150  -12.4670 C.3    44  LYS44       0.0298
     49  CG        56.0130   52.7940  -13.4220 C.3    44  LYS44       0.0038
     50  CD        55.3720   54.0470  -12.8630 C.3    44  LYS44       0.0206
     51  CE        54.1660   53.7710  -11.9680 C.3    44  LYS44       0.1093
     52  NZ        53.0880   54.8110  -12.0950 N.3    44  LYS44      -0.1314
     53  N         55.3920   63.0040  -11.5390 N.3    56  GLU56      -0.1245
     54  CA        55.4340   61.8380  -10.6780 C.3    56  GLU56       0.1567
     55  C         56.6850   61.8200   -9.8380 C.2    56  GLU56       0.2260
     56  O         56.6140   61.5130   -8.6480 O.2    56  GLU56      -0.2867
     57  CB        55.3180   60.5150  -11.4690 C.3    56  GLU56       0.0388
     58  CG        55.2850   59.2620  -10.5730 C.3    56  GLU56       0.1160
     59  CD        54.9080   57.9520  -11.2860 C.2    56  GLU56       0.3649
     60  OE1       54.8040   57.9780  -12.5110 O.co2  56  GLU56      -0.2457
     61  OE2       54.7370   56.8800  -10.6460 O.co2  56  GLU56      -0.2457
     62  N         57.1320   61.9990   -5.8510 N.3    60  LEU60      -0.1245
     63  CA        57.7680   60.8870   -5.1320 C.3    60  LEU60       0.1561
     64  C         58.9580   61.3130   -4.3050 C.2    60  LEU60       0.2260
     65  O         59.1340   60.8640   -3.1830 O.2    60  LEU60      -0.2867
     66  CB        58.2210   59.7830   -6.0820 C.3    60  LEU60       0.0270
     67  CG        57.1540   58.7780   -6.5050 C.3    60  LEU60       0.0019
     68  CD1       57.6650   57.9690   -7.6790 C.3    60  LEU60       0.0001
     69  CD2       56.7750   57.8510   -5.3620 C.3    60  LEU60       0.0001
     70  N         54.9190   54.1070    0.1930 N.3    69  ILE69      -0.1245
     71  CA        55.9980   53.4430   -0.5540 C.3    69  ILE69       0.1561
     72  C         57.2500   54.2930   -0.6230 C.2    69  ILE69       0.2260
     73  O         57.1690   55.4360   -0.9610 O.2    69  ILE69      -0.2867
     74  CB        55.5730   53.0530   -2.0130 C.3    69  ILE69       0.0252
     75  CG1       56.4480   51.9360   -2.5460 C.3    69  ILE69       0.0019
     76  CG2       55.6710   54.2160   -3.0180 C.3    69  ILE69       0.0019
     77  CD1       56.3100   50.6540   -1.7750 C.3    69  ILE69       0.0001
     78  N         61.0740   54.7300  -12.8010 N.3    84  ILE84      -0.1245
     79  CA        60.9200   55.0150  -11.4100 C.3    84  ILE84       0.1561
     80  C         61.2250   53.7630  -10.5740 C.2    84  ILE84       0.2260
     81  O         60.7360   52.6860  -10.8620 O.2    84  ILE84      -0.2867
     82  CB        59.5180   55.5480  -11.1930 C.3    84  ILE84       0.0252
     83  CG1       59.4990   57.0110  -11.6340 C.3    84  ILE84       0.0019
     84  CG2       59.1050   55.4610   -9.7390 C.3    84  ILE84       0.0019
     85  CD1       58.1030   57.5770  -11.8500 C.3    84  ILE84       0.0001
     86  N         61.2940   52.1150   -6.6050 N.3    86  THR86      -0.1203
     87  CA        60.8910   52.1660   -5.1980 C.3    86  THR86       0.1994
     88  C         61.3080   50.8830   -4.5160 C.2    86  THR86       0.2618
     89  O         61.7090   49.9480   -5.1830 O.2    86  THR86      -0.2717
     90  CB        59.3590   52.2560   -5.0500 C.3    86  THR86       0.1784
     91  OG1       58.7510   51.0420   -5.5540 O.3    86  THR86      -0.2211
     92  CG2       58.8310   53.5100   -5.7690 C.3    86  THR86       0.0376
     93  N         61.1500   50.8260   -3.1950 N.am   87  GLN87      -0.1965
     94  CA        61.2410   49.5680   -2.4700 C.3    87  GLN87       0.1733
     95  C         60.2380   48.5700   -3.0570 C.2    87  GLN87       0.2616
     96  O         59.2470   48.9370   -3.6990 O.2    87  GLN87      -0.2715
     97  CB        60.9800   49.7540   -0.9570 C.3    87  GLN87       0.0408
     98  CG        59.5030   50.0010   -0.5960 C.3    87  GLN87       0.0908
     99  CD        59.1970   50.2660    0.8950 C.2    87  GLN87       0.2608
    100  OE1       58.5550   51.2910    1.2440 O.2    87  GLN87      -0.2717
    101  NE2       59.5840   49.3180    1.7670 N.am   87  GLN87      -0.0878
    102  N         60.5460   47.3090   -2.8150 N.am   88  TYR88      -0.1960
    103  CA        59.7060   46.1680   -3.1420 C.3    88  TYR88       0.1771
    104  C         59.1650   45.6120   -1.8410 C.2    88  TYR88       0.2619
    105  O         59.8980   45.4200   -0.9060 O.2    88  TYR88      -0.2715
    106  CB        60.5110   45.0830   -3.8300 C.3    88  TYR88       0.0574
    107  CG        59.7720   43.7930   -4.1030 C.ar   88  TYR88      -0.0198
    108  CD1       58.9110   43.6810   -5.2040 C.ar   88  TYR88      -0.0009
    109  CD2       59.9680   42.6640   -3.3060 C.ar   88  TYR88      -0.0009
    110  CE1       58.2530   42.4860   -5.4950 C.ar   88  TYR88       0.0417
    111  CE2       59.3220   41.4610   -3.5870 C.ar   88  TYR88       0.0417
    112  CZ        58.4630   41.3760   -4.6790 C.ar   88  TYR88       0.1957
    113  OH        57.8180   40.1940   -4.9690 O.3    88  TYR88      -0.2866
    114  N         57.8610   45.3730   -1.8110 N.am   89  ILE89      -0.1963
    115  CA        57.1600   44.9130   -0.6430 C.3    89  ILE89       0.1727
    116  C         56.7200   43.4960   -0.9460 C.2    89  ILE89       0.2617
    117  O         55.9770   43.2650   -1.9070 O.2    89  ILE89      -0.2715
    118  CB        55.9750   45.8330   -0.3880 C.3    89  ILE89       0.0290
    119  CG1       56.5090   47.2560   -0.2110 C.3    89  ILE89       0.0022
    120  CG2       55.1610   45.2960    0.7800 C.3    89  ILE89       0.0023
    121  CD1       56.0960   47.9690    1.0570 C.3    89  ILE89       0.0001
    122  N         57.2020   42.5530   -0.1410 N.am   90  SER90      -0.1936
    123  CA        57.1700   41.1400   -0.5220 C.3    90  SER90       0.2055
    124  C         55.8120   40.5170   -0.3350 C.2    90  SER90       0.2644
    125  O         55.5060   39.4850   -0.9580 O.2    90  SER90      -0.2714
    126  CB        58.2170   40.3210    0.2530 C.3    90  SER90       0.2130
    127  OG        57.7250   39.9270    1.5260 O.3    90  SER90      -0.2179
    128  N         55.0170   41.1170    0.5360 N.am   91  GLY91      -0.1939
    129  CA        53.7470   40.5030    0.8790 C.3    91  GLY91       0.2014
    130  C         52.6080   40.7890   -0.0780 C.2    91  GLY91       0.2639
    131  O         51.4910   40.3110    0.1220 O.2    91  GLY91      -0.2714
    132  N         52.8740   41.6030   -1.0910 N.am   92  GLY92      -0.1939
    133  CA        51.9240   41.8070   -2.1640 C.3    92  GLY92       0.2014
    134  C         50.8760   42.8860   -1.9540 C.2    92  GLY92       0.2639
    135  O         50.9190   43.6640   -0.9820 O.2    92  GLY92      -0.2714
    136  N         49.9210   42.9000   -2.8880 N.am   93  SER93      -0.1949
    137  CA        48.8370   43.8600   -2.8730 C.3    93  SER93       0.1924
    138  C         47.6940   43.3160   -2.0130 C.2    93  SER93       0.2314
    139  O         47.5300   42.0760   -1.8470 O.2    93  SER93      -0.2863
    140  CB        48.3560   44.2230   -4.2890 C.3    93  SER93       0.2116
    141  OG        47.5000   43.2560   -4.8970 O.3    93  SER93      -0.2180
    142  N         45.3190   41.2160   -4.1090 N.3    96  SER96      -0.1217
    143  CA        45.7380   39.8070   -4.1600 C.3    96  SER96       0.1889
    144  C         45.3670   39.0280   -2.9000 C.2    96  SER96       0.2288
    145  O         44.7750   37.9650   -2.9950 O.2    96  SER96      -0.2866
    146  CB        47.2290   39.6870   -4.3770 C.3    96  SER96       0.2089
    147  OG        47.5910   40.4020   -5.5270 O.3    96  SER96      -0.2183
    148  N         44.2910   35.1790   -3.4620 N.3   101  GLN101     -0.1245
    149  CA        44.6000   34.2320   -2.4070 C.3   101  GLN101      0.1566
    150  C         43.4400   34.0570   -1.4000 C.2   101  GLN101      0.2260
    151  O         43.5190   33.2090   -0.5350 O.2   101  GLN101     -0.2867
    152  CB        45.8840   34.6540   -1.6900 C.3   101  GLN101      0.0367
    153  CG        47.0690   34.7750   -2.6280 C.3   101  GLN101      0.0905
    154  CD        48.1150   35.7460   -2.1030 C.2   101  GLN101      0.2608
    155  OE1       47.8190   36.8900   -1.7670 O.2   101  GLN101     -0.2717
    156  NE2       49.3620   35.2930   -2.0360 N.am  101  GLN101     -0.0878
    157  N         44.6900   47.6120   -5.2610 N.3   139  HIS139     -0.1226
    158  CA        45.9120   47.3010   -6.0440 C.3   139  HIS139      0.1752
    159  C         47.1310   48.0600   -5.6170 C.2   139  HIS139      0.2596
    160  O         48.2390   47.5630   -5.8470 O.2   139  HIS139     -0.2718
    161  CB        45.7470   47.5420   -7.5430 C.3   139  HIS139      0.0759
    162  CG        44.6730   46.7240   -8.1660 C.ar  139  HIS139      0.0818
    163  ND1       44.8280   45.3840   -8.4180 N.ar  139  HIS139     -0.2268
    164  CD2       43.4330   47.0520   -8.5790 C.ar  139  HIS139      0.1154
    165  CE1       43.7210   44.9150   -8.9480 C.ar  139  HIS139      0.1986
    166  NE2       42.8560   45.9090   -9.0540 N.ar  139  HIS139     -0.2212
    167  N         46.9020   49.2440   -5.0290 N.am  140  ASN140     -0.1974
    168  CA        47.9260   50.1830   -4.5790 C.3   140  ASN140      0.1688
    169  C         48.1460   50.2420   -3.0790 C.2   140  ASN140      0.2292
    170  O         48.9110   51.0570   -2.6080 O.2   140  ASN140     -0.2864
    171  CB        47.5290   51.5490   -5.0660 C.3   140  ASN140      0.1181
    172  CG        47.4740   51.6150   -6.5780 C.2   140  ASN140      0.2629
    173  OD1       48.0950   50.7920   -7.3050 O.2   140  ASN140     -0.2716
    174  ND2       46.7190   52.6110   -7.0860 N.am  140  ASN140     -0.0877
    175  N         49.8720   47.8930   -0.6220 N.3   142  LEU142     -0.1245
    176  CA        50.8070   46.7850   -0.5310 C.3   142  LEU142      0.1561
    177  C         51.0730   46.4510    0.9210 C.2   142  LEU142      0.2260
    178  O         50.8380   47.2790    1.8070 O.2   142  LEU142     -0.2867
    179  CB        52.1200   47.1820   -1.2000 C.3   142  LEU142      0.0270
    180  CG        51.9680   47.7830   -2.6060 C.3   142  LEU142      0.0019
    181  CD1       53.3160   48.1670   -3.1960 C.3   142  LEU142      0.0001
    182  CD2       51.2710   46.8030   -3.5090 C.3   142  LEU142      0.0001
    183  N         50.9910   52.9050   -2.4270 N.3   152  ALA152     -0.1231
    184  CA        51.9440   52.8790   -3.5220 C.3   152  ALA152      0.1694
    185  C         51.3680   53.5200   -4.7610 C.2   152  ALA152      0.2592
    186  O         50.2120   53.8310   -4.8220 O.2   152  ALA152     -0.2718
    187  CB        52.3390   51.4410   -3.7910 C.3   152  ALA152      0.0304
    188  N         52.1990   53.7100   -5.7570 N.am  153  ASP153     -0.1960
    189  CA        51.7900   54.1520   -7.0940 C.3   153  ASP153      0.1840
    190  C         51.1480   55.5290   -7.1380 C.2   153  ASP153      0.2622
    191  O         49.9370   55.6790   -7.0420 O.2   153  ASP153     -0.2715
    192  CB        50.9280   53.1260   -7.8200 C.3   153  ASP153      0.1450
    193  CG        50.8970   53.3460   -9.3320 C.2   153  ASP153      0.3671
    194  OD1       51.4330   54.3660   -9.7930 O.co2 153  ASP153     -0.2456
    195  OD2       50.3250   52.5070  -10.0690 O.co2 153  ASP153     -0.2456
    196  N         52.0130   56.5120   -7.3620 N.am  154  PHE154     -0.1974
    197  CA        51.6570   57.8940   -7.4630 C.3   154  PHE154      0.1639
    198  C         51.5790   58.3020   -8.9210 C.2   154  PHE154      0.2290
    199  O         51.8660   59.4710   -9.2550 O.2   154  PHE154     -0.2864
    200  CB        52.6910   58.7060   -6.6700 C.3   154  PHE154      0.0560
    201  CG        52.5570   58.4910   -5.2150 C.ar  154  PHE154     -0.0200
    202  CD1       52.9670   57.3150   -4.6590 C.ar  154  PHE154     -0.0042
    203  CD2       51.9190   59.4210   -4.4200 C.ar  154  PHE154     -0.0042
    204  CE1       52.7760   57.0740   -3.3100 C.ar  154  PHE154     -0.0003
    205  CE2       51.7420   59.2020   -3.0810 C.ar  154  PHE154     -0.0003
    206  CZ        52.1650   58.0180   -2.5260 C.ar  154  PHE154     -0.0000
@<TRIPOS>BOND
     1    13    14    1
     2    14    15    1
     3    14    17    1
     4    15    16    2
     5    17    18    1
     6    18    19   ar
     7    18    20   ar
     8    19    21   ar
     9    20    22   ar
    10    21    23   ar
    11    22    23   ar
    12    12    11    2
    13    24    25    1
    14    11    10    1
    15    46    47    2
    16    46    45    1
    17    25    26    1
    18    25    28    1
    19    49    50    1
    20    49    48    1
    21    27    26    2
    22    10     9    1
    23    45    48    1
    24    45    44    1
    25    42    40    1
    26    50    51    1
    27     9     3   am
    28    78    79    1
    29    39    38    2
    30     1     2    1
    31    30    28    1
    32    60    59   ar
    33    28    29    1
    34    44    38   am
    35    52    51    1
    36    38    37    1
    37    40    41    1
    38    40    37    1
    39     3     2    1
    40     3     4    2
    41    85    83    1
    42    83    82    1
    43     2     5    1
    44    53    54    1
    45    57    54    1
    46    57    58    1
    47    79    82    1
    48    79    80    1
    49    59    61   ar
    50    59    58    1
    51    82    84    1
    52    41    43    1
    53    37    36    1
    54    81    80    2
    55    54    55    1
    56     6     5    1
    57     6     8    1
    58     5     7    1
    59    36    33   am
    60   195   193   ar
    61    55    56    2
    62   194   193   ar
    63   193   192    1
    64   199   198    2
    65   166   165   ar
    66   166   164   ar
    67   165   163   ar
    68   198   197    1
    69    33    34    2
    70    33    32    1
    71   164   162   ar
    72   163   162   ar
    73   162   161    1
    74    32    35    1
    75    32    31    1
    76   192   189    1
    77    68    67    1
    78   161   158    1
    79   197   196    1
    80   197   200    1
    81   196   190   am
    82   173   172    2
    83   190   189    1
    84   190   191    2
    85   189   188    1
    86   174   172   am
    87   200   201    1
    88    86    87    1
    89   172   171    1
    90    67    66    1
    91    67    69    1
    92    66    63    1
    93   158   159    1
    94   158   157    1
    95    62    63    1
    96   160   159    2
    97    92    90    1
    98   188   185   am
    99   159   167   am
   100    91    90    1
   101   147   146    1
   102   110   108   ar
   103   110   112   ar
   104   201   202   ar
   105   201   203   ar
   106   108   107   ar
   107    87    90    1
   108    87    88    1
   109    89    88    2
   110    63    64    1
   111   171   168    1
   112   167   168    1
   113   113   112    1
   114   141   140    1
   115   186   185    2
   116   185   184    1
   117   112   111   ar
   118   202   204   ar
   119   168   169    1
   120    88    93   am
   121   203   205   ar
   122   146   143    1
   123    64    65    2
   124   140   137    1
   125   143   142    1
   126   143   144    1
   127   107   106    1
   128   107   109   ar
   129   106   103    1
   130   187   184    1
   131    96    95    2
   132   111   109   ar
   133   184   183    1
   134   182   180    1
   135   148   149    1
   136   204   206   ar
   137   181   180    1
   138    93    94    1
   139   103   102    1
   140   103   104    1
   141   205   206   ar
   142   169   170    2
   143    95   102   am
   144    95    94    1
   145    76    74    1
   146   145   144    2
   147   136   137    1
   148   136   134   am
   149   137   138    1
   150   153   154    1
   151   153   152    1
   152   180   179    1
   153    75    74    1
   154    75    77    1
   155    94    97    1
   156   149   152    1
   157   149   150    1
   158   133   134    1
   159   133   132    1
   160   154   156   am
   161   154   155    2
   162    74    71    1
   163   138   139    2
   164   134   135    2
   165   117   116    2
   166   104   114   am
   167   104   105    2
   168   114   115    1
   169   150   151    2
   170   179   176    1
   171   132   130   am
   172    73    72    2
   173   125   124    2
   174    97    98    1
   175   116   115    1
   176   116   122   am
   177   115   118    1
   178    72    71    1
   179   175   176    1
   180    98    99    1
   181    71    70    1
   182   176   177    1
   183   123   124    1
   184   123   122    1
   185   123   126    1
   186   118   119    1
   187   118   120    1
   188   124   128   am
   189   119   121    1
   190   130   131    2
   191   130   129    1
   192   126   127    1
   193   128   129    1
   194    99   100    2
   195    99   101   am
   196   177   178    2
