@<TRIPOS>MOLECULE
tmp/6b5kB00.pdb
 147 138 0 0 0
SMALL
GASTEIGER

@<TRIPOS>ATOM
      1  N        178.8630  -38.2510   17.1460 N.3     6  LEU6       -0.1245
      2  CA       178.6830  -39.6230   17.5170 C.3     6  LEU6        0.1561
      3  C        179.8730  -40.4650   17.0850 C.2     6  LEU6        0.2260
      4  O        180.0010  -40.8500   15.9100 O.2     6  LEU6       -0.2867
      5  CB       177.3730  -40.2090   16.9860 C.3     6  LEU6        0.0270
      6  CG       176.0940  -39.8500   17.7680 C.3     6  LEU6        0.0019
      7  CD1      174.8440  -40.0250   16.9250 C.3     6  LEU6        0.0001
      8  CD2      176.0130  -40.6930   19.0360 C.3     6  LEU6        0.0001
      9  N        180.8860  -43.3260   18.9320 N.3     8  GLY8       -0.1210
     10  CA       180.8250  -44.6330   19.5290 C.3     8  GLY8        0.1956
     11  C        180.3850  -45.7430   18.5960 C.2     8  GLY8        0.2612
     12  O        180.8730  -45.8620   17.4550 O.2     8  GLY8       -0.2717
     13  N        179.4650  -46.5820   19.0800 N.am    9  GLY9       -0.1942
     14  CA       179.0230  -47.7700   18.3820 C.3     9  GLY9        0.2014
     15  C        179.9040  -48.9960   18.3470 C.2     9  GLY9        0.2640
     16  O        181.0990  -48.9930   18.6850 O.2     9  GLY9       -0.2714
     17  N        179.3340  -50.0880   17.8910 N.am   10  SER10      -0.1935
     18  CA       180.0730  -51.3310   17.7950 C.3    10  SER10       0.2055
     19  C        180.8770  -51.5400   16.5070 C.2    10  SER10       0.2644
     20  O        181.8230  -52.3250   16.4690 O.2    10  SER10      -0.2714
     21  CB       179.0820  -52.4870   17.9100 C.3    10  SER10       0.2130
     22  OG       178.5190  -52.4610   19.2150 O.3    10  SER10      -0.2179
     23  N        180.4060  -50.9530   15.4230 N.am   11  GLY11      -0.1939
     24  CA       181.0240  -51.1830   14.0990 C.3    11  GLY11       0.2014
     25  C        181.0260  -52.6180   13.6240 C.2    11  GLY11       0.2640
     26  O        182.0580  -53.1660   13.1700 O.2    11  GLY11      -0.2714
     27  N        179.8750  -53.2960   13.7310 N.am   12  THR12      -0.1936
     28  CA       179.8560  -54.7250   13.4300 C.3    12  THR12       0.2028
     29  C        180.1890  -55.0920   11.9690 C.2    12  THR12       0.2642
     30  O        180.7920  -56.1210   11.7010 O.2    12  THR12      -0.2714
     31  CB       178.5220  -55.4020   13.8310 C.3    12  THR12       0.1808
     32  OG1      177.4450  -54.8380   13.0790 O.3    12  THR12      -0.2208
     33  CG2      178.2610  -55.2220   15.3630 C.3    12  THR12       0.0379
     34  N        179.8080  -54.2310   11.0290 N.am   13  ARG13      -0.1977
     35  CA       180.0990  -54.4970    9.6310 C.3    13  ARG13       0.1597
     36  C        181.5730  -54.3470    9.2750 C.2    13  ARG13       0.2287
     37  O        181.9560  -54.6030    8.1250 O.2    13  ARG13      -0.2864
     38  CB       179.2260  -53.6020    8.7300 C.3    13  ARG13       0.0334
     39  CG       177.7580  -53.9810    8.7320 C.3    13  ARG13       0.0492
     40  CD       176.8910  -52.9070    8.1000 C.3    13  ARG13       0.2205
     41  NE       176.6960  -51.7410    8.9530 N.pl3  13  ARG13      -0.0865
     42  CZ       176.1720  -50.5740    8.5710 C.cat  13  ARG13       0.5346
     43  NH1      176.0170  -49.6030    9.4530 N.pl3  13  ARG13       0.1354
     44  NH2      175.8140  -50.3440    7.2960 N.pl3  13  ARG13       0.1354
     45  N        185.7880  -47.7660   14.8580 N.3    23  LYS23      -0.1231
     46  CA       185.6090  -47.2510   13.4620 C.3    23  LYS23       0.1693
     47  C        186.1130  -45.7950   13.3250 C.2    23  LYS23       0.2591
     48  O        186.6110  -45.3560   12.2760 O.2    23  LYS23      -0.2718
     49  CB       184.1060  -47.2960   13.0930 C.3    23  LYS23       0.0285
     50  CG       183.7550  -46.7870   11.6880 C.3    23  LYS23       0.0035
     51  CD       182.5000  -47.4570   11.1300 C.3    23  LYS23       0.0206
     52  CE       181.3080  -47.2550   12.0270 C.3    23  LYS23       0.1093
     53  NZ       180.0410  -47.6470   11.3760 N.3    23  LYS23      -0.1314
     54  N        185.9310  -44.9810   14.3540 N.am   24  GLN24      -0.1979
     55  CA       186.2330  -43.5810   14.2290 C.3    24  GLN24       0.1601
     56  C        187.7160  -43.2520   14.4090 C.2    24  GLN24       0.2287
     57  O        188.1130  -42.1100   14.2740 O.2    24  GLN24      -0.2864
     58  CB       185.3450  -42.7580   15.1840 C.3    24  GLN24       0.0394
     59  CG       183.9240  -42.5310   14.7020 C.3    24  GLN24       0.0908
     60  CD       183.0470  -43.7690   14.7800 C.2    24  GLN24       0.2608
     61  OE1      182.3390  -44.0930   13.8260 O.2    24  GLN24      -0.2717
     62  NE2      183.0580  -44.4490   15.9290 N.am   24  GLN24      -0.0878
     63  N        181.1180  -38.0980   21.6820 N.3    52  ILE52      -0.1245
     64  CA       180.5420  -39.2390   22.3970 C.3    52  ILE52       0.1561
     65  C        181.2860  -40.4930   21.9700 C.2    52  ILE52       0.2260
     66  O        181.3450  -40.8190   20.7460 O.2    52  ILE52      -0.2867
     67  CB       179.0240  -39.2990   22.1220 C.3    52  ILE52       0.0252
     68  CG1      178.3610  -38.0230   22.6350 C.3    52  ILE52       0.0019
     69  CG2      178.3690  -40.5090   22.7430 C.3    52  ILE52       0.0019
     70  CD1      176.9160  -37.8560   22.2330 C.3    52  ILE52       0.0001
     71  N        179.2310  -43.0130   26.2360 N.3    80  GLN80      -0.1245
     72  CA       178.0180  -43.7550   25.9730 C.3    80  GLN80       0.1566
     73  C        178.2970  -45.1770   26.3620 C.2    80  GLN80       0.2260
     74  O        179.1730  -45.8140   25.7920 O.2    80  GLN80      -0.2867
     75  CB       177.6060  -43.6360   24.4950 C.3    80  GLN80       0.0367
     76  CG       176.2560  -44.2780   24.2050 C.3    80  GLN80       0.0905
     77  CD       175.8040  -44.1760   22.7500 C.2    80  GLN80       0.2608
     78  OE1      176.6270  -44.0970   21.8500 O.2    80  GLN80      -0.2717
     79  NE2      174.4820  -44.1950   22.5210 N.am   80  GLN80      -0.0878
     80  N        175.8790  -49.1300   23.0700 N.3    83  PRO83      -0.2102
     81  CA       175.5460  -48.5640   21.7620 C.3    83  PRO83       0.1504
     82  C        174.0380  -48.6180   21.4740 C.2    83  PRO83       0.2576
     83  O        173.5900  -49.3710   20.5950 O.2    83  PRO83      -0.2718
     84  CB       176.3330  -49.4530   20.7980 C.3    83  PRO83       0.0282
     85  CG       176.4050  -50.7790   21.4600 C.3    83  PRO83       0.0208
     86  CD       176.2660  -50.5470   22.9700 C.3    83  PRO83       0.0893
     87  N        173.2910  -47.7770   22.1890 N.am   84  ASP84      -0.1960
     88  CA       171.8310  -47.8540   22.2610 C.3    84  ASP84       0.1840
     89  C        171.1420  -46.9340   21.2770 C.2    84  ASP84       0.2623
     90  O        169.9280  -46.7420   21.3620 O.2    84  ASP84      -0.2715
     91  CB       171.3450  -47.4550   23.6680 C.3    84  ASP84       0.1450
     92  CG       171.5140  -48.5520   24.6750 C.2    84  ASP84       0.3671
     93  OD1      171.3200  -49.7310   24.3110 O.co2  84  ASP84      -0.2456
     94  OD2      171.8440  -48.2290   25.8370 O.co2  84  ASP84      -0.2456
     95  N        171.8980  -46.3460   20.3550 N.am   85  GLY85      -0.1940
     96  CA       171.2920  -45.5800   19.2850 C.3    85  GLY85       0.2014
     97  C        171.7190  -44.1420   19.1740 C.2    85  GLY85       0.2638
     98  O        172.1650  -43.5090   20.1300 O.2    85  GLY85      -0.2714
     99  N        171.5420  -43.6200   17.9670 N.am   86  LEU86      -0.1977
    100  CA       171.9720  -42.2960   17.5960 C.3    86  LEU86       0.1596
    101  C        171.2420  -41.1560   18.3350 C.2    86  LEU86       0.2287
    102  O        171.8440  -40.1380   18.6540 O.2    86  LEU86      -0.2864
    103  CB       171.8090  -42.1520   16.0670 C.3    86  LEU86       0.0297
    104  CG       172.8580  -42.7950   15.1440 C.3    86  LEU86       0.0022
    105  CD1      173.1710  -44.2600   15.4030 C.3    86  LEU86       0.0001
    106  CD2      172.4420  -42.5940   13.6840 C.3    86  LEU86       0.0001
    107  N        177.6060  -37.5970   12.2710 N.3   106  LEU106     -0.1231
    108  CA       178.0050  -38.9770   12.4760 C.3   106  LEU106      0.1693
    109  C        179.5160  -39.1970   12.2480 C.2   106  LEU106      0.2593
    110  O        180.1250  -38.6460   11.3140 O.2   106  LEU106     -0.2718
    111  CB       177.1480  -39.9510   11.6460 C.3   106  LEU106      0.0284
    112  CG       175.6080  -40.0150   11.7890 C.3   106  LEU106      0.0019
    113  CD1      175.0100  -41.2340   11.0860 C.3   106  LEU106      0.0001
    114  CD2      175.2270  -40.0660   13.2610 C.3   106  LEU106      0.0001
    115  N        180.1050  -40.0140   13.1090 N.am  107  GLY107     -0.1942
    116  CA       181.5530  -40.1520   13.1830 C.3   107  GLY107      0.2014
    117  C        182.1790  -40.8350   11.9900 C.2   107  GLY107      0.2638
    118  O        183.3850  -40.6860   11.7610 O.2   107  GLY107     -0.2714
    119  N        181.3680  -41.6000   11.2710 N.am  108  ASP108     -0.1971
    120  CA       181.8430  -42.3950   10.1390 C.3   108  ASP108      0.1709
    121  C        181.4440  -41.7810    8.7910 C.2   108  ASP108      0.2293
    122  O        181.5540  -42.4730    7.7680 O.2   108  ASP108     -0.2864
    123  CB       181.3280  -43.8320   10.2320 C.3   108  ASP108      0.1436
    124  CG       179.8310  -43.9410   10.0430 C.2   108  ASP108      0.3671
    125  OD1      179.1330  -42.9120    9.9430 O.co2 108  ASP108     -0.2456
    126  OD2      179.3610  -45.1040    9.9620 O.co2 108  ASP108     -0.2456
    127  N        167.1950  -49.6410   19.0520 N.3   177  GLU177     -0.1245
    128  CA       168.0280  -48.4540   19.2440 C.3   177  GLU177      0.1567
    129  C        167.1180  -47.2160   19.3640 C.2   177  GLU177      0.2260
    130  O        165.9830  -47.2250   18.8840 O.2   177  GLU177     -0.2867
    131  CB       169.0550  -48.3200   18.0760 C.3   177  GLU177      0.0388
    132  CG       170.0950  -49.4550   17.9850 C.3   177  GLU177      0.1160
    133  CD       171.1300  -49.2840   16.8420 C.2   177  GLU177      0.3649
    134  OE1      171.1120  -48.2460   16.1530 O.co2 177  GLU177     -0.2457
    135  OE2      171.9570  -50.1980   16.6360 O.co2 177  GLU177     -0.2457
    136  N        180.1270  -43.0470    3.7420 N.3   206  ASP206     -0.1239
    137  CA       180.0050  -43.7550    5.0510 C.3   206  ASP206      0.1674
    138  C        181.0770  -44.8430    5.0400 C.2   206  ASP206      0.2266
    139  O        181.1680  -45.6170    4.0690 O.2   206  ASP206     -0.2867
    140  CB       178.6300  -44.3960    5.1500 C.3   206  ASP206      0.1410
    141  CG       178.4880  -45.3200    6.3760 C.2   206  ASP206      0.3668
    142  OD1      177.8880  -44.8260    7.3400 O.co2 206  ASP206     -0.2456
    143  OD2      178.9500  -46.4980    6.3550 O.co2 206  ASP206     -0.2456
    144  N        181.6730  -47.5220    6.9390 N.3   208  GLY208     -0.1225
    145  CA       181.3670  -48.6590    7.7970 C.3   208  GLY208      0.1811
    146  C        181.3910  -50.0750    7.2410 C.2   208  GLY208      0.2280
    147  O        180.9770  -51.0260    7.9600 O.2   208  GLY208     -0.2866
@<TRIPOS>BOND
     1   136   137    1
     2   139   138    2
     3   138   137    1
     4   137   140    1
     5   140   141    1
     6   143   141   ar
     7   141   142   ar
     8   144   145    1
     9   146   145    1
    10   146   147    2
    11    44    42    1
    12   122   121    2
    13    40    39    1
    14    40    41    1
    15    37    36    2
    16    42    41    2
    17    42    43    1
    18    38    39    1
    19    38    35    1
    20   121   120    1
    21    36    35    1
    22    35    34    1
    23   125   124   ar
    24   126   124   ar
    25   124   123    1
    26   120   123    1
    27   120   119    1
    28    34    29   am
    29   113   112    1
    30    51    50    1
    31    51    52    1
    32   119   117   am
    33   110   109    2
    34    53    52    1
    35   111   112    1
    36   111   108    1
    37    50    49    1
    38    30    29    2
    39   118   117    2
    40   112   114    1
    41    29    28    1
    42   117   116    1
    43   109   108    1
    44   109   115   am
    45   107   108    1
    46    48    47    2
    47    32    31    1
    48    49    46    1
    49   115   116    1
    50    26    25    2
    51    47    46    1
    52    47    54   am
    53    28    27    1
    54    28    31    1
    55    46    45    1
    56    25    27   am
    57    25    24    1
    58   106   104    1
    59    61    60    2
    60    31    33    1
    61    24    23    1
    62    55    54    1
    63    55    56    1
    64    55    58    1
    65    57    56    2
    66    59    60    1
    67    59    58    1
    68    60    62   am
    69   104   105    1
    70   104   103    1
    71    23    19   am
    72     4     3    2
    73   103   100    1
    74   134   133   ar
    75    20    19    2
    76    19    18    1
    77   135   133   ar
    78   133   132    1
    79     7     6    1
    80     5     2    1
    81     5     6    1
    82     3     2    1
    83     1     2    1
    84    12    11    2
    85   100    99    1
    86   100   101    1
    87     6     8    1
    88    18    17    1
    89    18    21    1
    90    17    15   am
    91    21    22    1
    92    99    97   am
    93   132   131    1
    94   131   128    1
    95   101   102    2
    96    15    14    1
    97    15    16    2
    98    14    13    1
    99    11    13   am
   100    11    10    1
   101   130   129    2
   102     9    10    1
   103   127   128    1
   104    97    96    1
   105    97    98    2
   106   128   129    1
   107    96    95    1
   108    95    89   am
   109    83    82    2
   110    66    65    2
   111    84    85    1
   112    84    81    1
   113    89    90    2
   114    89    88    1
   115    85    86    1
   116    82    81    1
   117    82    87   am
   118    63    64    1
   119    81    80    1
   120    78    77    2
   121    65    64    1
   122    67    64    1
   123    67    68    1
   124    67    69    1
   125    87    88    1
   126    70    68    1
   127    88    91    1
   128    79    77   am
   129    77    76    1
   130    86    80    1
   131    91    92    1
   132    76    75    1
   133    93    92   ar
   134    75    72    1
   135    92    94   ar
   136    74    73    2
   137    72    71    1
   138    72    73    1
