@<TRIPOS>MOLECULE
tmp/6b5qA00.pdb
 212 205 0 0 0
SMALL
GASTEIGER

@<TRIPOS>ATOM
      1  N         -4.6400   20.9420   12.5020 N.3    22  ILE22      -0.1245
      2  CA        -4.7580   20.5090   13.8980 C.3    22  ILE22       0.1561
      3  C         -4.9610   18.9760   13.9380 C.2    22  ILE22       0.2260
      4  O         -4.2010   18.2770   14.6180 O.2    22  ILE22      -0.2867
      5  CB        -5.9670   21.2480   14.5810 C.3    22  ILE22       0.0252
      6  CG1       -5.8890   22.7750   14.3810 C.3    22  ILE22       0.0019
      7  CG2       -6.0970   20.8870   16.0800 C.3    22  ILE22       0.0019
      8  CD1       -7.2590   23.5680   14.5980 C.3    22  ILE22       0.0001
      9  N         -1.8710   17.0280   12.5050 N.3    25  ILE25      -0.1231
     10  CA        -0.7260   17.0760   13.4310 C.3    25  ILE25       0.1692
     11  C         -1.0290   16.1640   14.6230 C.2    25  ILE25       0.2591
     12  O         -0.1540   15.4050   15.0540 O.2    25  ILE25      -0.2718
     13  CB        -0.3620   18.5110   13.8680 C.3    25  ILE25       0.0266
     14  CG1        0.1370   19.3610   12.6910 C.3    25  ILE25       0.0019
     15  CG2        0.6470   18.4950   15.0100 C.3    25  ILE25       0.0020
     16  CD1        0.2350   20.8200   13.0500 C.3    25  ILE25       0.0001
     17  N         -2.2790   16.2220   15.1310 N.am   26  GLN26      -0.1979
     18  CA        -2.7250   15.3310   16.1990 C.3    26  GLN26       0.1601
     19  C         -2.6030   13.8460   15.7640 C.2    26  GLN26       0.2287
     20  O         -2.1690   13.0140   16.5630 O.2    26  GLN26      -0.2864
     21  CB        -4.1590   15.6530   16.6280 C.3    26  GLN26       0.0394
     22  CG        -4.2110   16.7080   17.7280 C.3    26  GLN26       0.0908
     23  CD        -5.5930   17.2340   18.0400 C.2    26  GLN26       0.2608
     24  OE1       -5.7290   18.3340   18.5590 O.2    26  GLN26      -0.2717
     25  NE2       -6.6520   16.4840   17.7380 N.am   26  GLN26      -0.0878
     26  N         -0.4580   12.5340   13.5050 N.3    28  PHE28      -0.1227
     27  CA         0.9720   12.2720   13.3930 C.3    28  PHE28       0.1736
     28  C          1.5970   11.9140   14.7510 C.2    28  PHE28       0.2595
     29  O          2.3780   10.9700   14.8210 O.2    28  PHE28      -0.2718
     30  CB         1.6310   13.5070   12.7500 C.3    28  PHE28       0.0547
     31  CG         3.1330   13.5460   12.6740 C.ar   28  PHE28      -0.0202
     32  CD1        3.8240   12.7230   11.7860 C.ar   28  PHE28      -0.0042
     33  CD2        3.8560   14.4600   13.4280 C.ar   28  PHE28      -0.0042
     34  CE1        5.2170   12.7840   11.6910 C.ar   28  PHE28      -0.0003
     35  CE2        5.2480   14.5180   13.3330 C.ar   28  PHE28      -0.0003
     36  CZ         5.9180   13.6960   12.4500 C.ar   28  PHE28      -0.0000
     37  N          1.2360   12.6510   15.8240 N.am   29  CYS29      -0.1970
     38  CA         1.7470   12.4210   17.1790 C.3    29  CYS29       0.1712
     39  C          1.2070   11.1140   17.7660 C.2    29  CYS29       0.2296
     40  O          1.9010   10.4450   18.5310 O.2    29  CYS29      -0.2864
     41  CB         1.4250   13.6070   18.0830 C.3    29  CYS29       0.0983
     42  SG         2.1750   15.1640   17.5530 S.3    29  CYS29      -0.0798
     43  N          0.8510   15.4670   21.7210 N.3    36  PRO36      -0.2102
     44  CA         1.1730   16.5810   20.8160 C.3    36  PRO36       0.1504
     45  C          1.9100   17.7800   21.4330 C.2    36  PRO36       0.2576
     46  O          2.5780   18.5220   20.7100 O.2    36  PRO36      -0.2718
     47  CB        -0.1990   16.9900   20.2770 C.3    36  PRO36       0.0282
     48  CG        -1.1710   16.5550   21.3360 C.3    36  PRO36       0.0208
     49  CD        -0.6110   15.2280   21.7470 C.3    36  PRO36       0.0893
     50  N          1.7750   17.9830   22.7450 N.am   37  ALA37      -0.1966
     51  CA         2.4000   19.0750   23.4970 C.3    37  ALA37       0.1728
     52  C          3.5760   18.5690   24.3680 C.2    37  ALA37       0.2616
     53  O          4.0240   19.2790   25.2610 O.2    37  ALA37      -0.2715
     54  CB         1.3450   19.7730   24.3750 C.3    37  ALA37       0.0334
     55  N          4.1140   17.3760   24.0710 N.am   38  SER38      -0.1950
     56  CA         5.2280   16.8370   24.8530 C.3    38  SER38       0.1924
     57  C          6.5940   17.3540   24.3900 C.2    38  SER38       0.2314
     58  O          6.7280   17.8630   23.2810 O.2    38  SER38      -0.2863
     59  CB         5.2070   15.3100   24.8270 C.3    38  SER38       0.2116
     60  OG         5.3820   14.8400   23.4990 O.3    38  SER38      -0.2180
     61  N          7.8590   15.6060   21.0790 N.3    41  VAL41      -0.1231
     62  CA         7.2780   16.1950   19.8630 C.3    41  VAL41       0.1692
     63  C          7.9630   17.5240   19.5310 C.2    41  VAL41       0.2591
     64  O          8.1570   17.8350   18.3440 O.2    41  VAL41      -0.2718
     65  CB         5.7280   16.2980   19.9650 C.3    41  VAL41       0.0266
     66  CG1        5.1460   17.1260   18.8320 C.3    41  VAL41       0.0020
     67  CG2        5.1010   14.9080   19.9680 C.3    41  VAL41       0.0020
     68  N          8.3470   18.3000   20.5750 N.am   42  LEU42      -0.1980
     69  CA         9.0700   19.5610   20.3810 C.3    42  LEU42       0.1596
     70  C         10.4560   19.2460   19.7580 C.2    42  LEU42       0.2287
     71  O         10.8890   19.9610   18.8660 O.2    42  LEU42      -0.2864
     72  CB         9.2260   20.3280   21.7060 C.3    42  LEU42       0.0297
     73  CG         9.9710   21.6870   21.6580 C.3    42  LEU42       0.0022
     74  CD1        9.3850   22.6500   20.6090 C.3    42  LEU42       0.0001
     75  CD2        9.9570   22.3490   23.0310 C.3    42  LEU42       0.0001
     76  N         11.1010   16.5660   17.9050 N.3    44  ILE44      -0.1231
     77  CA        10.7510   16.1720   16.5330 C.3    44  ILE44       0.1692
     78  C         10.5800   17.4280   15.6480 C.2    44  ILE44       0.2591
     79  O         11.1300   17.4580   14.5510 O.2    44  ILE44      -0.2718
     80  CB         9.5160   15.2270   16.4990 C.3    44  ILE44       0.0266
     81  CG1        9.8970   13.8330   17.0350 C.3    44  ILE44       0.0019
     82  CG2        8.9150   15.0960   15.0720 C.3    44  ILE44       0.0020
     83  CD1        8.7330   13.0530   17.5370 C.3    44  ILE44       0.0001
     84  N          9.8710   18.4720   16.1550 N.am   45  ALA45      -0.1980
     85  CA         9.6500   19.7380   15.4320 C.3    45  ALA45       0.1597
     86  C         10.9810   20.4080   15.1370 C.2    45  ALA45       0.2287
     87  O         11.1680   20.9500   14.0390 O.2    45  ALA45      -0.2864
     88  CB         8.7550   20.6700   16.2420 C.3    45  ALA45       0.0319
     89  N         12.6330   18.6320   12.3400 N.3    48  PHE48      -0.1241
     90  CA        11.8850   18.9020   11.1150 C.3    48  PHE48       0.1605
     91  C         12.0530   20.3650   10.7460 C.2    48  PHE48       0.2264
     92  O         11.4330   20.8140    9.7820 O.2    48  PHE48      -0.2867
     93  CB        10.3850   18.5630   11.3290 C.3    48  PHE48       0.0534
     94  CG         9.9940   17.1570   10.8980 C.ar   48  PHE48      -0.0203
     95  CD1       10.1270   16.0840   11.7670 C.ar   48  PHE48      -0.0042
     96  CD2        9.4710   16.9200    9.6320 C.ar   48  PHE48      -0.0042
     97  CE1        9.7730   14.7900   11.3670 C.ar   48  PHE48      -0.0003
     98  CE2        9.0940   15.6320    9.2410 C.ar   48  PHE48      -0.0003
     99  CZ         9.2530   14.5730   10.1110 C.ar   48  PHE48      -0.0000
    100  N         10.6180   22.8210   11.9390 N.3    50  ALA50      -0.1245
    101  CA         9.2660   23.4220   11.8230 C.3    50  ALA50       0.1562
    102  C          9.2990   24.9020   12.1680 C.2    50  ALA50       0.2260
    103  O         10.0170   25.3040   13.0750 O.2    50  ALA50      -0.2867
    104  CB         8.2770   22.6970   12.7170 C.3    50  ALA50       0.0290
    105  N          6.5900   27.0130   13.0440 N.3    52  THR52      -0.1203
    106  CA         5.6680   27.4820   14.0810 C.3    52  THR52       0.1994
    107  C          4.8840   26.3530   14.6750 C.2    52  THR52       0.2618
    108  O          4.4320   25.4760   13.9320 O.2    52  THR52      -0.2717
    109  CB         4.6930   28.5370   13.4420 C.3    52  THR52       0.1784
    110  OG1        5.4610   29.5450   12.8010 O.3    52  THR52      -0.2211
    111  CG2        3.7300   29.2050   14.4780 C.3    52  THR52       0.0376
    112  N          4.6460   26.4230   16.0170 N.am   53  GLN53      -0.1965
    113  CA         3.8190   25.4560   16.7310 C.3    53  GLN53       0.1733
    114  C          2.4140   25.4810   16.1210 C.2    53  GLN53       0.2616
    115  O          1.9030   26.5610   15.7990 O.2    53  GLN53      -0.2715
    116  CB         3.7610   25.7720   18.2590 C.3    53  GLN53       0.0408
    117  CG         3.2170   27.1900   18.6160 C.3    53  GLN53       0.0908
    118  CD         2.5880   27.2440   19.9980 C.2    53  GLN53       0.2608
    119  OE1        1.8350   26.3490   20.3810 O.2    53  GLN53      -0.2717
    120  NE2        2.8060   28.3200   20.7460 N.am   53  GLN53      -0.0878
    121  N          1.8260   24.2790   15.9340 N.am   54  CYS54      -0.1954
    122  CA         0.4680   24.0380   15.4260 C.3    54  CYS54       0.1843
    123  C          0.3400   24.2730   13.9180 C.2    54  CYS54       0.2625
    124  O         -0.7700   24.3400   13.3940 O.2    54  CYS54      -0.2714
    125  CB        -0.5620   24.8330   16.2300 C.3    54  CYS54       0.0997
    126  SG        -0.4050   24.6180   18.0240 S.3    54  CYS54      -0.0797
    127  N          1.4810   24.3470   13.2260 N.am   55  GLU55      -0.1963
    128  CA         1.5840   24.5410   11.7860 C.3    55  GLU55       0.1733
    129  C          2.6040   23.5160   11.3150 C.2    55  GLU55       0.2616
    130  O          3.6510   23.3660   11.9430 O.2    55  GLU55      -0.2715
    131  CB         2.1100   25.9730   11.4710 C.3    55  GLU55       0.0429
    132  CG         1.0890   27.0920   11.5960 C.3    55  GLU55       0.1163
    133  CD         1.5720   28.4380   11.0690 C.2    55  GLU55       0.3649
    134  OE1        1.0390   29.4810   11.5170 O.co2  55  GLU55      -0.2457
    135  OE2        2.4790   28.4520   10.2030 O.co2  55  GLU55      -0.2457
    136  N          2.3070   22.8130   10.2200 N.am   56  PHE56      -0.1974
    137  CA         3.1940   21.7870    9.6670 C.3    56  PHE56       0.1639
    138  C          2.9130   21.7130    8.1790 C.2    56  PHE56       0.2290
    139  O          1.8610   21.2600    7.7690 O.2    56  PHE56      -0.2864
    140  CB         2.9540   20.4260   10.3660 C.3    56  PHE56       0.0560
    141  CG         4.0240   19.3640   10.2730 C.ar   56  PHE56      -0.0200
    142  CD1        5.3080   19.6770    9.8310 C.ar   56  PHE56      -0.0042
    143  CD2        3.7560   18.0500   10.6490 C.ar   56  PHE56      -0.0042
    144  CE1        6.2960   18.6870    9.7340 C.ar   56  PHE56      -0.0003
    145  CE2        4.7440   17.0630   10.5640 C.ar   56  PHE56      -0.0003
    146  CZ         6.0080   17.3860   10.1090 C.ar   56  PHE56      -0.0000
    147  N          9.9470   28.8610   17.2960 N.3   103  PHE103     -0.1227
    148  CA         8.8440   27.9190   17.0410 C.3   103  PHE103      0.1736
    149  C          7.5880   28.2830   17.8670 C.2   103  PHE103      0.2595
    150  O          6.4680   28.2130   17.3520 O.2   103  PHE103     -0.2718
    151  CB         9.3320   26.5050   17.3780 C.3   103  PHE103      0.0547
    152  CG         8.3070   25.4010   17.2530 C.ar  103  PHE103     -0.0202
    153  CD1        7.9460   24.8990   16.0040 C.ar  103  PHE103     -0.0042
    154  CD2        7.6960   24.8710   18.3790 C.ar  103  PHE103     -0.0042
    155  CE1        7.0280   23.8520   15.8900 C.ar  103  PHE103     -0.0003
    156  CE2        6.8000   23.8030   18.2690 C.ar  103  PHE103     -0.0003
    157  CZ         6.4570   23.3110   17.0220 C.ar  103  PHE103     -0.0000
    158  N          7.7880   28.6660   19.1440 N.am  104  ALA104     -0.1966
    159  CA         6.7100   28.9820   20.0990 C.3   104  ALA104      0.1728
    160  C          5.9440   30.2620   19.7700 C.2   104  ALA104      0.2616
    161  O          4.7500   30.3770   20.0740 O.2   104  ALA104     -0.2715
    162  CB         7.2920   29.1100   21.4960 C.3   104  ALA104      0.0334
    163  N          6.6600   31.2470   19.2490 N.am  105  LYS105     -0.1963
    164  CA         6.0980   32.5730   18.9670 C.3   105  LYS105      0.1728
    165  C          5.2360   32.6280   17.7010 C.2   105  LYS105      0.2616
    166  O          5.1810   31.6770   16.9260 O.2   105  LYS105     -0.2715
    167  CB         7.2130   33.6570   18.9430 C.3   105  LYS105      0.0311
    168  CG         8.1580   33.6490   17.7460 C.3   105  LYS105      0.0038
    169  CD         9.1260   34.8600   17.9070 C.3   105  LYS105      0.0206
    170  CE         9.5530   35.5200   16.6190 C.3   105  LYS105      0.1093
    171  NZ         8.4110   35.8530   15.7050 N.3   105  LYS105     -0.1314
    172  N          4.5610   33.7540   17.5170 N.am  106  ASN106     -0.1972
    173  CA         3.7930   34.0120   16.3190 C.3   106  ASN106      0.1688
    174  C          4.7220   34.5700   15.2640 C.2   106  ASN106      0.2292
    175  O          5.5280   35.4470   15.5950 O.2   106  ASN106     -0.2864
    176  CB         2.7220   35.0440   16.5900 C.3   106  ASN106      0.1181
    177  CG         1.5290   34.4680   17.2810 C.2   106  ASN106      0.2629
    178  OD1        0.8470   33.6350   16.7330 O.2   106  ASN106     -0.2716
    179  ND2        1.2440   34.9060   18.4850 N.am  106  ASN106     -0.0877
    180  N          3.2040   31.6900   27.1560 N.3   116  MET116     -0.1245
    181  CA         3.8250   30.6710   26.2970 C.3   116  MET116      0.1570
    182  C          5.2970   30.5280   26.6510 C.2   116  MET116      0.2261
    183  O          5.7890   29.4160   26.6330 O.2   116  MET116     -0.2867
    184  CB         3.6510   30.9970   24.7910 C.3   116  MET116      0.0387
    185  CG         2.2320   30.7760   24.2970 C.3   116  MET116      0.0595
    186  SD         1.8050   29.0240   24.2270 S.3   116  MET116     -0.1393
    187  CE         0.0750   29.1190   24.3150 C.3   116  MET116      0.0692
    188  N          5.3320   28.1980   29.6780 N.3   119  ALA119     -0.1231
    189  CA         4.9960   26.8240   29.2740 C.3   119  ALA119      0.1694
    190  C          6.1770   26.1440   28.5630 C.2   119  ALA119      0.2592
    191  O          6.5080   25.0140   28.8810 O.2   119  ALA119     -0.2718
    192  CB         3.7810   26.8530   28.3610 C.3   119  ALA119      0.0304
    193  N          6.8490   26.8540   27.6520 N.am  120  TYR120     -0.1976
    194  CA         8.0210   26.2860   26.9640 C.3   120  TYR120      0.1639
    195  C          9.2340   26.1910   27.8800 C.2   120  TYR120      0.2290
    196  O          9.9450   25.1960   27.8130 O.2   120  TYR120     -0.2864
    197  CB         8.3300   27.0290   25.6540 C.3   120  TYR120      0.0560
    198  CG         7.3880   26.6020   24.5550 C.ar  120  TYR120     -0.0198
    199  CD1        7.6650   25.4860   23.7650 C.ar  120  TYR120     -0.0009
    200  CD2        6.1850   27.2740   24.3410 C.ar  120  TYR120     -0.0009
    201  CE1        6.7950   25.0830   22.7540 C.ar  120  TYR120      0.0417
    202  CE2        5.2970   26.8640   23.3510 C.ar  120  TYR120      0.0417
    203  CZ         5.6160   25.7830   22.5450 C.ar  120  TYR120      0.1957
    204  OH         4.7450   25.4030   21.5500 O.3   120  TYR120     -0.2866
    205  N          8.8350   23.1710   29.8260 N.3   123  LEU123     -0.1245
    206  CA         9.0110   22.0010   28.9680 C.3   123  LEU123      0.1561
    207  C         10.5170   21.7100   28.7330 C.2   123  LEU123      0.2260
    208  O         10.9500   20.5720   28.9020 O.2   123  LEU123     -0.2867
    209  CB         8.2780   22.3150   27.6570 C.3   123  LEU123      0.0270
    210  CG         7.4580   21.2830   26.8920 C.3   123  LEU123      0.0019
    211  CD1        6.7620   20.2310   27.8020 C.3   123  LEU123      0.0001
    212  CD2        6.4640   21.9970   25.9750 C.3   123  LEU123      0.0001
@<TRIPOS>BOND
     1   139   138    2
     2   138   137    1
     3    98    96   ar
     4    98    99   ar
     5    96    94   ar
     6   137   136    1
     7   137   140    1
     8   144   142   ar
     9   144   146   ar
    10    92    91    2
    11   142   141   ar
    12   146   145   ar
    13    99    97   ar
    14   135   133   ar
    15   136   129   am
    16   141   140    1
    17   141   143   ar
    18   145   143   ar
    19    91    90    1
    20    94    93    1
    21    94    95   ar
    22   133   134   ar
    23   133   132    1
    24    90    93    1
    25    90    89    1
    26   129   128    1
    27   129   130    2
    28    97    95   ar
    29   131   132    1
    30   131   128    1
    31    34    32   ar
    32    34    36   ar
    33   128   127    1
    34    32    31   ar
    35   101   100    1
    36   101   102    1
    37   101   104    1
    38   102   103    2
    39    36    35   ar
    40     1     2    1
    41     9    10    1
    42    31    30    1
    43    31    33   ar
    44    14    16    1
    45    14    13    1
    46    30    27    1
    47   110   109    1
    48   105   106    1
    49   127   123   am
    50    35    33   ar
    51    27    26    1
    52    27    28    1
    53   124   123    2
    54    10    13    1
    55    10    11    1
    56   109   106    1
    57   109   111    1
    58    13    15    1
    59     2     3    1
    60     2     5    1
    61   123   122    1
    62   108   107    2
    63     3     4    2
    64    87    86    2
    65   106   107    1
    66     6     5    1
    67     6     8    1
    68    79    78    2
    69     5     7    1
    70    11    12    2
    71    11    17   am
    72   107   112   am
    73    28    29    2
    74    28    37   am
    75    82    80    1
    76    17    18    1
    77    86    85    1
    78   174   175    2
    79   174   173    1
    80   122   121    1
    81   122   125    1
    82    85    84    1
    83    85    88    1
    84    78    84   am
    85    78    77    1
    86   171   170    1
    87    19    18    1
    88    19    20    2
    89   115   114    2
    90    37    38    1
    91   155   153   ar
    92   155   157   ar
    93   121   114   am
    94   153   152   ar
    95   112   113    1
    96   114   113    1
    97    18    21    1
    98   125   126    1
    99   173   176    1
   100   173   172    1
   101    80    77    1
   102    80    81    1
   103    77    76    1
   104   176   177    1
   105   170   169    1
   106    21    22    1
   107   113   116    1
   108   178   177    2
   109   166   165    2
   110   157   156   ar
   111    81    83    1
   112   148   147    1
   113   148   151    1
   114   148   149    1
   115    38    39    1
   116    38    41    1
   117   152   151    1
   118   152   154   ar
   119   177   179   am
   120   150   149    2
   121   172   165   am
   122    42    41    1
   123   165   164    1
   124    22    23    1
   125    25    23   am
   126   168   169    1
   127   168   167    1
   128    39    40    2
   129   149   158   am
   130    23    24    2
   131   116   117    1
   132   156   154   ar
   133    64    63    2
   134   117   118    1
   135    66    65    1
   136    71    70    2
   137   167   164    1
   138   164   163    1
   139   158   159    1
   140   163   160   am
   141    63    62    1
   142    63    68   am
   143    70    69    1
   144   160   161    2
   145   160   159    1
   146    62    65    1
   147    62    61    1
   148    65    67    1
   149   118   119    2
   150   118   120   am
   151   159   162    1
   152    47    44    1
   153    47    48    1
   154    69    68    1
   155    69    72    1
   156    74    73    1
   157    46    45    2
   158    44    45    1
   159    44    43    1
   160    48    49    1
   161    45    50   am
   162   204   203    1
   163    73    72    1
   164    73    75    1
   165    43    49    1
   166   203   201   ar
   167   203   202   ar
   168    50    51    1
   169   201   199   ar
   170    58    57    2
   171   202   200   ar
   172    51    52    1
   173    51    54    1
   174    60    59    1
   175   199   198   ar
   176    55    52   am
   177    55    56    1
   178   186   185    1
   179   186   187    1
   180   185   184    1
   181   200   198   ar
   182    52    53    2
   183    57    56    1
   184   198   197    1
   185   184   181    1
   186    59    56    1
   187   197   194    1
   188   212   210    1
   189   181   182    1
   190   181   180    1
   191   183   182    2
   192   210   209    1
   193   210   211    1
   194   194   193    1
   195   194   195    1
   196   193   190   am
   197   209   206    1
   198   196   195    2
   199   192   189    1
   200   190   191    2
   201   190   189    1
   202   207   208    2
   203   207   206    1
   204   206   205    1
   205   189   188    1
