@<TRIPOS>MOLECULE
tmp/6b5vA00.pdb
 95 90 0 0 0
SMALL
GASTEIGER

@<TRIPOS>ATOM
      1  N        -76.8230 -100.9630  112.7290 N.3   377  PHE377     -0.1241
      2  CA       -76.6340 -101.6170  114.0190 C.3   377  PHE377      0.1605
      3  C        -75.3110 -101.3170  114.7160 C.2   377  PHE377      0.2264
      4  O        -75.0950 -101.7550  115.8440 O.2   377  PHE377     -0.2867
      5  CB       -76.7550 -103.1320  113.8590 C.3   377  PHE377      0.0534
      6  CG       -78.1660 -103.6250  113.7960 C.ar  377  PHE377     -0.0203
      7  CD1      -78.9410 -103.6800  114.9370 C.ar  377  PHE377     -0.0042
      8  CD2      -78.7130 -104.0430  112.5990 C.ar  377  PHE377     -0.0042
      9  CE1      -80.2420 -104.1370  114.8860 C.ar  377  PHE377     -0.0003
     10  CE2      -80.0140 -104.5020  112.5390 C.ar  377  PHE377     -0.0003
     11  CZ       -80.7800 -104.5490  113.6850 C.ar  377  PHE377     -0.0000
     12  N        -74.3820  -98.6500  115.9800 N.3   379  VAL379     -0.1231
     13  CA       -74.5400  -97.6150  116.9980 C.3   379  VAL379      0.1692
     14  C        -74.6250  -98.2350  118.3920 C.2   379  VAL379      0.2591
     15  O        -74.3010  -97.5840  119.3940 O.2   379  VAL379     -0.2718
     16  CB       -75.7630  -96.7340  116.6530 C.3   379  VAL379      0.0266
     17  CG1      -77.0710  -97.5130  116.7670 C.3   379  VAL379      0.0020
     18  CG2      -75.7970  -95.4480  117.4840 C.3   379  VAL379      0.0020
     19  N        -75.0190  -99.5080  118.4870 N.am  380  ILE380     -0.1980
     20  CA       -74.9380 -100.2230  119.7560 C.3   380  ILE380      0.1595
     21  C        -73.6080 -100.9430  119.9240 C.2   380  ILE380      0.2287
     22  O        -73.1630 -101.1450  121.0680 O.2   380  ILE380     -0.2864
     23  CB       -76.1540 -101.1640  119.9000 C.3   380  ILE380      0.0276
     24  CG1      -76.4530 -101.9040  118.5910 C.3   380  ILE380      0.0022
     25  CG2      -77.3740 -100.3890  120.3660 C.3   380  ILE380      0.0022
     26  CD1      -75.7750 -103.2340  118.4410 C.3   380  ILE380      0.0001
     27  N        -78.2680  -99.8320  132.6690 N.3   408  PHE408     -0.1241
     28  CA       -78.7010  -99.1380  131.4650 C.3   408  PHE408      0.1605
     29  C        -77.9310  -99.5690  130.2210 C.2   408  PHE408      0.2264
     30  O        -78.3400  -99.2710  129.1030 O.2   408  PHE408     -0.2867
     31  CB       -78.5780  -97.6270  131.6600 C.3   408  PHE408      0.0534
     32  CG       -78.8090  -96.8330  130.4100 C.ar  408  PHE408     -0.0203
     33  CD1      -80.0210  -96.8950  129.7510 C.ar  408  PHE408     -0.0042
     34  CD2      -77.8170  -96.0120  129.9030 C.ar  408  PHE408     -0.0042
     35  CE1      -80.2380  -96.1620  128.6030 C.ar  408  PHE408     -0.0003
     36  CE2      -78.0270  -95.2730  128.7560 C.ar  408  PHE408     -0.0003
     37  CZ       -79.2410  -95.3490  128.1040 C.ar  408  PHE408     -0.0000
     38  N        -79.0930 -103.1660  126.2120 N.3   412  LEU412     -0.1245
     39  CA       -78.7540 -102.8210  124.8520 C.3   412  LEU412      0.1561
     40  C        -77.6350 -103.7430  124.4090 C.2   412  LEU412      0.2260
     41  O        -77.6480 -104.2440  123.2860 O.2   412  LEU412     -0.2867
     42  CB       -78.3220 -101.3630  124.7510 C.3   412  LEU412      0.0270
     43  CG       -79.4100 -100.3610  125.1320 C.3   412  LEU412      0.0019
     44  CD1      -79.1610  -99.0430  124.4170 C.3   412  LEU412      0.0001
     45  CD2      -80.7780 -100.9170  124.7690 C.3   412  LEU412      0.0001
     46  N        -78.9830 -106.9160  123.3650 N.3   415  CYS415     -0.1235
     47  CA       -79.7700 -106.8060  122.1400 C.3   415  CYS415      0.1677
     48  C        -78.9120 -106.8390  120.8700 C.2   415  CYS415      0.2270
     49  O        -79.4650 -106.9110  119.7690 O.2   415  CYS415     -0.2867
     50  CB       -80.6040 -105.5170  122.2060 C.3   415  CYS415      0.0956
     51  SG       -81.9110 -105.2770  120.9610 S.3   415  CYS415     -0.0801
     52  N        -78.5270 -109.7900  117.1990 N.3   418  MET418     -0.1245
     53  CA       -79.3780 -110.0500  116.0450 C.3   418  MET418      0.1570
     54  C        -78.8660 -109.4350  114.7450 C.2   418  MET418      0.2261
     55  O        -79.6500 -109.3050  113.7990 O.2   418  MET418     -0.2867
     56  CB       -80.7980 -109.5560  116.3250 C.3   418  MET418      0.0387
     57  CG       -80.8810 -108.0660  116.5930 C.3   418  MET418      0.0595
     58  SD       -82.5500 -107.4460  116.8850 S.3   418  MET418     -0.1393
     59  CE       -83.4970 -108.3960  115.7000 C.3   418  MET418      0.0692
     60  N        -88.5920 -104.0550  110.3270 N.3   434  ILE434     -0.1231
     61  CA       -88.6430 -103.2890  111.5700 C.3   434  ILE434      0.1692
     62  C        -87.6120 -102.1660  111.5530 C.2   434  ILE434      0.2591
     63  O        -87.9200 -101.0270  111.9180 O.2   434  ILE434     -0.2718
     64  CB       -88.5010 -104.2230  112.7950 C.3   434  ILE434      0.0266
     65  CG1      -87.2850 -105.1610  112.7170 C.3   434  ILE434      0.0019
     66  CG2      -89.7580 -105.0440  112.9860 C.3   434  ILE434      0.0020
     67  CD1      -86.0440 -104.6890  113.4730 C.3   434  ILE434      0.0001
     68  N        -86.4010 -102.4440  111.0660 N.am  435  GLN435     -0.1979
     69  CA       -85.3850 -101.4100  110.9490 C.3   435  GLN435      0.1601
     70  C        -85.7030 -100.4500  109.8130 C.2   435  GLN435      0.2287
     71  O        -85.3100  -99.2790  109.8730 O.2   435  GLN435     -0.2864
     72  CB       -84.0110 -102.0680  110.7660 C.3   435  GLN435      0.0394
     73  CG       -82.7980 -101.1510  110.9160 C.3   435  GLN435      0.0908
     74  CD       -82.4340 -100.4320  109.6320 C.2   435  GLN435      0.2608
     75  OE1      -82.3790  -99.2050  109.5900 O.2   435  GLN435     -0.2717
     76  NE2      -82.1840 -101.1980  108.5780 N.am  435  GLN435     -0.0878
     77  N        -88.8080  -98.2450  111.7050 N.3   438  ILE438     -0.1231
     78  CA       -88.5200  -97.4120  112.8800 C.3   438  ILE438      0.1692
     79  C        -88.2720  -95.9710  112.4520 C.2   438  ILE438      0.2592
     80  O        -88.8480  -95.0260  113.0070 O.2   438  ILE438     -0.2718
     81  CB       -87.3270  -97.9680  113.6860 C.3   438  ILE438      0.0266
     82  CG1      -87.7220  -99.1960  114.5030 C.3   438  ILE438      0.0019
     83  CG2      -86.7400  -96.9140  114.6270 C.3   438  ILE438      0.0020
     84  CD1      -88.7720  -98.9200  115.5420 C.3   438  ILE438      0.0001
     85  N        -87.4380  -95.7880  111.4310 N.am  439  PHE439     -0.1976
     86  CA       -87.2340  -94.4670  110.8580 C.3   439  PHE439      0.1639
     87  C        -88.4430  -93.9940  110.0640 C.2   439  PHE439      0.2290
     88  O        -88.6220  -92.7830  109.8960 O.2   439  PHE439     -0.2864
     89  CB       -85.9980  -94.4650  109.9530 C.3   439  PHE439      0.0560
     90  CG       -84.6920  -94.6320  110.6880 C.ar  439  PHE439     -0.0200
     91  CD1      -84.5960  -94.3820  112.0520 C.ar  439  PHE439     -0.0042
     92  CD2      -83.5590  -95.0560  110.0080 C.ar  439  PHE439     -0.0042
     93  CE1      -83.3930  -94.5430  112.7190 C.ar  439  PHE439     -0.0003
     94  CE2      -82.3540  -95.2200  110.6690 C.ar  439  PHE439     -0.0003
     95  CZ       -82.2720  -94.9630  112.0260 C.ar  439  PHE439     -0.0000
@<TRIPOS>BOND
     1    76    74   am
     2    75    74    2
     3    74    73    1
     4    70    71    2
     5    70    69    1
     6    88    87    2
     7    89    90    1
     8    89    86    1
     9    92    94   ar
    10    92    90   ar
    11    87    86    1
    12    60    61    1
    13    94    95   ar
    14    90    91   ar
    15    72    73    1
    16    72    69    1
    17    86    85    1
    18    69    68    1
    19    68    62   am
    20    85    79   am
    21    62    61    1
    22    62    63    2
    23    61    64    1
    24    77    78    1
    25    95    93   ar
    26    91    93   ar
    27    79    78    1
    28    79    80    2
    29    10     8   ar
    30    10    11   ar
    31     8     6   ar
    32    65    64    1
    33    65    67    1
    34     1     2    1
    35    64    66    1
    36    78    81    1
    37    11     9   ar
    38    81    82    1
    39    81    83    1
    40     6     5    1
    41     6     7   ar
    42    55    54    2
    43     5     2    1
    44     2     3    1
    45    82    84    1
    46     3     4    2
    47    54    53    1
    48     9     7   ar
    49    59    58    1
    50    12    13    1
    51    53    56    1
    52    53    52    1
    53    56    57    1
    54    57    58    1
    55    16    17    1
    56    16    13    1
    57    16    18    1
    58    13    14    1
    59    14    19   am
    60    14    15    2
    61    26    24    1
    62    19    20    1
    63    24    23    1
    64    20    23    1
    65    20    21    1
    66    49    48    2
    67    23    25    1
    68    21    22    2
    69    48    47    1
    70    51    50    1
    71    47    50    1
    72    47    46    1
    73    41    40    2
    74    40    39    1
    75    44    43    1
    76    42    39    1
    77    42    43    1
    78    45    43    1
    79    39    38    1
    80    37    35   ar
    81    37    36   ar
    82    35    33   ar
    83    36    34   ar
    84    30    29    2
    85    33    32   ar
    86    34    32   ar
    87    29    28    1
    88    32    31    1
    89    28    31    1
    90    28    27    1
