@<TRIPOS>MOLECULE
tmp/6b5yD00.pdb
 81 77 0 0 0
SMALL
GASTEIGER

@<TRIPOS>ATOM
      1  N         16.9060  -43.0720   21.0510 N.3    75  ILE75      -0.1245
      2  CA        16.7940  -41.7950   21.7560 C.3    75  ILE75       0.1561
      3  C         15.3940  -41.2080   21.6080 C.2    75  ILE75       0.2260
      4  O         14.9650  -40.8360   20.5050 O.2    75  ILE75      -0.2867
      5  CB        17.8600  -40.8130   21.2830 C.3    75  ILE75       0.0252
      6  CG1       19.2420  -41.4730   21.2880 C.3    75  ILE75       0.0019
      7  CG2       17.8470  -39.5820   22.1870 C.3    75  ILE75       0.0019
      8  CD1       19.6070  -42.1610   22.5950 C.3    75  ILE75       0.0001
      9  N         13.4980  -38.3930   23.7350 N.3    77  PRO77      -0.2116
     10  CA        13.4740  -37.4960   24.9030 C.3    77  PRO77       0.1372
     11  C         12.0870  -37.2620   25.4480 C.2    77  PRO77       0.2244
     12  O         11.9490  -36.9330   26.6330 O.2    77  PRO77      -0.2868
     13  CB        14.1110  -36.1960   24.3840 C.3    77  PRO77       0.0268
     14  CG        14.6010  -36.4990   22.9950 C.3    77  PRO77       0.0207
     15  CD        13.8080  -37.6680   22.4960 C.3    77  PRO77       0.0892
     16  N         11.3240  -32.8540   18.6900 N.3    99  TYR99      -0.1227
     17  CA        12.4160  -33.4610   19.4540 C.3    99  TYR99       0.1736
     18  C         13.0080  -34.6760   18.7510 C.2    99  TYR99       0.2596
     19  O         13.8020  -35.4200   19.3620 O.2    99  TYR99      -0.2718
     20  CB        11.9780  -33.8330   20.8840 C.3    99  TYR99       0.0548
     21  CG        11.6280  -32.6540   21.7720 C.ar   99  TYR99      -0.0200
     22  CD1       12.6140  -31.9810   22.4670 C.ar   99  TYR99      -0.0009
     23  CD2       10.3150  -32.2200   21.9200 C.ar   99  TYR99      -0.0009
     24  CE1       12.3200  -30.9090   23.2640 C.ar   99  TYR99       0.0417
     25  CE2       10.0070  -31.1390   22.7240 C.ar   99  TYR99       0.0417
     26  CZ        11.0210  -30.4880   23.3910 C.ar   99  TYR99       0.1957
     27  OH        10.7480  -29.4070   24.1990 O.3    99  TYR99      -0.2866
     28  N         12.6310  -34.9110   17.4930 N.am  100  SER100     -0.1952
     29  CA        13.2160  -35.9900   16.6980 C.3   100  SER100      0.1924
     30  C         13.0960  -37.3260   17.4370 C.2   100  SER100      0.2314
     31  O         14.0070  -38.1570   17.4140 O.2   100  SER100     -0.2863
     32  CB        14.6690  -35.6600   16.3520 C.3   100  SER100      0.2116
     33  OG        15.0580  -36.2170   15.1150 O.3   100  SER100     -0.2180
     34  N         16.3230  -47.6070   15.6880 N.3   141  PRO141     -0.2116
     35  CA        17.3780  -46.7310   15.1940 C.3   141  PRO141      0.1372
     36  C         18.1460  -47.2700   14.0040 C.2   141  PRO141      0.2244
     37  O         19.0460  -46.5850   13.5400 O.2   141  PRO141     -0.2868
     38  CB        18.3070  -46.6500   16.3980 C.3   141  PRO141      0.0268
     39  CG        18.2490  -48.0290   16.9470 C.3   141  PRO141      0.0207
     40  CD        16.8500  -48.5340   16.7060 C.3   141  PRO141      0.0892
     41  N         13.1900  -27.7130   17.7040 N.3   189  THR189     -0.1203
     42  CA        14.2330  -27.2810   18.6180 C.3   189  THR189      0.1994
     43  C         15.6220  -27.7490   18.1900 C.2   189  THR189      0.2618
     44  O         16.6110  -27.3940   18.8400 O.2   189  THR189     -0.2717
     45  CB        13.9320  -27.8130   20.0260 C.3   189  THR189      0.1784
     46  OG1       14.4110  -29.1600   20.1360 O.3   189  THR189     -0.2211
     47  CG2       12.4280  -27.8120   20.2920 C.3   189  THR189      0.0376
     48  N         15.7200  -28.5010   17.0930 N.am  190  THR190     -0.1952
     49  CA        16.9290  -29.2160   16.7270 C.3   190  THR190      0.1897
     50  C         17.6670  -28.6040   15.5410 C.2   190  THR190      0.2313
     51  O         18.7010  -29.1330   15.1390 O.2   190  THR190     -0.2863
     52  CB        16.5850  -30.6740   16.4200 C.3   190  THR190      0.1794
     53  OG1       15.7700  -30.7410   15.2420 O.3   190  THR190     -0.2208
     54  CG2       15.8250  -31.2870   17.5740 C.3   190  THR190      0.0378
     55  N         20.3120  -36.6010   11.7840 N.3   211  THR211     -0.1218
     56  CA        21.6950  -36.8170   12.1860 C.3   211  THR211      0.1862
     57  C         21.9060  -38.3140   12.3170 C.2   211  THR211      0.2287
     58  O         21.0050  -39.0350   12.7490 O.2   211  THR211     -0.2866
     59  CB        22.0160  -36.0730   13.5080 C.3   211  THR211      0.1770
     60  OG1       21.5000  -34.7280   13.4470 O.3   211  THR211     -0.2211
     61  CG2       23.5160  -36.0280   13.8000 C.3   211  THR211      0.0375
     62  N         25.1580  -41.7900   11.9490 N.3   213  ASP213     -0.1239
     63  CA        26.5530  -42.1990   11.9490 C.3   213  ASP213      0.1674
     64  C         27.1850  -41.8510   10.6100 C.2   213  ASP213      0.2266
     65  O         26.5300  -41.3340    9.7070 O.2   213  ASP213     -0.2867
     66  CB        26.6510  -43.6770   12.2850 C.3   213  ASP213      0.1410
     67  CG        25.8740  -44.0040   13.5150 C.2   213  ASP213      0.3668
     68  OD1       26.2450  -43.4850   14.5980 O.co2 213  ASP213     -0.2456
     69  OD2       24.8640  -44.7250   13.3900 O.co2 213  ASP213     -0.2456
     70  N         32.1670  -45.1500   10.5700 N.3   244  TYR244     -0.1241
     71  CA        30.9480  -45.1260   11.3670 C.3   244  TYR244      0.1605
     72  C         30.9480  -44.0090   12.4090 C.2   244  TYR244      0.2264
     73  O         29.8890  -43.4650   12.7230 O.2   244  TYR244     -0.2867
     74  CB        30.7580  -46.5040   12.0040 C.3   244  TYR244      0.0534
     75  CG        29.5910  -46.6290   12.9540 C.ar  244  TYR244     -0.0201
     76  CD1       28.2900  -46.8700   12.4910 C.ar  244  TYR244     -0.0009
     77  CD2       29.7900  -46.5290   14.3300 C.ar  244  TYR244     -0.0009
     78  CE1       27.2200  -46.9920   13.3890 C.ar  244  TYR244      0.0417
     79  CE2       28.7340  -46.6330   15.2330 C.ar  244  TYR244      0.0417
     80  CZ        27.4560  -46.8700   14.7620 C.ar  244  TYR244      0.1957
     81  OH        26.4290  -46.9900   15.6740 O.3   244  TYR244     -0.2866
@<TRIPOS>BOND
     1    65    64    2
     2    70    71    1
     3    64    63    1
     4    71    74    1
     5    71    72    1
     6    55    56    1
     7    63    62    1
     8    63    66    1
     9    74    75    1
    10    56    57    1
    11    56    59    1
    12    66    67    1
    13    57    58    2
    14    72    73    2
    15    76    75   ar
    16    76    78   ar
    17    75    77   ar
    18    78    80   ar
    19    69    67   ar
    20    60    59    1
    21    59    61    1
    22    67    68   ar
    23    37    36    2
    24    36    35    1
    25    77    79   ar
    26    80    79   ar
    27    80    81    1
    28    33    32    1
    29    51    50    2
    30    35    34    1
    31    35    38    1
    32    53    52    1
    33    50    49    1
    34    34    40    1
    35    32    29    1
    36    38    39    1
    37    52    49    1
    38    52    54    1
    39    29    30    1
    40    29    28    1
    41    40    39    1
    42    49    48    1
    43    48    43   am
    44    31    30    2
    45    28    18   am
    46    41    42    1
    47    43    42    1
    48    43    44    2
    49    42    45    1
    50    16    17    1
    51    18    19    2
    52    18    17    1
    53    17    20    1
    54    45    46    1
    55    45    47    1
    56     4     3    2
    57    20    21    1
    58     1     2    1
    59     5     6    1
    60     5     2    1
    61     5     7    1
    62     6     8    1
    63     3     2    1
    64    21    23   ar
    65    21    22   ar
    66    23    25   ar
    67    22    24   ar
    68    15    14    1
    69    15     9    1
    70    25    26   ar
    71    14    13    1
    72    24    26   ar
    73    26    27    1
    74     9    10    1
    75    13    10    1
    76    10    11    1
    77    11    12    2
