@<TRIPOS>MOLECULE
tmp/6b5yD01.pdb
 199 190 0 0 0
SMALL
GASTEIGER

@<TRIPOS>ATOM
      1  N         18.1100  -40.2210    7.6840 N.3    41  CYS41      -0.1221
      2  CA        18.0360  -40.0810    9.1320 C.3    41  CYS41       0.1808
      3  C         16.6790  -39.4840    9.4960 C.2    41  CYS41       0.2601
      4  O         15.6650  -39.8110    8.8690 O.2    41  CYS41      -0.2717
      5  CB        19.2050  -39.2610    9.6750 C.3    41  CYS41       0.0970
      6  SG        20.8020  -39.8670    9.0600 S.3    41  CYS41      -0.0800
      7  N         16.6320  -38.6200   10.4930 N.am   42  SER42      -0.1952
      8  CA        15.3410  -38.2020   11.0100 C.3    42  SER42       0.1924
      9  C         14.6260  -37.2110   10.1180 C.2    42  SER42       0.2314
     10  O         13.5710  -36.7190   10.5210 O.2    42  SER42      -0.2863
     11  CB        15.4960  -37.6110   12.4120 C.3    42  SER42       0.2116
     12  OG        15.7270  -38.6570   13.3210 O.3    42  SER42      -0.2180
     13  N         10.9690  -37.9130    9.4350 N.3    45  LYS45      -0.1245
     14  CA         9.9090  -37.7150   10.4110 C.3    45  LYS45       0.1561
     15  C          8.9200  -36.6410    9.9790 C.2    45  LYS45       0.2260
     16  O          7.7470  -36.6960   10.3780 O.2    45  LYS45      -0.2867
     17  CB        10.5200  -37.4110   11.7860 C.3    45  LYS45       0.0271
     18  CG        11.0560  -38.6640   12.4560 C.3    45  LYS45       0.0035
     19  CD        12.1560  -38.3940   13.4580 C.3    45  LYS45       0.0206
     20  CE        12.5550  -39.6920   14.0720 C.3    45  LYS45       0.1093
     21  NZ        13.8540  -39.6650   14.7410 N.3    45  LYS45      -0.1314
     22  N         15.4900  -46.4330   21.1300 N.3    74  SER74      -0.1202
     23  CA        16.3500  -45.3920   20.5810 C.3    74  SER74       0.2020
     24  C         16.1420  -44.1130   21.3930 C.2    74  SER74       0.2618
     25  O         15.2850  -44.0530   22.2820 O.2    74  SER74      -0.2717
     26  CB        16.0510  -45.1590   19.1010 C.3    74  SER74       0.2103
     27  OG        14.6710  -44.9160   18.8910 O.3    74  SER74      -0.2182
     28  N         16.9060  -43.0720   21.0510 N.am   75  ILE75      -0.1979
     29  CA        16.7940  -41.7950   21.7560 C.3    75  ILE75       0.1595
     30  C         15.3940  -41.2080   21.6080 C.2    75  ILE75       0.2287
     31  O         14.9650  -40.8360   20.5050 O.2    75  ILE75      -0.2864
     32  CB        17.8600  -40.8130   21.2830 C.3    75  ILE75       0.0276
     33  CG1       19.2420  -41.4730   21.2880 C.3    75  ILE75       0.0022
     34  CG2       17.8470  -39.5820   22.1870 C.3    75  ILE75       0.0022
     35  CD1       19.6070  -42.1610   22.5950 C.3    75  ILE75       0.0001
     36  N         11.3240  -32.8540   18.6900 N.3    99  TYR99      -0.1227
     37  CA        12.4160  -33.4610   19.4540 C.3    99  TYR99       0.1736
     38  C         13.0080  -34.6760   18.7510 C.2    99  TYR99       0.2596
     39  O         13.8020  -35.4200   19.3620 O.2    99  TYR99      -0.2718
     40  CB        11.9780  -33.8330   20.8840 C.3    99  TYR99       0.0548
     41  CG        11.6280  -32.6540   21.7720 C.ar   99  TYR99      -0.0200
     42  CD1       12.6140  -31.9810   22.4670 C.ar   99  TYR99      -0.0009
     43  CD2       10.3150  -32.2200   21.9200 C.ar   99  TYR99      -0.0009
     44  CE1       12.3200  -30.9090   23.2640 C.ar   99  TYR99       0.0417
     45  CE2       10.0070  -31.1390   22.7240 C.ar   99  TYR99       0.0417
     46  CZ        11.0210  -30.4880   23.3910 C.ar   99  TYR99       0.1957
     47  OH        10.7480  -29.4070   24.1990 O.3    99  TYR99      -0.2866
     48  N         12.6310  -34.9110   17.4930 N.am  100  SER100     -0.1952
     49  CA        13.2160  -35.9900   16.6980 C.3   100  SER100      0.1924
     50  C         13.0960  -37.3260   17.4370 C.2   100  SER100      0.2314
     51  O         14.0070  -38.1570   17.4140 O.2   100  SER100     -0.2863
     52  CB        14.6690  -35.6600   16.3520 C.3   100  SER100      0.2116
     53  OG        15.0580  -36.2170   15.1150 O.3   100  SER100     -0.2180
     54  N         13.4600  -46.9140   13.6550 N.3   140  GLU140     -0.1231
     55  CA        14.5270  -46.3930   14.4960 C.3   140  GLU140      0.1684
     56  C         15.0090  -47.4990   15.4380 C.2   140  GLU140      0.2434
     57  O         14.2020  -48.2970   15.9190 O.2   140  GLU140     -0.2733
     58  CB        14.0500  -45.1670   15.2940 C.3   140  GLU140      0.0402
     59  CG        13.7040  -43.9440   14.4310 C.3   140  GLU140      0.1161
     60  CD        14.9030  -43.0450   14.1850 C.2   140  GLU140      0.3649
     61  OE1       14.7560  -41.9680   13.5470 O.co2 140  GLU140     -0.2457
     62  OE2       16.0170  -43.4430   14.5990 O.co2 140  GLU140     -0.2457
     63  N         16.3230  -47.6070   15.6880 N.am  141  PRO141     -0.2729
     64  CA        17.3780  -46.7310   15.1940 C.3   141  PRO141      0.1401
     65  C         18.1460  -47.2700   14.0040 C.2   141  PRO141      0.2269
     66  O         19.0460  -46.5850   13.5400 O.2   141  PRO141     -0.2865
     67  CB        18.3070  -46.6500   16.3980 C.3   141  PRO141      0.0296
     68  CG        18.2490  -48.0290   16.9470 C.3   141  PRO141      0.0237
     69  CD        16.8500  -48.5340   16.7060 C.3   141  PRO141      0.0939
     70  N         19.4020  -45.2030   10.7160 N.3   144  ASN144     -0.1225
     71  CA        20.5090  -44.2550   10.6710 C.3   144  ASN144      0.1785
     72  C         21.8850  -44.8880   10.4790 C.2   144  ASN144      0.2597
     73  O         22.8450  -44.1450   10.2360 O.2   144  ASN144     -0.2718
     74  CB        20.5590  -43.4130   11.9360 C.3   144  ASN144      0.1169
     75  CG        19.2350  -42.8180   12.2940 C.2   144  ASN144      0.2627
     76  OD1       18.7690  -41.8710   11.6450 O.2   144  ASN144     -0.2716
     77  ND2       18.6070  -43.3590   13.3350 N.am  144  ASN144     -0.0877
     78  N         22.0200  -46.2180   10.6010 N.am  145  ARG145     -0.1979
     79  CA        23.3270  -46.8720   10.6480 C.3   145  ARG145      0.1597
     80  C         23.6520  -47.6720    9.3970 C.2   145  ARG145      0.2287
     81  O         24.5650  -48.5020    9.4360 O.2   145  ARG145     -0.2864
     82  CB        23.4440  -47.8600   11.7940 C.3   145  ARG145      0.0334
     83  CG        22.8600  -47.5970   13.1360 C.3   145  ARG145      0.0492
     84  CD        22.9590  -48.9360   13.9480 C.3   145  ARG145      0.2205
     85  NE        22.1380  -50.0670   13.4290 N.pl3 145  ARG145     -0.0865
     86  CZ        22.4260  -50.9140   12.4230 C.cat 145  ARG145      0.5346
     87  NH1       23.5610  -50.8670   11.7320 N.pl3 145  ARG145      0.1354
     88  NH2       21.5630  -51.8700   12.1260 N.pl3 145  ARG145      0.1354
     89  N         13.1900  -27.7130   17.7040 N.3   189  THR189     -0.1203
     90  CA        14.2330  -27.2810   18.6180 C.3   189  THR189      0.1994
     91  C         15.6220  -27.7490   18.1900 C.2   189  THR189      0.2618
     92  O         16.6110  -27.3940   18.8400 O.2   189  THR189     -0.2717
     93  CB        13.9320  -27.8130   20.0260 C.3   189  THR189      0.1784
     94  OG1       14.4110  -29.1600   20.1360 O.3   189  THR189     -0.2211
     95  CG2       12.4280  -27.8120   20.2920 C.3   189  THR189      0.0376
     96  N         15.7200  -28.5010   17.0930 N.am  190  THR190     -0.1952
     97  CA        16.9290  -29.2160   16.7270 C.3   190  THR190      0.1897
     98  C         17.6670  -28.6040   15.5410 C.2   190  THR190      0.2313
     99  O         18.7010  -29.1330   15.1390 O.2   190  THR190     -0.2863
    100  CB        16.5850  -30.6740   16.4200 C.3   190  THR190      0.1794
    101  OG1       15.7700  -30.7410   15.2420 O.3   190  THR190     -0.2208
    102  CG2       15.8250  -31.2870   17.5740 C.3   190  THR190      0.0378
    103  N         18.7530  -25.2970   15.1110 N.3   192  ALA192     -0.1231
    104  CA        19.1950  -23.9410   15.4150 C.3   192  ALA192      0.1694
    105  C         20.5630  -23.6320   14.8300 C.2   192  ALA192      0.2592
    106  O         20.8820  -22.4580   14.6390 O.2   192  ALA192     -0.2718
    107  CB        19.1990  -23.7160   16.9230 C.3   192  ALA192      0.0304
    108  N         21.4070  -24.6480   14.6250 N.am  193  LYS193     -0.1966
    109  CA        22.7630  -24.4830   14.1130 C.3   193  LYS193      0.1728
    110  C         22.9150  -24.8970   12.6450 C.2   193  LYS193      0.2616
    111  O         24.0500  -24.9680   12.1550 O.2   193  LYS193     -0.2715
    112  CB        23.7420  -25.2970   14.9610 C.3   193  LYS193      0.0311
    113  CG        23.6680  -24.9980   16.4550 C.3   193  LYS193      0.0038
    114  CD        24.3550  -23.7010   16.8300 C.3   193  LYS193      0.0206
    115  CE        25.2160  -23.8820   18.0820 C.3   193  LYS193      0.1093
    116  NZ        26.5750  -24.4050   17.7420 N.3   193  LYS193     -0.1314
    117  N         21.8100  -25.1590   11.9250 N.am  194  ARG194     -0.1977
    118  CA        21.9040  -25.6500   10.5490 C.3   194  ARG194      0.1597
    119  C         21.4140  -24.6140    9.5550 C.2   194  ARG194      0.2287
    120  O         22.0420  -23.5590    9.4330 O.2   194  ARG194     -0.2864
    121  CB        21.1590  -26.9810   10.4140 C.3   194  ARG194      0.0334
    122  CG        21.7420  -27.9690   11.3940 C.3   194  ARG194      0.0492
    123  CD        21.4060  -29.4000   11.1920 C.3   194  ARG194      0.2205
    124  NE        22.0280  -30.1590   12.2740 N.pl3 194  ARG194     -0.0865
    125  CZ        21.9680  -31.4770   12.4060 C.cat 194  ARG194      0.5346
    126  NH1       22.5560  -32.0720   13.4380 N.pl3 194  ARG194      0.1354
    127  NH2       21.3460  -32.2010   11.4950 N.pl3 194  ARG194      0.1354
    128  N         13.3110  -29.5900    9.5810 N.3   208  LYS208     -0.1231
    129  CA        13.4330  -30.8770   10.2450 C.3   208  LYS208      0.1693
    130  C         14.8440  -31.3820    9.9660 C.2   208  LYS208      0.2593
    131  O         15.2880  -31.4260    8.8100 O.2   208  LYS208     -0.2718
    132  CB        12.3910  -31.8910    9.7570 C.3   208  LYS208      0.0285
    133  CG        12.6080  -33.3030   10.3180 C.3   208  LYS208      0.0035
    134  CD        11.9430  -33.4650   11.6830 C.3   208  LYS208      0.0206
    135  CE        12.8300  -34.2000   12.6710 C.3   208  LYS208      0.1093
    136  NZ        13.4580  -33.1800   13.6030 N.3   208  LYS208     -0.1314
    137  N         15.5560  -31.7230   11.0230 N.am  209  THR209     -0.1939
    138  CA        16.9330  -32.1550   10.9090 C.3   209  THR209      0.2028
    139  C         16.9860  -33.6620   10.8900 C.2   209  THR209      0.2643
    140  O         16.0250  -34.3520   11.2310 O.2   209  THR209     -0.2714
    141  CB        17.7850  -31.6550   12.0720 C.3   209  THR209      0.1808
    142  OG1       17.1650  -32.0470   13.3050 O.3   209  THR209     -0.2208
    143  CG2       17.9460  -30.1450   12.0050 C.3   209  THR209      0.0379
    144  N         18.1490  -34.1560   10.4920 N.am  210  GLY210     -0.1939
    145  CA        18.5040  -35.5530   10.5700 C.3   210  GLY210      0.2014
    146  C         19.9680  -35.6590   10.9170 C.2   210  GLY210      0.2640
    147  O         20.7850  -34.8900   10.4090 O.2   210  GLY210     -0.2714
    148  N         20.3120  -36.6010   11.7840 N.am  211  THR211     -0.1936
    149  CA        21.6950  -36.8170   12.1860 C.3   211  THR211      0.2028
    150  C         21.9060  -38.3140   12.3170 C.2   211  THR211      0.2643
    151  O         21.0050  -39.0350   12.7490 O.2   211  THR211     -0.2714
    152  CB        22.0160  -36.0730   13.5080 C.3   211  THR211      0.1808
    153  OG1       21.5000  -34.7280   13.4470 O.3   211  THR211     -0.2208
    154  CG2       23.5160  -36.0280   13.8000 C.3   211  THR211      0.0379
    155  N         23.0600  -38.7850   11.8780 N.am  212  GLY212     -0.1939
    156  CA        23.3410  -40.1990   11.9680 C.3   212  GLY212      0.2014
    157  C         24.8140  -40.5140   12.0800 C.2   212  GLY212      0.2638
    158  O         25.6360  -39.6310   12.3320 O.2   212  GLY212     -0.2714
    159  N         25.1580  -41.7900   11.9490 N.am  213  ASP213     -0.1971
    160  CA        26.5530  -42.1990   11.9490 C.3   213  ASP213      0.1709
    161  C         27.1850  -41.8510   10.6100 C.2   213  ASP213      0.2293
    162  O         26.5300  -41.3340    9.7070 O.2   213  ASP213     -0.2864
    163  CB        26.6510  -43.6770   12.2850 C.3   213  ASP213      0.1436
    164  CG        25.8740  -44.0040   13.5150 C.2   213  ASP213      0.3671
    165  OD1       26.2450  -43.4850   14.5980 O.co2 213  ASP213     -0.2456
    166  OD2       24.8640  -44.7250   13.3900 O.co2 213  ASP213     -0.2456
    167  N         32.1670  -45.1500   10.5700 N.3   244  TYR244     -0.1241
    168  CA        30.9480  -45.1260   11.3670 C.3   244  TYR244      0.1605
    169  C         30.9480  -44.0090   12.4090 C.2   244  TYR244      0.2264
    170  O         29.8890  -43.4650   12.7230 O.2   244  TYR244     -0.2867
    171  CB        30.7580  -46.5040   12.0040 C.3   244  TYR244      0.0534
    172  CG        29.5910  -46.6290   12.9540 C.ar  244  TYR244     -0.0201
    173  CD1       28.2900  -46.8700   12.4910 C.ar  244  TYR244     -0.0009
    174  CD2       29.7900  -46.5290   14.3300 C.ar  244  TYR244     -0.0009
    175  CE1       27.2200  -46.9920   13.3890 C.ar  244  TYR244      0.0417
    176  CE2       28.7340  -46.6330   15.2330 C.ar  244  TYR244      0.0417
    177  CZ        27.4560  -46.8700   14.7620 C.ar  244  TYR244      0.1957
    178  OH        26.4290  -46.9900   15.6740 O.3   244  TYR244     -0.2866
    179  N         32.4090  -40.9470   12.3700 N.3   246  ALA246     -0.1245
    180  CA        32.6610  -39.5790   11.9420 C.3   246  ALA246      0.1562
    181  C         31.6610  -38.6170   12.5730 C.2   246  ALA246      0.2260
    182  O         30.4620  -38.9000   12.6320 O.2   246  ALA246     -0.2867
    183  CB        32.5980  -39.4940   10.4200 C.3   246  ALA246      0.0290
    184  N         29.2480  -35.5850   12.6340 N.3   248  PRO248     -0.2116
    185  CA        28.5860  -34.7120   11.6630 C.3   248  PRO248      0.1372
    186  C         29.0290  -33.2860   11.9010 C.2   248  PRO248      0.2244
    187  O         29.3340  -32.8960   13.0300 O.2   248  PRO248     -0.2868
    188  CB        27.0920  -34.8960   11.9560 C.3   248  PRO248      0.0268
    189  CG        27.0020  -35.5860   13.2620 C.3   248  PRO248      0.0207
    190  CD        28.3170  -36.2250   13.5770 C.3   248  PRO248      0.0892
    191  N         27.6870  -29.6680   11.7320 N.3   250  GLU250     -0.1245
    192  CA        26.5320  -28.7920   11.5580 C.3   250  GLU250      0.1567
    193  C         26.9290  -27.4880   10.8890 C.2   250  GLU250      0.2260
    194  O         26.1380  -26.9140   10.1320 O.2   250  GLU250     -0.2867
    195  CB        25.8720  -28.4920   12.8950 C.3   250  GLU250      0.0388
    196  CG        25.2000  -29.6650   13.5170 C.3   250  GLU250      0.1160
    197  CD        24.3200  -29.2620   14.6590 C.2   250  GLU250      0.3649
    198  OE1       24.8350  -28.6810   15.6320 O.co2 250  GLU250     -0.2457
    199  OE2       23.1090  -29.5480   14.5930 O.co2 250  GLU250     -0.2457
@<TRIPOS>BOND
     1     1     2    1
     2   131   130    2
     3     4     3    2
     4     6     5    1
     5     2     3    1
     6     2     5    1
     7    80    81    2
     8    80    79    1
     9   120   119    2
    10    13    14    1
    11     3     7   am
    12   119   118    1
    13   128   129    1
    14   162   161    2
    15   132   129    1
    16   132   133    1
    17   130   129    1
    18   130   137   am
    19    15    16    2
    20    15    14    1
    21     9    10    2
    22     9     8    1
    23   194   193    2
    24    73    72    2
    25   133   134    1
    26   147   146    2
    27    14    17    1
    28   121   118    1
    29   121   122    1
    30   183   180    1
    31    72    78   am
    32    72    71    1
    33   144   145    1
    34   144   139   am
    35     7     8    1
    36   118   117    1
    37   167   168    1
    38   145   146    1
    39    78    79    1
    40   161   160    1
    41    79    82    1
    42    71    70    1
    43    71    74    1
    44   193   192    1
    45   139   138    1
    46   139   140    2
    47   138   137    1
    48   138   141    1
    49   146   148   am
    50     8    11    1
    51   123   122    1
    52   123   124    1
    53   168   171    1
    54   168   169    1
    55   127   125    1
    56   192   191    1
    57   192   195    1
    58    76    75    2
    59   185   186    1
    60   185   188    1
    61   185   184    1
    62   134   135    1
    63    87    86    1
    64   148   149    1
    65    17    18    1
    66    82    83    1
    67   155   156    1
    68   155   150   am
    69   186   187    2
    70   117   110   am
    71    74    75    1
    72   180   179    1
    73   180   181    1
    74   160   159    1
    75   160   163    1
    76   159   157   am
    77   188   189    1
    78   156   157    1
    79   171   172    1
    80   143   141    1
    81   141   142    1
    82   157   158    2
    83    88    86    1
    84   111   110    2
    85   149   150    1
    86   149   152    1
    87   124   125    2
    88   163   164    1
    89    75    77   am
    90   150   151    2
    91   125   126    1
    92   169   170    2
    93    11    12    1
    94    86    85    2
    95    18    19    1
    96   173   172   ar
    97   173   175   ar
    98   181   182    2
    99   184   190    1
   100   110   109    1
   101   135   136    1
   102   195   196    1
   103   172   174   ar
   104    83    84    1
   105   189   190    1
   106   175   177   ar
   107   166   164   ar
   108    85    84    1
   109   153   152    1
   110    19    20    1
   111   152   154    1
   112   164   165   ar
   113   196   197    1
   114    66    65    2
   115    61    60   ar
   116    54    55    1
   117    65    64    1
   118    20    21    1
   119   109   108    1
   120   109   112    1
   121    60    59    1
   122    60    62   ar
   123   174   176   ar
   124    59    58    1
   125    55    58    1
   126    55    56    1
   127   199   197   ar
   128   108   105   am
   129   106   105    2
   130   197   198   ar
   131   177   176   ar
   132   177   178    1
   133   105   104    1
   134   112   113    1
   135   103   104    1
   136    53    52    1
   137    99    98    2
   138    64    63    1
   139    64    67    1
   140   101   100    1
   141   104   107    1
   142    56    63   am
   143    56    57    2
   144    98    97    1
   145    63    69    1
   146    52    49    1
   147    67    68    1
   148   100    97    1
   149   100   102    1
   150   113   114    1
   151    49    50    1
   152    49    48    1
   153    69    68    1
   154    97    96    1
   155   114   115    1
   156    96    91   am
   157    51    50    2
   158    48    38   am
   159    89    90    1
   160   116   115    1
   161    91    90    1
   162    91    92    2
   163    90    93    1
   164    36    37    1
   165    38    39    2
   166    38    37    1
   167    27    26    1
   168    26    23    1
   169    37    40    1
   170    93    94    1
   171    93    95    1
   172    31    30    2
   173    23    22    1
   174    23    24    1
   175    40    41    1
   176    28    24   am
   177    28    29    1
   178    32    33    1
   179    32    29    1
   180    32    34    1
   181    33    35    1
   182    24    25    2
   183    30    29    1
   184    41    43   ar
   185    41    42   ar
   186    43    45   ar
   187    42    44   ar
   188    45    46   ar
   189    44    46   ar
   190    46    47    1
