@<TRIPOS>MOLECULE
tmp/6b5zB03.pdb
 134 129 0 0 0
SMALL
GASTEIGER

@<TRIPOS>ATOM
      1  N          4.0780  -52.0060   -3.4870 N.3    67  GLU67      -0.1245
      2  CA         3.9540  -50.9980   -4.5370 C.3    67  GLU67       0.1567
      3  C          3.4080  -51.5030   -5.8690 C.2    67  GLU67       0.2260
      4  O          2.5160  -50.8810   -6.4590 O.2    67  GLU67      -0.2867
      5  CB         5.2900  -50.3130   -4.7930 C.3    67  GLU67       0.0388
      6  CG         5.2200  -49.2910   -5.9180 C.3    67  GLU67       0.1160
      7  CD         6.4670  -48.4360   -5.9690 C.2    67  GLU67       0.3649
      8  OE1        7.1510  -48.4020   -4.9450 O.co2  67  GLU67      -0.2457
      9  OE2        6.7710  -47.7980   -6.9990 O.co2  67  GLU67      -0.2457
     10  N          8.1200  -52.2630    0.3940 N.3    82  ASP82      -0.1239
     11  CA         8.6400  -51.6250   -0.7900 C.3    82  ASP82       0.1674
     12  C          9.7800  -52.4870   -1.3190 C.2    82  ASP82       0.2266
     13  O         10.8840  -52.4740   -0.7680 O.2    82  ASP82      -0.2867
     14  CB         9.1110  -50.2040   -0.5180 C.3    82  ASP82       0.1410
     15  CG         9.3720  -49.4620   -1.7990 C.2    82  ASP82       0.3668
     16  OD1        9.3260  -50.1690   -2.8190 O.co2  82  ASP82      -0.2456
     17  OD2        9.6130  -48.2290   -1.8120 O.co2  82  ASP82      -0.2456
     18  N         11.6890  -52.3990   -3.8130 N.3    84  LEU84      -0.1231
     19  CA        12.8620  -51.6720   -4.2730 C.3    84  LEU84       0.1693
     20  C         12.5990  -50.1830   -4.1140 C.2    84  LEU84       0.2592
     21  O         11.9810  -49.5940   -4.9610 O.2    84  LEU84      -0.2718
     22  CB        13.1290  -51.9810   -5.7500 C.3    84  LEU84       0.0284
     23  CG        14.3020  -51.2530   -6.4250 C.3    84  LEU84       0.0019
     24  CD1       15.5920  -51.5070   -5.6700 C.3    84  LEU84       0.0001
     25  CD2       14.4630  -51.7030   -7.8860 C.3    84  LEU84       0.0001
     26  N         13.0950  -49.5680   -3.0520 N.am   85  ASP85      -0.1960
     27  CA        12.8760  -48.1390   -2.8180 C.3    85  ASP85       0.1840
     28  C         14.0850  -47.3790   -3.4020 C.2    85  ASP85       0.2622
     29  O         15.2120  -47.5750   -2.9540 O.2    85  ASP85      -0.2715
     30  CB        12.7410  -47.9100   -1.2990 C.3    85  ASP85       0.1450
     31  CG        12.3690  -46.4780   -0.9320 C.2    85  ASP85       0.3671
     32  OD1       11.1610  -46.1630   -0.9100 O.co2  85  ASP85      -0.2456
     33  OD2       13.2740  -45.6670   -0.6220 O.co2  85  ASP85      -0.2456
     34  N         13.8650  -46.5350   -4.4070 N.am   86  GLY86      -0.1954
     35  CA        14.9640  -45.8760   -5.0970 C.3    86  GLY86       0.1869
     36  C         15.2410  -46.4980   -6.4650 C.2    86  GLY86       0.2309
     37  O         16.4000  -46.6540   -6.8800 O.2    86  GLY86      -0.2863
     38  N         12.7630  -33.0310    0.9000 N.3   155  TYR155     -0.1227
     39  CA        11.9770  -33.0670   -0.3280 C.3   155  TYR155      0.1736
     40  C         10.8150  -32.1050   -0.1480 C.2   155  TYR155      0.2595
     41  O          9.9080  -32.4040    0.6430 O.2   155  TYR155     -0.2718
     42  CB        11.3370  -34.4570   -0.4970 C.3   155  TYR155      0.0548
     43  CG        12.2710  -35.5980   -0.8260 C.ar  155  TYR155     -0.0200
     44  CD1       12.3600  -36.0810   -2.1250 C.ar  155  TYR155     -0.0009
     45  CD2       13.0360  -36.2170    0.1670 C.ar  155  TYR155     -0.0009
     46  CE1       13.1880  -37.1340   -2.4390 C.ar  155  TYR155      0.0417
     47  CE2       13.8700  -37.2680   -0.1360 C.ar  155  TYR155      0.0417
     48  CZ        13.9430  -37.7180   -1.4500 C.ar  155  TYR155      0.1957
     49  OH        14.7730  -38.7590   -1.7850 O.3   155  TYR155     -0.2866
     50  N         10.8000  -30.9600   -0.8290 N.am  156  TYR156     -0.1976
     51  CA        11.8940  -30.4030   -1.6120 C.3   156  TYR156      0.1639
     52  C         12.0820  -28.9820   -1.0830 C.2   156  TYR156      0.2290
     53  O         11.1100  -28.3450   -0.6650 O.2   156  TYR156     -0.2864
     54  CB        11.4690  -30.2800   -3.0690 C.3   156  TYR156      0.0560
     55  CG        11.6730  -31.4980   -3.9400 C.ar  156  TYR156     -0.0198
     56  CD1       12.8720  -32.2090   -3.9210 C.ar  156  TYR156     -0.0009
     57  CD2       10.6720  -31.9130   -4.8180 C.ar  156  TYR156     -0.0009
     58  CE1       13.0630  -33.3190   -4.7520 C.ar  156  TYR156      0.0417
     59  CE2       10.8460  -33.0160   -5.6520 C.ar  156  TYR156      0.0417
     60  CZ        12.0440  -33.7130   -5.6200 C.ar  156  TYR156      0.1957
     61  OH        12.2190  -34.8060   -6.4530 O.3   156  TYR156     -0.2866
     62  N         17.1960  -39.8380   -3.1690 N.3   170  GLY170     -0.1210
     63  CA        16.3270  -40.6240   -4.0390 C.3   170  GLY170      0.1956
     64  C         15.9100  -41.9830   -3.4740 C.2   170  GLY170      0.2613
     65  O         15.5900  -42.9100   -4.2290 O.2   170  GLY170     -0.2717
     66  N         15.8990  -42.1090   -2.1470 N.am  171  SER171     -0.1938
     67  CA        15.4510  -43.3510   -1.5130 C.3   171  SER171      0.2055
     68  C         14.9420  -43.0800   -0.1080 C.2   171  SER171      0.2642
     69  O         15.7030  -43.2190    0.8530 O.2   171  SER171     -0.2714
     70  CB        16.5830  -44.3870   -1.4670 C.3   171  SER171      0.2130
     71  OG        16.1180  -45.6170   -0.9110 O.3   171  SER171     -0.2179
     72  N         13.6660  -42.7030    0.0100 N.am  172  ALA172     -0.1977
     73  CA        13.1070  -42.2410    1.2850 C.3   172  ALA172      0.1597
     74  C         13.3270  -43.2170    2.4510 C.2   172  ALA172      0.2287
     75  O         13.6770  -42.8060    3.5540 O.2   172  ALA172     -0.2864
     76  CB        11.6220  -41.9130    1.1360 C.3   172  ALA172      0.0319
     77  N          6.4760  -31.9830    0.3710 N.3   191  ARG191     -0.1245
     78  CA         5.8700  -31.7920   -0.9350 C.3   191  ARG191      0.1563
     79  C          4.3530  -31.6820   -0.7730 C.2   191  ARG191      0.2260
     80  O          3.7190  -32.5740   -0.1960 O.2   191  ARG191     -0.2867
     81  CB         6.2470  -32.9440   -1.8740 C.3   191  ARG191      0.0307
     82  CG         7.7340  -33.0050   -2.2160 C.3   191  ARG191      0.0489
     83  CD         8.0490  -34.2230   -3.0760 C.3   191  ARG191      0.2205
     84  NE         8.0500  -35.4620   -2.2860 N.pl3 191  ARG191     -0.0865
     85  CZ         8.2290  -36.6750   -2.7990 C.cat 191  ARG191      0.5346
     86  NH1        8.4220  -36.8300   -4.1050 N.pl3 191  ARG191      0.1354
     87  NH2        8.2210  -37.7320   -2.0090 N.pl3 191  ARG191      0.1354
     88  N          3.3820  -37.0480   -1.5940 N.3   195  MET195     -0.1230
     89  CA         3.7480  -38.1470   -2.4990 C.3   195  MET195      0.1702
     90  C          4.1280  -39.4790   -1.8340 C.2   195  MET195      0.2592
     91  O          3.9050  -40.5430   -2.4250 O.2   195  MET195     -0.2718
     92  CB         4.9190  -37.7180   -3.3940 C.3   195  MET195      0.0401
     93  CG         4.8140  -36.2960   -3.9090 C.3   195  MET195      0.0596
     94  SD         3.3730  -36.1010   -4.9640 S.3   195  MET195     -0.1393
     95  CE         3.7670  -37.2850   -6.2530 C.3   195  MET195      0.0692
     96  N          4.7310  -39.4300   -0.6420 N.am  196  LEU196     -0.1966
     97  CA         5.1720  -40.6650    0.0250 C.3   196  LEU196      0.1728
     98  C          4.0030  -41.6110    0.2690 C.2   196  LEU196      0.2616
     99  O          2.9420  -41.1760    0.7170 O.2   196  LEU196     -0.2715
    100  CB         5.8520  -40.3740    1.3610 C.3   196  LEU196      0.0311
    101  CG         7.2740  -39.8170    1.3230 C.3   196  LEU196      0.0022
    102  CD1        7.8360  -39.7080    2.7380 C.3   196  LEU196      0.0001
    103  CD2        8.1580  -40.6830    0.4490 C.3   196  LEU196      0.0001
    104  N          4.1970  -42.8920   -0.0420 N.am  197  ARG197     -0.1977
    105  CA         3.2020  -43.9280    0.2490 C.3   197  ARG197      0.1597
    106  C          3.5850  -44.6360    1.5390 C.2   197  ARG197      0.2287
    107  O          4.6780  -44.4040    2.0720 O.2   197  ARG197     -0.2864
    108  CB         3.1370  -44.9600   -0.8780 C.3   197  ARG197      0.0334
    109  CG         3.1200  -44.3580   -2.2770 C.3   197  ARG197      0.0492
    110  CD         1.8830  -43.5030   -2.4920 C.3   197  ARG197      0.2205
    111  NE         1.9510  -42.7690   -3.7580 N.pl3 197  ARG197     -0.0865
    112  CZ         1.3400  -43.1320   -4.8860 C.cat 197  ARG197      0.5346
    113  NH1        0.5760  -44.2250   -4.9170 N.pl3 197  ARG197      0.1354
    114  NH2        1.4770  -42.3860   -5.9810 N.pl3 197  ARG197      0.1354
    115  N          4.3950  -47.7570    2.1450 N.3   199  TYR199     -0.1227
    116  CA         5.5120  -48.6950    2.0270 C.3   199  TYR199      0.1736
    117  C          6.8770  -48.0010    1.8500 C.2   199  TYR199      0.2595
    118  O          7.9200  -48.5880    2.1710 O.2   199  TYR199     -0.2718
    119  CB         5.2480  -49.7210    0.9190 C.3   199  TYR199      0.0548
    120  CG         4.5710  -49.1230   -0.2810 C.ar  199  TYR199     -0.0200
    121  CD1        3.2070  -49.3100   -0.5080 C.ar  199  TYR199     -0.0009
    122  CD2        5.2890  -48.3510   -1.1840 C.ar  199  TYR199     -0.0009
    123  CE1        2.5790  -48.7440   -1.6270 C.ar  199  TYR199      0.0417
    124  CE2        4.6790  -47.7910   -2.2920 C.ar  199  TYR199      0.0417
    125  CZ         3.3290  -47.9910   -2.5060 C.ar  199  TYR199      0.1957
    126  OH         2.7400  -47.4090   -3.6010 O.3   199  TYR199     -0.2866
    127  N          6.8730  -46.7570    1.3690 N.am  200  ASP200     -0.1974
    128  CA         8.1090  -45.9540    1.2970 C.3   200  ASP200      0.1709
    129  C          8.5930  -45.5400    2.6780 C.2   200  ASP200      0.2293
    130  O          9.8020  -45.4530    2.9400 O.2   200  ASP200     -0.2864
    131  CB         7.8600  -44.6370    0.5560 C.3   200  ASP200      0.1436
    132  CG         7.3070  -44.8380   -0.8140 C.2   200  ASP200      0.3671
    133  OD1        7.7470  -45.7970   -1.4900 O.co2 200  ASP200     -0.2456
    134  OD2        6.4270  -44.0390   -1.2130 O.co2 200  ASP200     -0.2456
@<TRIPOS>BOND
     1    25    23    1
     2     9     7   ar
     3    37    36    2
     4    36    35    1
     5     4     3    2
     6    61    60    1
     7    23    22    1
     8    23    24    1
     9    95    94    1
    10   114   112    1
    11     7     6    1
    12     7     8   ar
    13     6     5    1
    14     3     2    1
    15    22    19    1
    16    59    60   ar
    17    59    57   ar
    18    60    58   ar
    19    35    34    1
    20    94    93    1
    21    21    20    2
    22   113   112    1
    23   112   111    2
    24    57    55   ar
    25     5     2    1
    26    58    56   ar
    27     2     1    1
    28    34    28   am
    29    19    20    1
    30    19    18    1
    31    65    64    2
    32    20    26   am
    33    86    85    1
    34    63    64    1
    35    63    62    1
    36    55    56   ar
    37    55    54    1
    38    93    92    1
    39   111   110    1
    40   126   125    1
    41    64    66   am
    42    28    29    2
    43    28    27    1
    44    92    89    1
    45    83    84    1
    46    83    82    1
    47    54    51    1
    48    26    27    1
    49    16    15   ar
    50    27    30    1
    51    85    84    2
    52    85    87    1
    53   125   124   ar
    54   125   123   ar
    55    89    90    1
    56    89    88    1
    57   110   109    1
    58    46    44   ar
    59    46    48   ar
    60    91    90    2
    61   124   122   ar
    62   109   108    1
    63    82    81    1
    64    66    67    1
    65    44    43   ar
    66    81    78    1
    67    90    96   am
    68    17    15   ar
    69    15    14    1
    70    49    48    1
    71   123   121   ar
    72    51    52    1
    73    51    50    1
    74    67    70    1
    75    67    68    1
    76   133   132   ar
    77    70    71    1
    78    48    47   ar
    79    12    11    1
    80    12    13    2
    81    30    31    1
    82   134   132   ar
    83   122   120   ar
    84    52    53    2
    85    78    79    1
    86    78    77    1
    87    31    32   ar
    88    31    33   ar
    89   108   105    1
    90    50    40   am
    91    43    42    1
    92    43    45   ar
    93   132   131    1
    94    11    14    1
    95    11    10    1
    96    79    80    2
    97    96    97    1
    98   121   120   ar
    99    42    39    1
   100    39    40    1
   101    39    38    1
   102   120   119    1
   103    40    41    2
   104    47    45   ar
   105    68    72   am
   106    68    69    2
   107   104   105    1
   108   104    98   am
   109    72    73    1
   110    97    98    1
   111    97   100    1
   112   105   106    1
   113    98    99    2
   114   103   101    1
   115   131   128    1
   116   119   116    1
   117    76    73    1
   118    73    74    1
   119   128   127    1
   120   128   129    1
   121   101   100    1
   122   101   102    1
   123   127   117   am
   124   106   107    2
   125   117   116    1
   126   117   118    2
   127   116   115    1
   128    74    75    2
   129   129   130    2
