@<TRIPOS>MOLECULE
tmp/6b61B04.pdb
 97 93 0 0 0
SMALL
GASTEIGER

@<TRIPOS>ATOM
      1  N          8.2560  -41.1340    4.0200 N.3    85  ASP85      -0.1225
      2  CA         9.3970  -42.0000    3.8050 C.3    85  ASP85       0.1805
      3  C         10.6500  -41.2710    4.2810 C.2    85  ASP85       0.2598
      4  O         10.9310  -40.1490    3.8340 O.2    85  ASP85      -0.2718
      5  CB         9.5030  -42.3720    2.3250 C.3    85  ASP85       0.1424
      6  CG        10.5640  -43.4180    2.0670 C.2    85  ASP85       0.3668
      7  OD1       11.5470  -43.1080    1.3390 O.co2  85  ASP85      -0.2456
      8  OD2       10.4140  -44.5480    2.6090 O.co2  85  ASP85      -0.2456
      9  N         11.3880  -41.8940    5.1980 N.am   86  GLY86      -0.1957
     10  CA        12.5530  -41.2640    5.7960 C.3    86  GLY86       0.1869
     11  C         12.1680  -40.6660    7.1340 C.2    86  GLY86       0.2309
     12  O         12.7720  -39.6830    7.5940 O.2    86  GLY86      -0.2863
     13  N         22.3720  -49.8090   -0.2810 N.3   155  TYR155     -0.1227
     14  CA        21.9910  -50.4440    0.9790 C.3   155  TYR155      0.1736
     15  C         22.2790  -51.9340    0.8590 C.2   155  TYR155      0.2595
     16  O         21.6260  -52.5990    0.0540 O.2   155  TYR155     -0.2718
     17  CB        20.4750  -50.2980    1.2160 C.3   155  TYR155      0.0548
     18  CG        19.9640  -48.9010    1.4980 C.ar  155  TYR155     -0.0200
     19  CD1       19.5700  -48.5310    2.7820 C.ar  155  TYR155     -0.0009
     20  CD2       19.8470  -47.9610    0.4830 C.ar  155  TYR155     -0.0009
     21  CE1       19.0860  -47.2600    3.0510 C.ar  155  TYR155      0.0417
     22  CE2       19.3650  -46.6860    0.7400 C.ar  155  TYR155      0.0417
     23  CZ        18.9910  -46.3410    2.0250 C.ar  155  TYR155      0.1957
     24  OH        18.5130  -45.0720    2.2800 O.3   155  TYR155     -0.2866
     25  N         23.2640  -52.4720    1.5810 N.am  156  TYR156     -0.1976
     26  CA        24.3090  -51.7360    2.2840 C.3   156  TYR156      0.1639
     27  C         25.6390  -52.2570    1.7240 C.2   156  TYR156      0.2290
     28  O         25.7370  -53.4320    1.3220 O.2   156  TYR156     -0.2864
     29  CB        24.2710  -52.0710    3.7760 C.3   156  TYR156      0.0560
     30  CG        23.2990  -51.2850    4.6200 C.ar  156  TYR156     -0.0198
     31  CD1       23.2330  -49.8980    4.5470 C.ar  156  TYR156     -0.0009
     32  CD2       22.4640  -51.9350    5.5220 C.ar  156  TYR156     -0.0009
     33  CE1       22.3420  -49.1760    5.3550 C.ar  156  TYR156      0.0417
     34  CE2       21.5720  -51.2320    6.3260 C.ar  156  TYR156      0.0417
     35  CZ        21.5150  -49.8540    6.2410 C.ar  156  TYR156      0.1957
     36  OH        20.6290  -49.1620    7.0420 O.3   156  TYR156     -0.2866
     37  N         18.6650  -42.5340    3.6570 N.3   170  GLY170     -0.1210
     38  CA        17.5720  -42.9790    4.5190 C.3   170  GLY170      0.1956
     39  C         16.1590  -42.7300    4.0020 C.2   170  GLY170      0.2613
     40  O         15.1920  -42.7700    4.7670 O.2   170  GLY170     -0.2717
     41  N         16.0360  -42.4710    2.7030 N.am  171  SER171     -0.1938
     42  CA        14.7310  -42.3400    2.0670 C.3   171  SER171      0.2055
     43  C         14.7580  -42.8790    0.6310 C.2   171  SER171      0.2642
     44  O         14.9360  -42.1100   -0.3270 O.2   171  SER171     -0.2714
     45  CB        14.2560  -40.8790    2.0870 C.3   171  SER171      0.2130
     46  OG        12.9760  -40.7650    1.4780 O.3   171  SER171     -0.2179
     47  N         14.5910  -44.1960    0.4860 N.am  172  ALA172     -0.1977
     48  CA        14.6480  -44.8520   -0.8310 C.3   172  ALA172      0.1597
     49  C         13.7790  -44.1650   -1.8930 C.2   172  ALA172      0.2287
     50  O         14.2280  -43.9550   -3.0240 O.2   172  ALA172     -0.2864
     51  CB        14.2740  -46.3210   -0.7140 C.3   172  ALA172      0.0319
     52  N         20.0640  -55.6500    0.3150 N.3   191  ARG191     -0.1245
     53  CA        19.9830  -56.2210    1.6530 C.3   191  ARG191      0.1563
     54  C         19.3690  -57.6150    1.6050 C.2   191  ARG191      0.2260
     55  O         18.2800  -57.7970    1.0500 O.2   191  ARG191     -0.2867
     56  CB        19.1950  -55.2960    2.5850 C.3   191  ARG191      0.0307
     57  CG        19.9780  -54.0570    2.9830 C.3   191  ARG191      0.0489
     58  CD        19.1690  -53.1600    3.8770 C.3   191  ARG191      0.2205
     59  NE        18.0790  -52.5080    3.1560 N.pl3 191  ARG191     -0.0865
     60  CZ        17.1130  -51.8060    3.7400 C.cat 191  ARG191      0.5346
     61  NH1       17.1030  -51.6680    5.0610 N.pl3 191  ARG191      0.1354
     62  NH2       16.1600  -51.2510    3.0040 N.pl3 191  ARG191      0.1354
     63  N         14.3170  -55.9300    2.5610 N.3   195  MET195     -0.1230
     64  CA        13.5580  -55.0920    3.4970 C.3   195  MET195      0.1702
     65  C         12.5670  -54.1240    2.8480 C.2   195  MET195      0.2592
     66  O         11.5490  -53.7900    3.4530 O.2   195  MET195     -0.2718
     67  CB        14.5230  -54.2870    4.3810 C.3   195  MET195      0.0401
     68  CG        15.7230  -55.0880    4.8280 C.3   195  MET195      0.0596
     69  SD        15.2100  -56.4390    5.8920 S.3   195  MET195     -0.1393
     70  CE        14.7800  -55.4880    7.3560 C.3   195  MET195      0.0692
     71  N         12.8680  -53.6660    1.6340 N.am  196  LEU196     -0.1966
     72  CA        12.0530  -52.6400    0.9770 C.3   196  LEU196      0.1728
     73  C         10.6140  -53.1000    0.7430 C.2   196  LEU196      0.2616
     74  O         10.3720  -54.2450    0.3460 O.2   196  LEU196     -0.2715
     75  CB        12.6780  -52.2150   -0.3560 C.3   196  LEU196      0.0311
     76  CG        13.7670  -51.1440   -0.2780 C.3   196  LEU196      0.0022
     77  CD1       14.1590  -50.6890   -1.6730 C.3   196  LEU196      0.0001
     78  CD2       13.2850  -49.9710    0.5480 C.3   196  LEU196      0.0001
     79  N          9.6570  -52.2150    0.9980 N.am  197  ARG197     -0.1977
     80  CA         8.2580  -52.5570    0.7940 C.3   197  ARG197      0.1597
     81  C          7.7140  -51.8250   -0.4270 C.2   197  ARG197      0.2287
     82  O          8.3480  -50.8860   -0.9150 O.2   197  ARG197     -0.2864
     83  CB         7.4590  -52.2720    2.0670 C.3   197  ARG197      0.0334
     84  CG         7.8940  -53.1770    3.2260 C.3   197  ARG197      0.0492
     85  CD         7.7530  -52.4780    4.5650 C.3   197  ARG197      0.2205
     86  NE         8.5190  -51.2290    4.6150 N.pl3 197  ARG197     -0.0865
     87  CZ         8.4160  -50.3160    5.5830 C.cat 197  ARG197      0.5346
     88  NH1        7.5720  -50.5190    6.5860 N.pl3 197  ARG197      0.1354
     89  NH2        9.1490  -49.2010    5.5460 N.pl3 197  ARG197      0.1354
     90  N          7.5840  -48.0690   -0.4580 N.3   200  ASP200     -0.1239
     91  CA         8.8960  -47.4260   -0.3900 C.3   200  ASP200      0.1674
     92  C          9.4450  -47.1410   -1.7900 C.2   200  ASP200      0.2266
     93  O         10.0170  -46.0770   -2.0290 O.2   200  ASP200     -0.2867
     94  CB         9.9140  -48.3110    0.3360 C.3   200  ASP200      0.1410
     95  CG         9.6660  -48.4170    1.8210 C.2   200  ASP200      0.3668
     96  OD1        9.5030  -47.3670    2.5110 O.co2 200  ASP200     -0.2456
     97  OD2        9.6690  -49.5730    2.3010 O.co2 200  ASP200     -0.2456
@<TRIPOS>BOND
     1    50    49    2
     2    93    92    2
     3    49    48    1
     4    92    91    1
     5    77    76    1
     6    82    81    2
     7    48    51    1
     8    48    47    1
     9    90    91    1
    10    81    80    1
    11    91    94    1
    12    75    76    1
    13    75    72    1
    14    44    43    2
    15    13    14    1
    16    76    78    1
    17    16    15    2
    18    52    53    1
    19    94    95    1
    20    74    73    2
    21    20    22   ar
    22    20    18   ar
    23    47    43   am
    24    43    42    1
    25    22    23   ar
    26    73    72    1
    27    73    79   am
    28    80    79    1
    29    80    83    1
    30    15    14    1
    31    15    25   am
    32    72    71    1
    33    14    17    1
    34    55    54    2
    35    17    18    1
    36    28    27    2
    37     7     6   ar
    38    46    45    1
    39    18    19   ar
    40    25    26    1
    41    54    53    1
    42    71    65   am
    43    53    56    1
    44    27    26    1
    45    95    97   ar
    46    95    96   ar
    47    23    24    1
    48    23    21   ar
    49     6     5    1
    50     6     8   ar
    51    42    45    1
    52    42    41    1
    53    83    84    1
    54    26    29    1
    55     5     2    1
    56    63    64    1
    57    56    57    1
    58    41    39   am
    59    19    21   ar
    60    65    66    2
    61    65    64    1
    62    57    58    1
    63    62    60    1
    64    59    60    2
    65    59    58    1
    66    84    85    1
    67    64    67    1
    68    37    38    1
    69    60    61    1
    70    29    30    1
    71     2     1    1
    72     2     3    1
    73     4     3    2
    74    39    38    1
    75    39    40    2
    76     3     9   am
    77    67    68    1
    78    31    30   ar
    79    31    33   ar
    80    85    86    1
    81    86    87    2
    82    30    32   ar
    83    68    69    1
    84     9    10    1
    85    33    35   ar
    86    32    34   ar
    87    89    87    1
    88    87    88    1
    89    10    11    1
    90    69    70    1
    91    35    34   ar
    92    35    36    1
    93    11    12    2
