@<TRIPOS>MOLECULE
tmp/6b63B01.pdb
 109 105 0 0 0
SMALL
GASTEIGER

@<TRIPOS>ATOM
      1  N        -39.2370   90.0870   -3.1040 N.3    85  ASP85      -0.1225
      2  CA       -40.5320   90.6930   -2.8330 C.3    85  ASP85       0.1805
      3  C        -40.4110   92.1810   -3.0910 C.2    85  ASP85       0.2598
      4  O        -39.4160   92.8040   -2.7040 O.2    85  ASP85      -0.2718
      5  CB       -40.9460   90.4510   -1.3790 C.3    85  ASP85       0.1424
      6  CG       -42.3490   90.9380   -1.0870 C.2    85  ASP85       0.3668
      7  OD1      -43.2950   90.4460   -1.7470 O.co2  85  ASP85      -0.2456
      8  OD2      -42.4960   91.8310   -0.2200 O.co2  85  ASP85      -0.2456
      9  N        -41.4300   92.7510   -3.7240 N.am   86  GLY86      -0.1942
     10  CA       -41.3360   94.0960   -4.2690 C.3    86  GLY86       0.2014
     11  C        -40.6930   94.1030   -5.6590 C.2    86  GLY86       0.2640
     12  O        -40.0610   95.0850   -6.0600 O.2    86  GLY86      -0.2714
     13  N        -40.8540   93.0020   -6.3900 N.am   87  THR87      -0.1936
     14  CA       -40.2200   92.8310   -7.6900 C.3    87  THR87       0.2028
     15  C        -40.4930   94.0320   -8.6060 C.2    87  THR87       0.2642
     16  O        -39.6010   94.5100   -9.3080 O.2    87  THR87      -0.2714
     17  CB       -40.7280   91.5670   -8.4080 C.3    87  THR87       0.1808
     18  OG1      -40.6160   90.4140   -7.5570 O.3    87  THR87      -0.2208
     19  CG2      -39.9280   91.3450   -9.6490 C.3    87  THR87       0.0379
     20  N        -41.7260   94.5280   -8.5850 N.am   88  PHE88      -0.1973
     21  CA       -42.0900   95.6930   -9.3870 C.3    88  PHE88       0.1639
     22  C        -41.2590   96.9270   -9.0410 C.2    88  PHE88       0.2290
     23  O        -40.8290   97.6460   -9.9390 O.2    88  PHE88      -0.2864
     24  CB       -43.5750   96.0000   -9.2400 C.3    88  PHE88       0.0560
     25  CG       -44.0570   97.1280  -10.1020 C.ar   88  PHE88      -0.0200
     26  CD1      -44.5510   96.8830  -11.3750 C.ar   88  PHE88      -0.0042
     27  CD2      -44.0360   98.4320   -9.6460 C.ar   88  PHE88      -0.0042
     28  CE1      -45.0130   97.9130  -12.1710 C.ar   88  PHE88      -0.0003
     29  CE2      -44.4920   99.4710  -10.4520 C.ar   88  PHE88      -0.0003
     30  CZ       -44.9800   99.2070  -11.7130 C.ar   88  PHE88      -0.0000
     31  N        -53.4620   97.7290    2.1520 N.3   155  TYR155     -0.1227
     32  CA       -53.7900   97.1680    0.8450 C.3   155  TYR155      0.1736
     33  C        -55.2050   96.6290    0.9450 C.2   155  TYR155      0.2595
     34  O        -55.4300   95.6830    1.6960 O.2   155  TYR155     -0.2718
     35  CB       -52.9090   95.9530    0.5590 C.3   155  TYR155      0.0548
     36  CG       -51.4550   96.2100    0.2480 C.ar  155  TYR155     -0.0200
     37  CD1      -50.9640   96.0600   -1.0490 C.ar  155  TYR155     -0.0009
     38  CD2      -50.5570   96.5580    1.2470 C.ar  155  TYR155     -0.0009
     39  CE1      -49.6240   96.2750   -1.3410 C.ar  155  TYR155      0.0417
     40  CE2      -49.2080   96.7820    0.9620 C.ar  155  TYR155      0.0417
     41  CZ       -48.7520   96.6360   -0.3330 C.ar  155  TYR155      0.1957
     42  OH       -47.4280   96.8550   -0.6110 O.3   155  TYR155     -0.2866
     43  N        -56.1770   97.2190    0.2560 N.am  156  TYR156     -0.1976
     44  CA       -56.0880   98.5210   -0.3780 C.3   156  TYR156      0.1639
     45  C        -57.2280   99.2940    0.2660 C.2   156  TYR156      0.2290
     46  O        -58.2370   98.6880    0.6420 O.2   156  TYR156     -0.2864
     47  CB       -56.4300   98.3870   -1.8530 C.3   156  TYR156      0.0560
     48  CG       -55.3150   98.0090   -2.7850 C.ar  156  TYR156     -0.0198
     49  CD1      -54.1260   98.7270   -2.8110 C.ar  156  TYR156     -0.0009
     50  CD2      -55.4660   96.9580   -3.6790 C.ar  156  TYR156     -0.0009
     51  CE1      -53.1060   98.3920   -3.7010 C.ar  156  TYR156      0.0417
     52  CE2      -54.4560   96.6150   -4.5670 C.ar  156  TYR156      0.0417
     53  CZ       -53.2740   97.3320   -4.5780 C.ar  156  TYR156      0.1957
     54  OH       -52.2560   96.9900   -5.4590 O.3   156  TYR156     -0.2866
     55  N        -45.4590   98.4520   -1.8020 N.3   170  GLY170     -0.1225
     56  CA       -45.3000   97.4030   -2.7820 C.3   170  GLY170      0.1811
     57  C        -44.3870   96.2640   -2.3780 C.2   170  GLY170      0.2280
     58  O        -44.0380   95.4460   -3.2210 O.2   170  GLY170     -0.2866
     59  N        -44.7160   93.6890    0.7330 N.3   172  ALA172     -0.1245
     60  CA       -45.3790   93.2720    1.9540 C.3   172  ALA172      0.1562
     61  C        -44.3720   92.7840    2.9760 C.2   172  ALA172      0.2260
     62  O        -44.5070   93.0730    4.1590 O.2   172  ALA172     -0.2867
     63  CB       -46.3930   92.2120    1.6680 C.3   172  ALA172      0.0290
     64  N        -57.5630   92.9670    1.2930 N.3   191  ARG191     -0.1245
     65  CA       -58.0260   92.7120   -0.0690 C.3   191  ARG191      0.1563
     66  C        -58.8910   91.4650   -0.0740 C.2   191  ARG191      0.2260
     67  O        -58.4720   90.4020    0.4030 O.2   191  ARG191     -0.2867
     68  CB       -56.8530   92.5450   -1.0360 C.3   191  ARG191      0.0307
     69  CG       -56.2100   93.8400   -1.4410 C.3   191  ARG191      0.0489
     70  CD       -55.0700   93.5950   -2.3870 C.3   191  ARG191      0.2205
     71  NE       -54.0080   92.8630   -1.7210 N.pl3 191  ARG191     -0.0865
     72  CZ       -52.8450   92.5630   -2.2790 C.cat 191  ARG191      0.5346
     73  NH1      -52.5950   92.9330   -3.5280 N.pl3 191  ARG191      0.1354
     74  NH2      -51.9290   91.8950   -1.5900 N.pl3 191  ARG191      0.1354
     75  N        -54.8360   87.9150   -1.4530 N.3   195  MET195     -0.1230
     76  CA       -53.7890   87.9920   -2.4660 C.3   195  MET195      0.1702
     77  C        -52.4010   87.5580   -1.9860 C.2   195  MET195      0.2592
     78  O        -51.6390   86.9560   -2.7500 O.2   195  MET195     -0.2718
     79  CB       -53.7260   89.4130   -3.0320 C.3   195  MET195      0.0401
     80  CG       -55.0510   89.9080   -3.6000 C.3   195  MET195      0.0596
     81  SD       -55.6200   88.9270   -5.0050 S.3   195  MET195     -0.1393
     82  CE       -54.1130   88.8490   -6.0000 C.3   195  MET195      0.0692
     83  N        -52.0800   87.8690   -0.7290 N.am  196  LEU196     -0.1966
     84  CA       -50.7720   87.5560   -0.1470 C.3   196  LEU196      0.1728
     85  C        -50.4870   86.0650   -0.0830 C.2   196  LEU196      0.2616
     86  O        -51.3560   85.2700    0.2830 O.2   196  LEU196     -0.2715
     87  CB       -50.6610   88.1300    1.2590 C.3   196  LEU196      0.0311
     88  CG       -50.3340   89.6070    1.4240 C.3   196  LEU196      0.0022
     89  CD1      -50.2670   89.9680    2.9060 C.3   196  LEU196      0.0001
     90  CD2      -49.0260   89.9290    0.7330 C.3   196  LEU196      0.0001
     91  N        -49.2570   85.6900   -0.4180 N.am  197  ARG197     -0.1977
     92  CA       -48.8730   84.2840   -0.4360 C.3   197  ARG197      0.1597
     93  C        -47.9680   83.9870    0.7580 C.2   197  ARG197      0.2287
     94  O        -47.4050   84.9090    1.3510 O.2   197  ARG197     -0.2864
     95  CB       -48.2270   83.9360   -1.7900 C.3   197  ARG197      0.0334
     96  CG       -49.2340   83.9830   -2.9670 C.3   197  ARG197      0.0492
     97  CD       -48.5950   84.4440   -4.2680 C.3   197  ARG197      0.2205
     98  NE       -47.8250   85.6720   -4.0620 N.pl3 197  ARG197     -0.0865
     99  CZ       -47.0210   86.2330   -4.9690 C.cat 197  ARG197      0.5346
    100  NH1      -46.8740   85.6690   -6.1650 N.pl3 197  ARG197      0.1354
    101  NH2      -46.3540   87.3530   -4.6720 N.pl3 197  ARG197      0.1354
    102  N        -44.6540   85.6500    0.9790 N.3   200  ASP200     -0.1239
    103  CA       -44.7300   87.1070    1.0790 C.3   200  ASP200      0.1674
    104  C        -44.7460   87.5670    2.5370 C.2   200  ASP200      0.2266
    105  O        -44.2000   88.6130    2.8620 O.2   200  ASP200     -0.2867
    106  CB       -46.0050   87.6700    0.4330 C.3   200  ASP200      0.1410
    107  CG       -46.0320   87.5540   -1.0790 C.2   200  ASP200      0.3668
    108  OD1      -44.9880   87.7410   -1.7460 O.co2 200  ASP200     -0.2456
    109  OD2      -47.1370   87.2870   -1.5980 O.co2 200  ASP200     -0.2456
@<TRIPOS>BOND
     1    28    30   ar
     2    28    26   ar
     3    30    29   ar
     4    26    25   ar
     5    29    27   ar
     6    25    27   ar
     7    25    24    1
     8    23    22    2
     9    19    17    1
    10    21    24    1
    11    21    22    1
    12    21    20    1
    13    16    15    2
    14    15    20   am
    15    15    14    1
    16    17    14    1
    17    17    18    1
    18    14    13    1
    19    13    11   am
    20   100    99    1
    21    12    11    2
    22    82    81    1
    23    11    10    1
    24    54    53    1
    25    81    80    1
    26    99   101    1
    27    99    98    2
    28    53    52   ar
    29    53    51   ar
    30    52    50   ar
    31    10     9    1
    32    97    98    1
    33    97    96    1
    34     9     3   am
    35    51    49   ar
    36    50    48   ar
    37    80    79    1
    38    73    72    1
    39    58    57    2
    40     1     2    1
    41     3     2    1
    42     3     4    2
    43    79    76    1
    44    96    95    1
    45     2     5    1
    46    49    48   ar
    47    48    47    1
    48    56    57    1
    49    56    55    1
    50    78    77    2
    51    76    77    1
    52    76    75    1
    53    70    71    1
    54    70    69    1
    55    72    71    2
    56    72    74    1
    57    77    83   am
    58    47    44    1
    59    95    92    1
    60     7     6   ar
    61   108   107   ar
    62   109   107   ar
    63    69    68    1
    64     5     6    1
    65    39    37   ar
    66    39    41   ar
    67     6     8   ar
    68   107   106    1
    69    37    36   ar
    70    68    65    1
    71    83    84    1
    72    42    41    1
    73    92    91    1
    74    92    93    1
    75    91    85   am
    76    44    43    1
    77    44    45    1
    78    41    40   ar
    79    84    85    1
    80    84    87    1
    81    85    86    2
    82    66    65    1
    83    66    67    2
    84    65    64    1
    85    36    35    1
    86    36    38   ar
    87    43    33   am
    88    45    46    2
    89   106   103    1
    90    35    32    1
    91    59    60    1
    92    90    88    1
    93    93    94    2
    94    32    33    1
    95    32    31    1
    96    33    34    2
    97    40    38   ar
    98   102   103    1
    99   103   104    1
   100    87    88    1
   101    88    89    1
   102    63    60    1
   103    60    61    1
   104   104   105    2
   105    61    62    2
