@<TRIPOS>MOLECULE
tmp/6b67B00.pdb
 160 151 0 0 0
SMALL
GASTEIGER

@<TRIPOS>ATOM
      1  N         21.4860   71.1280   33.2550 N.3     1  GLY1       -0.1210
      2  CA        22.3410   70.1950   32.5540 C.3     1  GLY1        0.1956
      3  C         22.1360   68.7790   33.0490 C.2     1  GLY1        0.2612
      4  O         23.0870   68.1050   33.4260 O.2     1  GLY1       -0.2717
      5  N         20.8910   68.3300   33.0860 N.am    2  ALA2       -0.1965
      6  CA        20.6130   66.9730   33.5270 C.3     2  ALA2        0.1728
      7  C         20.8160   65.9600   32.4020 C.2     2  ALA2        0.2616
      8  O         21.4100   64.8980   32.6200 O.2     2  ALA2       -0.2715
      9  CB        19.1840   66.8580   34.0500 C.3     2  ALA2        0.0334
     10  N         20.3640   66.3120   31.2000 N.am    3  PHE3       -0.1974
     11  CA        20.4190   65.4060   30.0590 C.3     3  PHE3        0.1639
     12  C         21.4120   65.7410   28.9600 C.2     3  PHE3        0.2290
     13  O         21.8350   66.8880   28.8020 O.2     3  PHE3       -0.2864
     14  CB        19.0200   65.2740   29.4410 C.3     3  PHE3        0.0560
     15  CG        17.9420   64.9750   30.4440 C.ar    3  PHE3       -0.0200
     16  CD1       17.8440   63.7070   31.0310 C.ar    3  PHE3       -0.0042
     17  CD2       17.0540   65.9730   30.8450 C.ar    3  PHE3       -0.0042
     18  CE1       16.8910   63.4370   31.9980 C.ar    3  PHE3       -0.0003
     19  CE2       16.0880   65.7120   31.8210 C.ar    3  PHE3       -0.0003
     20  CZ        16.0100   64.4340   32.4000 C.ar    3  PHE3       -0.0000
     21  N         21.5460   60.7070   30.9360 N.3    32  ARG32      -0.1245
     22  CA        22.0920   61.6260   31.9400 C.3    32  ARG32       0.1563
     23  C         23.5000   62.0830   31.5970 C.2    32  ARG32       0.2260
     24  O         24.2600   61.3500   30.9730 O.2    32  ARG32      -0.2867
     25  CB        22.0790   60.9990   33.3520 C.3    32  ARG32       0.0307
     26  CG        20.6910   60.6480   33.8830 C.3    32  ARG32       0.0489
     27  CD        19.7810   61.8780   33.9640 C.3    32  ARG32       0.2205
     28  NE        20.2950   62.8350   34.9350 N.pl3  32  ARG32      -0.0865
     29  CZ        20.0690   62.7580   36.2450 C.cat  32  ARG32       0.5346
     30  NH1       19.3190   61.7760   36.7330 N.pl3  32  ARG32       0.1354
     31  NH2       20.6590   63.6120   37.0710 N.pl3  32  ARG32       0.1354
     32  N         26.1030   58.0590   37.9580 N.3    36  GLU36      -0.1245
     33  CA        26.3170   58.1140   39.3870 C.3    36  GLU36       0.1567
     34  C         25.8440   56.8840   40.1460 C.2    36  GLU36       0.2260
     35  O         25.7820   56.8900   41.3800 O.2    36  GLU36      -0.2867
     36  CB        25.7340   59.4180   39.9470 C.3    36  GLU36       0.0388
     37  CG        26.4310   60.6490   39.3420 C.3    36  GLU36       0.1160
     38  CD        25.9230   61.9910   39.8980 C.2    36  GLU36       0.3649
     39  OE1       26.6880   62.9780   39.8480 O.co2  36  GLU36      -0.2457
     40  OE2       24.7700   62.0640   40.3760 O.co2  36  GLU36      -0.2457
     41  N         21.9860   54.2750   43.9150 N.3    59  ASP59      -0.1225
     42  CA        21.6560   55.3460   42.9730 C.3    59  ASP59       0.1805
     43  C         22.1650   56.6490   43.5780 C.2    59  ASP59       0.2598
     44  O         21.5190   57.2400   44.4480 O.2    59  ASP59      -0.2718
     45  CB        20.1440   55.4100   42.7250 C.3    59  ASP59       0.1424
     46  CG        19.7560   56.4340   41.6480 C.2    59  ASP59       0.3668
     47  OD1       18.6000   56.3540   41.1620 O.co2  59  ASP59      -0.2456
     48  OD2       20.5820   57.3210   41.2990 O.co2  59  ASP59      -0.2456
     49  N         23.3380   57.0840   43.1240 N.am   60  GLY60      -0.1942
     50  CA        23.9090   58.3130   43.6350 C.3    60  GLY60       0.2014
     51  C         23.2730   59.5600   43.0560 C.2    60  GLY60       0.2639
     52  O         22.5730   59.5150   42.0110 O.2    60  GLY60      -0.2714
     53  N         23.4170   60.6600   43.7870 N.am   61  HIS61      -0.1959
     54  CA        22.9150   61.9690   43.3360 C.3    61  HIS61       0.1787
     55  C         23.7910   63.1050   43.8780 C.2    61  HIS61       0.2620
     56  O         24.4410   62.9710   44.9180 O.2    61  HIS61      -0.2715
     57  CB        21.4140   62.1780   43.6530 C.3    61  HIS61       0.0785
     58  CG        21.0500   61.9530   45.0890 C.ar   61  HIS61       0.0821
     59  ND1       20.5180   60.7640   45.5470 N.ar   61  HIS61      -0.2267
     60  CD2       21.1740   62.7530   46.1750 C.ar   61  HIS61       0.1154
     61  CE1       20.3330   60.8420   46.8550 C.ar   61  HIS61       0.1986
     62  NE2       20.7200   62.0400   47.2560 N.ar   61  HIS61      -0.2212
     63  N         23.8360   64.2050   43.1360 N.am   62  ALA62      -0.1977
     64  CA        24.6460   65.3650   43.5000 C.3    62  ALA62       0.1597
     65  C         26.1220   64.9530   43.5740 C.2    62  ALA62       0.2287
     66  O         26.8940   65.4890   44.3740 O.2    62  ALA62      -0.2864
     67  CB        24.1640   65.9600   44.8400 C.3    62  ALA62       0.0319
     68  N         14.5030   55.1700   46.8140 N.3   145  GLU145     -0.1245
     69  CA        13.5130   54.9520   45.7680 C.3   145  GLU145      0.1567
     70  C         13.9270   53.9360   44.7040 C.2   145  GLU145      0.2260
     71  O         13.4200   53.9400   43.5770 O.2   145  GLU145     -0.2867
     72  CB        13.0610   56.3170   45.1870 C.3   145  GLU145      0.0388
     73  CG        14.0050   56.9810   44.1210 C.3   145  GLU145      0.1160
     74  CD        15.4780   57.0860   44.5390 C.2   145  GLU145      0.3649
     75  OE1       15.9940   58.2240   44.6240 O.co2 145  GLU145     -0.2457
     76  OE2       16.1430   56.0460   44.7400 O.co2 145  GLU145     -0.2457
     77  N          5.9360   70.3320   45.9790 N.3   183  ILE183     -0.1245
     78  CA         6.0460   69.7010   44.6830 C.3   183  ILE183      0.1561
     79  C          6.6330   68.2790   44.8060 C.2   183  ILE183      0.2260
     80  O          7.5370   67.8970   44.0780 O.2   183  ILE183     -0.2867
     81  CB         6.7610   70.6050   43.6100 C.3   183  ILE183      0.0252
     82  CG1        8.2120   70.9250   43.9880 C.3   183  ILE183      0.0019
     83  CG2        5.9630   71.8960   43.4410 C.3   183  ILE183      0.0019
     84  CD1        8.9970   71.5380   42.8750 C.3   183  ILE183      0.0001
     85  N          8.6390   66.9900   46.9040 N.3   185  ARG185     -0.1245
     86  CA        10.0510   66.9000   47.2020 C.3   185  ARG185      0.1563
     87  C         10.3630   67.4380   48.5830 C.2   185  ARG185      0.2260
     88  O          9.6450   68.3050   49.0790 O.2   185  ARG185     -0.2867
     89  CB        10.8390   67.6980   46.1510 C.3   185  ARG185      0.0307
     90  CG        10.7980   67.0740   44.7510 C.3   185  ARG185      0.0489
     91  CD        11.2480   68.0240   43.6070 C.3   185  ARG185      0.2205
     92  NE        11.1820   67.2960   42.3270 N.pl3 185  ARG185     -0.0865
     93  CZ        12.1840   66.5740   41.8200 C.cat 185  ARG185      0.5346
     94  NH1       13.3460   66.4960   42.4590 N.pl3 185  ARG185      0.1354
     95  NH2       11.9840   65.8250   40.7430 N.pl3 185  ARG185      0.1354
     96  N         10.9800   71.0660   48.6480 N.3   188  GLY188     -0.1210
     97  CA        10.8400   71.4350   47.2560 C.3   188  GLY188      0.1956
     98  C         12.0140   71.0490   46.3700 C.2   188  GLY188      0.2613
     99  O         12.0150   71.3800   45.1900 O.2   188  GLY188     -0.2717
    100  N         12.9650   70.2880   46.8950 N.am  189  SER189     -0.1938
    101  CA        14.1410   69.9130   46.1090 C.3   189  SER189      0.2055
    102  C         14.3340   68.4160   45.8160 C.2   189  SER189      0.2643
    103  O         14.2230   67.9840   44.6490 O.2   189  SER189     -0.2714
    104  CB        15.4090   70.4640   46.7770 C.3   189  SER189      0.2130
    105  OG        16.5710   69.9640   46.1280 O.3   189  SER189     -0.2179
    106  N         14.6580   67.6450   46.8590 N.am  190  LEU190     -0.1963
    107  CA        14.9170   66.2120   46.7260 C.3   190  LEU190      0.1728
    108  C         13.7150   65.3300   46.4830 C.2   190  LEU190      0.2616
    109  O         12.7700   65.3410   47.2530 O.2   190  LEU190     -0.2715
    110  CB        15.6770   65.6730   47.9560 C.3   190  LEU190      0.0311
    111  CG        17.1740   65.2970   47.8570 C.3   190  LEU190      0.0022
    112  CD1       17.5930   64.5170   49.1250 C.3   190  LEU190      0.0001
    113  CD2       17.4770   64.4390   46.6010 C.3   190  LEU190      0.0001
    114  N         13.7760   64.5220   45.4380 N.am  191  ALA191     -0.1963
    115  CA        12.6910   63.5930   45.1430 C.3   191  ALA191      0.1728
    116  C         12.8150   62.2970   45.9450 C.2   191  ALA191      0.2616
    117  O         12.0420   61.3580   45.7240 O.2   191  ALA191     -0.2715
    118  CB        12.6220   63.2780   43.6580 C.3   191  ALA191      0.0334
    119  N         13.7720   62.2230   46.8690 N.am  192  VAL192     -0.1977
    120  CA        13.8950   61.0070   47.6850 C.3   192  VAL192      0.1596
    121  C         13.9970   61.3830   49.1800 C.2   192  VAL192      0.2287
    122  O         14.6800   62.3470   49.5490 O.2   192  VAL192     -0.2864
    123  CB        15.0820   60.1030   47.2100 C.3   192  VAL192      0.0276
    124  CG1       16.4200   60.8210   47.4230 C.3   192  VAL192      0.0022
    125  CG2       15.0430   58.7500   47.9300 C.3   192  VAL192      0.0022
    126  N         15.4050   53.5460   40.1530 N.3   238  ASP238     -0.1239
    127  CA        14.1560   54.0590   39.5870 C.3   238  ASP238      0.1674
    128  C         14.2170   54.3410   38.0780 C.2   238  ASP238      0.2266
    129  O         13.1820   54.5460   37.4340 O.2   238  ASP238     -0.2867
    130  CB        13.6350   55.2680   40.3790 C.3   238  ASP238      0.1410
    131  CG        14.4340   56.5150   40.1440 C.2   238  ASP238      0.3668
    132  OD1       15.6120   56.4330   39.7040 O.co2 238  ASP238     -0.2456
    133  OD2       13.8620   57.5980   40.4090 O.co2 238  ASP238     -0.2456
    134  N         10.5690   53.5110   37.0420 N.3   242  ASP242     -0.1239
    135  CA         9.7470   54.6220   36.5860 C.3   242  ASP242      0.1674
    136  C          9.0270   54.2690   35.2730 C.2   242  ASP242      0.2266
    137  O          7.9680   54.8350   34.9860 O.2   242  ASP242     -0.2867
    138  CB        10.5910   55.8770   36.3320 C.3   242  ASP242      0.1410
    139  CG        10.9880   56.6160   37.6180 C.2   242  ASP242      0.3668
    140  OD1       10.4960   56.2810   38.7160 O.co2 242  ASP242     -0.2456
    141  OD2       11.8070   57.5540   37.5130 O.co2 242  ASP242     -0.2456
    142  N         14.9600   58.3460   30.8680 N.3   280  ARG280     -0.1231
    143  CA        16.0810   59.2130   30.5720 C.3   280  ARG280      0.1694
    144  C         17.1140   59.2330   31.7140 C.2   280  ARG280      0.2592
    145  O         18.0770   60.0000   31.6920 O.2   280  ARG280     -0.2718
    146  CB        15.5610   60.6300   30.2690 C.3   280  ARG280      0.0321
    147  CG        14.9640   60.7790   28.8620 C.3   280  ARG280      0.0489
    148  CD        13.4820   61.1490   28.8680 C.3   280  ARG280      0.2205
    149  NE        13.2360   62.4800   29.4250 N.pl3 280  ARG280     -0.0865
    150  CZ        12.0400   63.0610   29.4970 C.cat 280  ARG280      0.5346
    151  NH1       10.9510   62.4450   29.0420 N.pl3 280  ARG280      0.1354
    152  NH2       11.9330   64.2520   30.0620 N.pl3 280  ARG280      0.1354
    153  N         16.9580   58.3120   32.6570 N.am  281  ASP281     -0.1974
    154  CA        17.8390   58.2340   33.8210 C.3   281  ASP281      0.1709
    155  C         18.9490   57.1860   33.6660 C.2   281  ASP281      0.2293
    156  O         18.9390   56.4150   32.7060 O.2   281  ASP281     -0.2864
    157  CB        16.9670   57.8800   35.0290 C.3   281  ASP281      0.1436
    158  CG        17.5510   58.3450   36.3540 C.2   281  ASP281      0.3671
    159  OD1       18.6910   58.9040   36.4010 O.co2 281  ASP281     -0.2456
    160  OD2       16.8300   58.1380   37.3620 O.co2 281  ASP281     -0.2456
@<TRIPOS>BOND
     1    13    12    2
     2   147   148    1
     3   147   146    1
     4   148   149    1
     5    12    11    1
     6   151   150    1
     7   149   150    2
     8    14    11    1
     9    14    15    1
    10   150   152    1
    11    11    10    1
    12   146   143    1
    13    15    17   ar
    14    15    16   ar
    15   143   142    1
    16   143   144    1
    17    17    19   ar
    18    21    22    1
    19    24    23    2
    20    16    18   ar
    21    10     7   am
    22    23    22    1
    23   145   144    2
    24   144   153   am
    25    19    20   ar
    26    22    25    1
    27    18    20   ar
    28     7     8    2
    29     7     6    1
    30     2     3    1
    31     2     1    1
    32   153   154    1
    33   156   155    2
    34     3     5   am
    35     3     4    2
    36     5     6    1
    37    25    26    1
    38     6     9    1
    39   155   154    1
    40   154   157    1
    41    26    27    1
    42    27    28    1
    43    28    29    2
    44   137   136    2
    45   157   158    1
    46   136   135    1
    47    29    30    1
    48    29    31    1
    49   138   135    1
    50   138   139    1
    51   158   159   ar
    52   158   160   ar
    53   135   134    1
    54   129   128    2
    55   141   139   ar
    56   139   140   ar
    57    32    33    1
    58   128   127    1
    59    37    38    1
    60    37    36    1
    61    33    36    1
    62    33    34    1
    63   127   126    1
    64   127   130    1
    65   132   131   ar
    66    39    38   ar
    67    38    40   ar
    68   131   130    1
    69   131   133   ar
    70    34    35    2
    71    95    93    1
    72    47    46   ar
    73    48    46   ar
    74    46    45    1
    75    93    92    2
    76    93    94    1
    77    52    51    2
    78    92    91    1
    79    45    42    1
    80    84    82    1
    81    42    43    1
    82    42    41    1
    83    51    50    1
    84    51    53   am
    85    49    43   am
    86    49    50    1
    87    63    64    1
    88    63    55   am
    89    54    57    1
    90    54    53    1
    91    54    55    1
    92    83    81    1
    93    64    65    1
    94    64    67    1
    95    65    66    2
    96    71    70    2
    97    43    44    2
    98    91    90    1
    99    81    82    1
   100    81    78    1
   101    57    58    1
   102   118   115    1
   103    55    56    2
   104    80    79    2
   105    73    74    1
   106    73    72    1
   107    74    75   ar
   108    74    76   ar
   109   103   102    2
   110    78    79    1
   111    78    77    1
   112    70    69    1
   113    90    89    1
   114    58    59   ar
   115    58    60   ar
   116   115   114    1
   117   115   116    1
   118    72    69    1
   119    99    98    2
   120   114   108   am
   121    59    61   ar
   122   117   116    2
   123    69    68    1
   124   102   101    1
   125   102   106   am
   126   116   119   am
   127   101   104    1
   128   101   100    1
   129   105   104    1
   130    89    86    1
   131    60    62   ar
   132    98   100   am
   133    98    97    1
   134   108   107    1
   135   108   109    2
   136   113   111    1
   137   107   106    1
   138   107   110    1
   139    61    62   ar
   140   119   120    1
   141    85    86    1
   142    86    87    1
   143   123   124    1
   144   123   120    1
   145   123   125    1
   146    97    96    1
   147   120   121    1
   148   111   110    1
   149   111   112    1
   150    87    88    2
   151   121   122    2
