@<TRIPOS>MOLECULE
tmp/6b6dA00.pdb
 185 176 0 0 0
SMALL
GASTEIGER

@<TRIPOS>ATOM
      1  N         -1.0540  -11.2370   -8.7590 N.3    41  CYS41      -0.1221
      2  CA        -1.5690  -12.5060   -9.2470 C.3    41  CYS41       0.1808
      3  C         -0.9970  -12.7540  -10.6370 C.2    41  CYS41       0.2601
      4  O          0.1710  -12.4390  -10.8870 O.2    41  CYS41      -0.2717
      5  CB        -3.0970  -12.5150   -9.2330 C.3    41  CYS41       0.0970
      6  SG        -3.8080  -12.5590   -7.5570 S.3    41  CYS41      -0.0800
      7  N         -1.7960  -13.2930  -11.5540 N.am   42  SER42      -0.1952
      8  CA        -1.2460  -13.6370  -12.8610 C.3    42  SER42       0.1924
      9  C         -0.9980  -12.4280  -13.7550 C.2    42  SER42       0.2314
     10  O         -0.4300  -12.6010  -14.8380 O.2    42  SER42      -0.2863
     11  CB        -2.1690  -14.6270  -13.5730 C.3    42  SER42       0.2116
     12  OG        -2.1900  -15.8700  -12.8900 O.3    42  SER42      -0.2180
     13  N          2.4870  -11.8250  -15.4520 N.3    45  LYS45      -0.1245
     14  CA         3.0110  -12.6220  -16.5530 C.3    45  LYS45       0.1561
     15  C          3.0940  -11.8340  -17.8520 C.2    45  LYS45       0.2260
     16  O          3.9110  -12.1740  -18.7150 O.2    45  LYS45      -0.2867
     17  CB         2.1550  -13.8750  -16.7470 C.3    45  LYS45       0.0271
     18  CG         2.4630  -14.9710  -15.7460 C.3    45  LYS45       0.0035
     19  CD         1.2850  -15.9060  -15.5450 C.3    45  LYS45       0.0206
     20  CE         1.4880  -16.7810  -14.3200 C.3    45  LYS45       0.1093
     21  NZ         0.3150  -16.7610  -13.4100 N.3    45  LYS45      -0.1314
     22  N          1.9710  -25.3510   -9.6020 N.3    74  SER74      -0.1202
     23  CA         0.9510  -24.3260   -9.7390 C.3    74  SER74       0.2020
     24  C          0.0200  -24.7070  -10.8770 C.2    74  SER74       0.2618
     25  O          0.3380  -25.5660  -11.7040 O.2    74  SER74      -0.2717
     26  CB         1.5730  -22.9490   -9.9960 C.3    74  SER74       0.2103
     27  OG         2.6640  -23.0530  -10.8940 O.3    74  SER74      -0.2182
     28  N         -1.1420  -24.0540  -10.9060 N.am   75  ILE75      -0.1979
     29  CA        -2.1200  -24.2690  -11.9660 C.3    75  ILE75       0.1595
     30  C         -1.4600  -23.9290  -13.2940 C.2    75  ILE75       0.2287
     31  O         -1.2290  -22.7550  -13.6050 O.2    75  ILE75      -0.2864
     32  CB        -3.3940  -23.4360  -11.7390 C.3    75  ILE75       0.0276
     33  CG1       -4.1240  -23.9110  -10.4810 C.3    75  ILE75       0.0022
     34  CG2       -4.3160  -23.5380  -12.9440 C.3    75  ILE75       0.0022
     35  CD1       -3.8370  -23.0850   -9.2470 C.3    75  ILE75       0.0001
     36  N         -2.8440  -18.6160  -21.3570 N.3    99  TYR99      -0.1227
     37  CA        -3.4390  -19.5720  -20.4350 C.3    99  TYR99       0.1736
     38  C         -3.0030  -19.3770  -18.9890 C.2    99  TYR99       0.2596
     39  O         -3.4640  -20.1240  -18.1180 O.2    99  TYR99      -0.2718
     40  CB        -3.1150  -21.0070  -20.8750 C.3    99  TYR99       0.0548
     41  CG        -4.0750  -21.5680  -21.9030 C.ar   99  TYR99      -0.0200
     42  CD1       -5.2420  -22.2110  -21.5130 C.ar   99  TYR99      -0.0009
     43  CD2       -3.8100  -21.4580  -23.2620 C.ar   99  TYR99      -0.0009
     44  CE1       -6.1230  -22.7280  -22.4500 C.ar   99  TYR99       0.0417
     45  CE2       -4.6830  -21.9700  -24.2060 C.ar   99  TYR99       0.0417
     46  CZ        -5.8370  -22.6050  -23.7950 C.ar   99  TYR99       0.1957
     47  OH        -6.7080  -23.1150  -24.7320 O.3    99  TYR99      -0.2866
     48  N         -2.1330  -18.4040  -18.7090 N.am  100  SER100     -0.1952
     49  CA        -1.6750  -18.1100  -17.3470 C.3   100  SER100      0.1924
     50  C         -1.0190  -19.3280  -16.7000 C.2   100  SER100      0.2314
     51  O         -1.2390  -19.6220  -15.5230 O.2   100  SER100     -0.2863
     52  CB        -2.8190  -17.5860  -16.4780 C.3   100  SER100      0.2116
     53  OG        -3.6930  -16.7620  -17.2310 O.3   100  SER100     -0.2180
     54  N          1.2530  -21.4360  -14.6880 N.3   102  GLY102     -0.1225
     55  CA         2.0830  -21.0920  -13.5440 C.3   102  GLY102      0.1811
     56  C          3.5200  -21.5550  -13.6950 C.2   102  GLY102      0.2280
     57  O          4.4550  -20.8210  -13.3610 O.2   102  GLY102     -0.2866
     58  N          5.3440  -18.4840   -8.2770 N.3   140  GLU140     -0.1231
     59  CA         4.2040  -19.3740   -8.1500 C.3   140  GLU140      0.1684
     60  C          4.6030  -20.5640   -7.2800 C.2   140  GLU140      0.2434
     61  O          5.7150  -21.0860   -7.4180 O.2   140  GLU140     -0.2733
     62  CB         3.7260  -19.8490   -9.5230 C.3   140  GLU140      0.0402
     63  CG         3.4740  -18.7260  -10.5210 C.3   140  GLU140      0.1161
     64  CD         2.1130  -18.0800  -10.3390 C.2   140  GLU140      0.3649
     65  OE1        1.3730  -18.4960   -9.4220 O.co2 140  GLU140     -0.2457
     66  OE2        1.7850  -17.1520  -11.1100 O.co2 140  GLU140     -0.2457
     67  N          3.7310  -21.0240   -6.3780 N.am  141  PRO141     -0.2729
     68  CA         2.3320  -20.6520   -6.1740 C.3   141  PRO141      0.1401
     69  C          2.0960  -19.5690   -5.1170 C.2   141  PRO141      0.2269
     70  O          0.9440  -19.2350   -4.8450 O.2   141  PRO141     -0.2865
     71  CB         1.7060  -21.9770   -5.7170 C.3   141  PRO141      0.0296
     72  CG         2.8620  -22.8340   -5.2200 C.3   141  PRO141      0.0237
     73  CD         4.1360  -22.0710   -5.4310 C.3   141  PRO141      0.0939
     74  N          0.2480  -15.5350   -5.0440 N.3   144  ASN144     -0.1225
     75  CA        -1.1920  -15.3290   -4.9860 C.3   144  ASN144      0.1785
     76  C         -1.7590  -15.5830   -3.5970 C.2   144  ASN144      0.2597
     77  O         -2.9830  -15.6230   -3.4370 O.2   144  ASN144     -0.2718
     78  CB        -1.9000  -16.2290   -6.0000 C.3   144  ASN144      0.1169
     79  CG        -1.1370  -16.3540   -7.2990 C.2   144  ASN144      0.2627
     80  OD1       -1.3620  -15.5970   -8.2390 O.2   144  ASN144     -0.2716
     81  ND2       -0.2300  -17.3200   -7.3590 N.am  144  ASN144     -0.0877
     82  N         -0.9020  -15.7570   -2.5890 N.am  145  ARG145     -0.1979
     83  CA        -1.3470  -16.1420   -1.2550 C.3   145  ARG145      0.1597
     84  C         -0.9430  -15.1470   -0.1760 C.2   145  ARG145      0.2287
     85  O         -1.1070  -15.4430    1.0130 O.2   145  ARG145     -0.2864
     86  CB        -0.8050  -17.5290   -0.9000 C.3   145  ARG145      0.0334
     87  CG        -1.3480  -18.6470   -1.7700 C.3   145  ARG145      0.0492
     88  CD        -0.6750  -19.9720   -1.4480 C.3   145  ARG145      0.2205
     89  NE        -1.1340  -21.0390   -2.3320 N.pl3 145  ARG145     -0.0865
     90  CZ        -0.5090  -22.2000   -2.4860 C.cat 145  ARG145      0.5346
     91  NH1        0.6060  -22.4510   -1.8130 N.pl3 145  ARG145      0.1354
     92  NH2       -1.0000  -23.1120   -3.3140 N.pl3 145  ARG145      0.1354
     93  N         -8.6160  -16.3500  -21.0050 N.3   190  THR190     -0.1218
     94  CA        -8.9380  -16.2690  -19.5880 C.3   190  THR190      0.1862
     95  C         -9.7860  -15.0630  -19.2120 C.2   190  THR190      0.2287
     96  O        -10.4160  -15.0880  -18.1490 O.2   190  THR190     -0.2866
     97  CB        -7.6570  -16.2360  -18.7370 C.3   190  THR190      0.1770
     98  OG1       -7.0280  -14.9550  -18.8670 O.3   190  THR190     -0.2211
     99  CG2       -6.6830  -17.3250  -19.1710 C.3   190  THR190      0.0375
    100  N        -14.4510  -10.6290  -18.1180 N.3   194  ARG194     -0.1245
    101  CA       -13.9650   -9.5060  -17.3250 C.3   194  ARG194      0.1563
    102  C        -14.1160   -8.1960  -18.0900 C.2   194  ARG194      0.2260
    103  O        -15.2380   -7.7210  -18.2910 O.2   194  ARG194     -0.2867
    104  CB       -12.5120   -9.7420  -16.9100 C.3   194  ARG194      0.0307
    105  CG       -12.2290  -11.1810  -16.4910 C.3   194  ARG194      0.0489
    106  CD       -11.3470  -11.2530  -15.2530 C.3   194  ARG194      0.2205
    107  NE       -11.4930  -12.5240  -14.5450 N.pl3 194  ARG194     -0.0865
    108  CZ       -10.7310  -12.9000  -13.5220 C.cat 194  ARG194      0.5346
    109  NH1      -10.9340  -14.0710  -12.9350 N.pl3 194  ARG194      0.1354
    110  NH2       -9.7590  -12.1070  -13.0890 N.pl3 194  ARG194      0.1354
    111  N         -4.8880   -9.3430  -19.8970 N.3   208  LYS208     -0.1231
    112  CA        -4.1890  -10.3910  -19.1600 C.3   208  LYS208      0.1693
    113  C         -4.7850  -10.4320  -17.7610 C.2   208  LYS208      0.2593
    114  O         -4.7830   -9.4190  -17.0580 O.2   208  LYS208     -0.2718
    115  CB        -2.6810  -10.1180  -19.1050 C.3   208  LYS208      0.0285
    116  CG        -1.8780  -11.0660  -18.2250 C.3   208  LYS208      0.0035
    117  CD        -2.1170  -12.5130  -18.5980 C.3   208  LYS208      0.0206
    118  CE        -1.9500  -13.4200  -17.3950 C.3   208  LYS208      0.1093
    119  NZ        -3.0150  -14.4610  -17.3540 N.3   208  LYS208     -0.1314
    120  N         -5.3080  -11.5860  -17.3620 N.am  209  THR209     -0.1939
    121  CA        -6.0500  -11.6750  -16.1140 C.3   209  THR209      0.2028
    122  C         -5.1360  -11.9790  -14.9280 C.2   209  THR209      0.2643
    123  O         -3.9440  -12.2600  -15.0660 O.2   209  THR209     -0.2714
    124  CB        -7.1400  -12.7420  -16.2020 C.3   209  THR209      0.1808
    125  OG1       -6.6050  -13.9280  -16.8010 O.3   209  THR209     -0.2208
    126  CG2       -8.3090  -12.2410  -17.0190 C.3   209  THR209      0.0379
    127  N         -5.7320  -11.9120  -13.7430 N.am  210  GLY210     -0.1939
    128  CA        -5.0970  -12.3010  -12.5030 C.3   210  GLY210      0.2014
    129  C         -6.1580  -12.7030  -11.5020 C.2   210  GLY210      0.2640
    130  O         -7.1510  -11.9900  -11.3370 O.2   210  GLY210     -0.2714
    131  N         -5.9790  -13.8480  -10.8460 N.am  211  THR211     -0.1936
    132  CA        -6.9640  -14.3650   -9.9050 C.3   211  THR211      0.2028
    133  C         -6.2290  -15.1080   -8.8000 C.2   211  THR211      0.2643
    134  O         -5.2860  -15.8530   -9.0690 O.2   211  THR211     -0.2714
    135  CB        -7.9700  -15.2950  -10.6000 C.3   211  THR211      0.1808
    136  OG1       -8.3590  -14.7300  -11.8590 O.3   211  THR211     -0.2208
    137  CG2       -9.2120  -15.4870   -9.7430 C.3   211  THR211      0.0379
    138  N         -6.6480  -14.8970   -7.5600 N.am  212  GLY212     -0.1939
    139  CA        -5.9370  -15.5130   -6.4650 C.3   212  GLY212      0.2014
    140  C         -6.7630  -15.5660   -5.2030 C.2   212  GLY212      0.2638
    141  O         -7.9640  -15.2870   -5.2080 O.2   212  GLY212     -0.2714
    142  N         -6.0870  -15.9230   -4.1130 N.am  213  ASP213     -0.1971
    143  CA        -6.7140  -16.0560   -2.8100 C.3   213  ASP213      0.1709
    144  C         -7.3000  -14.7240   -2.3510 C.2   213  ASP213      0.2293
    145  O         -7.0500  -13.6640   -2.9300 O.2   213  ASP213     -0.2864
    146  CB        -5.7020  -16.5540   -1.7830 C.3   213  ASP213      0.1436
    147  CG        -5.5380  -18.0560   -1.8070 C.2   213  ASP213      0.3671
    148  OD1       -6.2360  -18.7230   -2.6050 O.co2 213  ASP213     -0.2456
    149  OD2       -4.7020  -18.5620   -1.0300 O.co2 213  ASP213     -0.2456
    150  N         -9.2680  -16.5760    3.0130 N.3   244  TYR244     -0.1227
    151  CA        -8.4480  -16.9250    1.8570 C.3   244  TYR244      0.1736
    152  C         -9.2760  -17.5560    0.7470 C.2   244  TYR244      0.2595
    153  O         -8.9150  -17.4470   -0.4300 O.2   244  TYR244     -0.2718
    154  CB        -7.3230  -17.8730    2.2710 C.3   244  TYR244      0.0548
    155  CG        -7.7600  -19.3130    2.3870 C.ar  244  TYR244     -0.0200
    156  CD1       -8.4750  -19.7510    3.4900 C.ar  244  TYR244     -0.0009
    157  CD2       -7.4630  -20.2340    1.3920 C.ar  244  TYR244     -0.0009
    158  CE1       -8.8820  -21.0670    3.6020 C.ar  244  TYR244      0.0417
    159  CE2       -7.8660  -21.5500    1.4920 C.ar  244  TYR244      0.0417
    160  CZ        -8.5730  -21.9620    2.6010 C.ar  244  TYR244      0.1957
    161  OH        -8.9790  -23.2730    2.7100 O.3   244  TYR244     -0.2866
    162  N        -10.3750  -18.2260    1.0940 N.am  245  ASP245     -0.1974
    163  CA       -11.2180  -18.9030    0.1180 C.3   245  ASP245      0.1709
    164  C        -12.4040  -18.0510   -0.3200 C.2   245  ASP245      0.2293
    165  O        -13.3710  -18.5860   -0.8710 O.2   245  ASP245     -0.2864
    166  CB       -11.7040  -20.2470    0.6690 C.3   245  ASP245      0.1436
    167  CG       -12.4600  -20.1080    1.9750 C.2   245  ASP245      0.3671
    168  OD1      -12.1070  -19.2210    2.7780 O.co2 245  ASP245     -0.2456
    169  OD2      -13.4120  -20.8880    2.2000 O.co2 245  ASP245     -0.2456
    170  N        -13.8340  -15.0270   -5.7870 N.3   248  PRO248     -0.2116
    171  CA       -13.7100  -13.8540   -6.6550 C.3   248  PRO248      0.1372
    172  C        -14.9670  -13.6640   -7.4880 C.2   248  PRO248      0.2244
    173  O        -15.6840  -14.6150   -7.8050 O.2   248  PRO248     -0.2868
    174  CB       -12.4990  -14.1800   -7.5380 C.3   248  PRO248      0.0268
    175  CG       -11.8240  -15.3610   -6.8870 C.3   248  PRO248      0.0207
    176  CD       -12.8910  -16.0970   -6.1510 C.3   248  PRO248      0.0892
    177  N        -16.0730  -12.3370  -10.9870 N.3   250  GLU250     -0.1245
    178  CA       -15.6840  -11.9110  -12.3270 C.3   250  GLU250      0.1567
    179  C        -16.6390  -10.8650  -12.8880 C.2   250  GLU250      0.2260
    180  O        -16.2450  -10.0570  -13.7360 O.2   250  GLU250     -0.2867
    181  CB       -15.6150  -13.1160  -13.2630 C.3   250  GLU250      0.0388
    182  CG       -14.4080  -14.0060  -13.0480 C.3   250  GLU250      0.1160
    183  CD       -14.1100  -14.8620  -14.2570 C.2   250  GLU250      0.3649
    184  OE1      -12.9850  -14.7610  -14.7900 O.co2 250  GLU250     -0.2457
    185  OE2      -15.0010  -15.6310  -14.6760 O.co2 250  GLU250     -0.2457
@<TRIPOS>BOND
     1    47    46    1
     2    45    46   ar
     3    45    43   ar
     4    46    44   ar
     5    43    41   ar
     6    44    42   ar
     7    41    42   ar
     8    41    40    1
     9    36    37    1
    10    93    94    1
    11    40    37    1
    12    37    38    1
    13   111   112    1
    14    94    95    1
    15    94    97    1
    16    95    96    2
    17    99    97    1
    18   112   115    1
    19   112   113    1
    20   115   116    1
    21    38    48   am
    22    38    39    2
    23    98    97    1
    24    16    15    2
    25    48    49    1
    26   117   116    1
    27   117   118    1
    28   103   102    2
    29   100   101    1
    30   102   101    1
    31    15    14    1
    32   113   120   am
    33   113   114    2
    34   118   119    1
    35   120   121    1
    36    49    50    1
    37    49    52    1
    38   101   104    1
    39    53    52    1
    40   126   124    1
    41   104   105    1
    42   125   124    1
    43    17    14    1
    44    17    18    1
    45    50    51    2
    46    14    13    1
    47   105   106    1
    48   124   121    1
    49   121   122    1
    50    18    19    1
    51    19    20    1
    52   106   107    1
    53   123   122    2
    54   122   127   am
    55    10     9    2
    56   184   183   ar
    57    54    55    1
    58   185   183   ar
    59   107   108    2
    60    20    21    1
    61   183   182    1
    62     9     8    1
    63   127   128    1
    64   180   179    2
    65    56    55    1
    66    56    57    2
    67    31    30    2
    68    11    12    1
    69    11     8    1
    70   108   110    1
    71   108   109    1
    72    30    29    1
    73   181   182    1
    74   181   178    1
    75    34    32    1
    76   179   178    1
    77     8     7    1
    78   128   129    1
    79   178   177    1
    80    29    32    1
    81    29    28    1
    82   136   135    1
    83    32    33    1
    84    25    24    2
    85     7     3   am
    86   129   130    2
    87   129   131   am
    88    66    64   ar
    89    28    24   am
    90    27    26    1
    91     4     3    2
    92    24    23    1
    93   131   132    1
    94     3     2    1
    95   135   132    1
    96   135   137    1
    97    63    64    1
    98    63    62    1
    99    33    35    1
   100    64    65   ar
   101    26    23    1
   102   132   133    1
   103    23    22    1
   104    62    59    1
   105     2     5    1
   106     2     1    1
   107     5     6    1
   108   134   133    2
   109   133   138   am
   110    58    59    1
   111    80    79    2
   112    59    60    1
   113   173   172    2
   114   138   139    1
   115   174   175    1
   116   174   171    1
   117   172   171    1
   118    61    60    2
   119    81    79   am
   120    79    78    1
   121    60    67   am
   122   175   176    1
   123   171   170    1
   124   139   140    1
   125    67    68    1
   126    67    73    1
   127    68    71    1
   128    68    69    1
   129   176   170    1
   130    78    75    1
   131    71    72    1
   132    73    72    1
   133   141   140    2
   134   140   142   am
   135    69    70    2
   136    74    75    1
   137    75    76    1
   138   142   143    1
   139    76    77    2
   140    76    82   am
   141    92    90    1
   142   145   144    2
   143   143   144    1
   144   143   146    1
   145   148   147   ar
   146    82    83    1
   147    90    89    2
   148    90    91    1
   149    89    88    1
   150   147   146    1
   151   147   149   ar
   152    87    88    1
   153    87    86    1
   154    83    86    1
   155    83    84    1
   156   165   164    2
   157   153   152    2
   158   164   163    1
   159    84    85    2
   160   163   166    1
   161   163   162    1
   162   166   167    1
   163   152   162   am
   164   152   151    1
   165   157   159   ar
   166   157   155   ar
   167   159   160   ar
   168   151   154    1
   169   151   150    1
   170   167   169   ar
   171   167   168   ar
   172   154   155    1
   173   155   156   ar
   174   160   161    1
   175   160   158   ar
   176   156   158   ar
