@<TRIPOS>MOLECULE
tmp/6b6kA00.pdb
 99 92 0 0 0
SMALL
GASTEIGER

@<TRIPOS>ATOM
      1  N          1.0830   22.6960   49.9840 N.3   114  LEU114     -0.1231
      2  CA        -0.2750   23.1880   50.1930 C.3   114  LEU114      0.1693
      3  C         -0.2080   24.6310   50.6990 C.2   114  LEU114      0.2592
      4  O          0.6040   24.9630   51.5780 O.2   114  LEU114     -0.2718
      5  CB        -1.0270   22.3110   51.1970 C.3   114  LEU114      0.0284
      6  CG        -1.5710   21.0000   50.6070 C.3   114  LEU114      0.0019
      7  CD1       -1.5470   19.9280   51.6490 C.3   114  LEU114      0.0001
      8  CD2       -2.9660   21.2370   50.1130 C.3   114  LEU114      0.0001
      9  N         -1.0410   25.5000   50.1300 N.am  115  ALA115     -0.1966
     10  CA        -0.9830   26.9290   50.4220 C.3   115  ALA115      0.1728
     11  C         -2.3770   27.5530   50.4610 C.2   115  ALA115      0.2616
     12  O         -3.3480   26.9980   49.9220 O.2   115  ALA115     -0.2715
     13  CB        -0.1850   27.6590   49.3460 C.3   115  ALA115      0.0334
     14  N         -2.4620   28.7180   51.1150 N.am  116  GLY116     -0.1955
     15  CA        -3.6700   29.5470   51.0810 C.3   116  GLY116      0.1869
     16  C         -3.6830   30.5280   49.9110 C.2   116  GLY116      0.2309
     17  O         -2.6460   31.0890   49.5420 O.2   116  GLY116     -0.2863
     18  N          5.1920   32.4120   55.1630 N.3   193  ASN193     -0.1240
     19  CA         4.7890   32.5880   56.5680 C.3   193  ASN193      0.1653
     20  C          5.5140   31.5210   57.3900 C.2   193  ASN193      0.2266
     21  O          5.2920   30.3240   57.1900 O.2   193  ASN193     -0.2867
     22  CB         3.2710   32.3950   56.6770 C.3   193  ASN193      0.1155
     23  CG         2.7640   32.2700   58.1280 C.2   193  ASN193      0.2627
     24  OD1        3.3630   32.7920   59.0720 O.2   193  ASN193     -0.2716
     25  ND2        1.6360   31.5260   58.2930 N.am  193  ASN193     -0.0877
     26  N         -1.8310   29.4050   61.0020 N.3   198  TYR198     -0.1227
     27  CA        -2.2590   29.9650   59.7280 C.3   198  TYR198      0.1736
     28  C         -2.2180   31.4840   59.8280 C.2   198  TYR198      0.2595
     29  O         -2.4220   32.0620   60.9030 O.2   198  TYR198     -0.2718
     30  CB        -3.6750   29.4770   59.3480 C.3   198  TYR198      0.0548
     31  CG        -3.7480   27.9790   59.0720 C.ar  198  TYR198     -0.0200
     32  CD1       -3.1580   27.4390   57.9210 C.ar  198  TYR198     -0.0009
     33  CD2       -4.3400   27.1140   59.9760 C.ar  198  TYR198     -0.0009
     34  CE1       -3.1980   26.0470   57.6730 C.ar  198  TYR198      0.0417
     35  CE2       -4.3870   25.7550   59.7470 C.ar  198  TYR198      0.0417
     36  CZ        -3.7940   25.2210   58.6040 C.ar  198  TYR198      0.1957
     37  OH        -3.8590   23.8420   58.4240 O.3   198  TYR198     -0.2866
     38  N         -1.9580   32.1440   58.7100 N.am  199  GLU199     -0.1979
     39  CA        -1.9890   33.5970   58.7450 C.3   199  GLU199      0.1602
     40  C         -3.3640   34.0910   59.2240 C.2   199  GLU199      0.2287
     41  O         -4.4170   33.5470   58.8690 O.2   199  GLU199     -0.2864
     42  CB        -1.5740   34.1770   57.3770 C.3   199  GLU199      0.0415
     43  CG        -2.6410   34.3010   56.3520 C.3   199  GLU199      0.1163
     44  CD        -3.0120   33.0130   55.6520 C.2   199  GLU199      0.3649
     45  OE1       -2.4080   31.9230   55.8840 O.co2 199  GLU199     -0.2457
     46  OE2       -3.9320   33.0910   54.7960 O.co2 199  GLU199     -0.2457
     47  N          0.1030   31.9870   50.0760 N.3   215  VAL215     -0.1231
     48  CA         0.8710   32.0000   51.3300 C.3   215  VAL215      0.1692
     49  C          1.0310   30.5670   51.8630 C.2   215  VAL215      0.2593
     50  O          0.0730   29.7860   51.8830 O.2   215  VAL215     -0.2718
     51  CB         0.2280   32.9370   52.3770 C.3   215  VAL215      0.0266
     52  CG1       -1.2110   32.5660   52.6710 C.3   215  VAL215      0.0020
     53  CG2        1.0610   32.9770   53.6700 C.3   215  VAL215      0.0020
     54  N          2.2530   30.2200   52.2980 N.am  216  GLY216     -0.1942
     55  CA         2.4850   28.9080   52.8940 C.3   216  GLY216      0.2014
     56  C          3.6910   28.9260   53.8200 C.2   216  GLY216      0.2638
     57  O          4.3820   29.9480   53.9630 O.2   216  GLY216     -0.2714
     58  N          3.9640   27.7560   54.4210 N.am  217  MET217     -0.1976
     59  CA         4.9360   27.6270   55.5060 C.3   217  MET217      0.1605
     60  C          6.1620   26.7880   55.1280 C.2   217  MET217      0.2287
     61  O          6.8680   26.2890   56.0220 O.2   217  MET217     -0.2864
     62  CB         4.2680   26.9950   56.7440 C.3   217  MET217      0.0413
     63  CG         3.0590   27.6920   57.2780 C.3   217  MET217      0.0598
     64  SD         2.2960   26.7000   58.6270 S.3   217  MET217     -0.1393
     65  CE         0.7300   27.5440   58.7540 C.3   217  MET217      0.0692
     66  N         -5.6540   25.4360   49.1050 N.3   240  ALA240     -0.1231
     67  CA        -6.6350   24.8260   49.9790 C.3   240  ALA240      0.1694
     68  C         -7.8700   25.6980   50.2110 C.2   240  ALA240      0.2592
     69  O         -8.9160   25.1600   50.5590 O.2   240  ALA240     -0.2718
     70  CB        -5.9790   24.4750   51.3190 C.3   240  ALA240      0.0304
     71  N         -7.7690   27.0150   50.0120 N.am  241  ASN241     -0.1974
     72  CA        -8.8300   27.9560   50.3740 C.3   241  ASN241      0.1688
     73  C         -8.4540   29.3160   49.8180 C.2   241  ASN241      0.2292
     74  O         -7.3110   29.5350   49.4140 O.2   241  ASN241     -0.2864
     75  CB        -8.9490   28.0900   51.8950 C.3   241  ASN241      0.1181
     76  CG        -7.7100   28.7070   52.5340 C.2   241  ASN241      0.2629
     77  OD1       -6.5990   28.2230   52.3470 O.2   241  ASN241     -0.2716
     78  ND2       -7.9010   29.7770   53.2940 N.am  241  ASN241     -0.0877
     79  N         -8.0850   32.8260   51.5250 N.3   243  SER243     -0.1217
     80  CA        -8.0530   33.4350   52.8500 C.3   243  SER243      0.1889
     81  C         -8.7280   34.7900   52.8660 C.2   243  SER243      0.2288
     82  O         -9.2390   35.2170   53.9130 O.2   243  SER243     -0.2866
     83  CB        -6.5920   33.5810   53.3230 C.3   243  SER243      0.2089
     84  OG        -5.9090   32.3470   53.2490 O.3   243  SER243     -0.2183
     85  N        -10.0900   28.2520   57.8540 N.3   253  ILE253     -0.1245
     86  CA        -9.3810   27.0550   57.4110 C.3   253  ILE253      0.1561
     87  C         -8.9600   26.2360   58.6310 C.2   253  ILE253      0.2260
     88  O         -8.8860   26.7390   59.7550 O.2   253  ILE253     -0.2867
     89  CB        -8.1640   27.4070   56.5320 C.3   253  ILE253      0.0252
     90  CG1       -7.5720   26.1680   55.8320 C.3   253  ILE253      0.0019
     91  CG2       -7.0790   28.1610   57.3300 C.3   253  ILE253      0.0019
     92  CD1       -8.4410   25.7490   54.6620 C.3   253  ILE253      0.0001
     93  N         -7.6110   21.2120   54.8430 N.3   258  VAL258     -0.1245
     94  CA        -6.4570   21.1670   53.9450 C.3   258  VAL258      0.1561
     95  C         -6.2500   19.7490   53.4190 C.2   258  VAL258      0.2260
     96  O         -6.0510   19.5290   52.2190 O.2   258  VAL258     -0.2867
     97  CB        -5.2010   21.6900   54.6710 C.3   258  VAL258      0.0252
     98  CG1       -3.9510   21.4590   53.8270 C.3   258  VAL258      0.0019
     99  CG2       -5.3140   23.1830   54.9710 C.3   258  VAL258      0.0019
@<TRIPOS>BOND
     1    66    67    1
     2    13    10    1
     3    74    73    2
     4    17    16    2
     5    73    72    1
     6    16    15    1
     7    12    11    2
     8    67    68    1
     9    67    70    1
    10     1     2    1
    11    71    68   am
    12    71    72    1
    13    47    48    1
    14     8     6    1
    15     9    10    1
    16     9     3   am
    17     2     3    1
    18     2     5    1
    19    68    69    2
    20    72    75    1
    21    10    11    1
    22    11    14   am
    23     6     5    1
    24     6     7    1
    25     3     4    2
    26    15    14    1
    27    48    49    1
    28    48    51    1
    29    79    80    1
    30    49    50    2
    31    49    54   am
    32    75    76    1
    33    96    95    2
    34    54    55    1
    35    77    76    2
    36    51    52    1
    37    51    53    1
    38    76    78   am
    39    80    81    1
    40    80    83    1
    41    81    82    2
    42    55    56    1
    43    84    83    1
    44    95    94    1
    45    56    57    2
    46    56    58   am
    47    98    97    1
    48    94    97    1
    49    94    93    1
    50    58    59    1
    51    92    90    1
    52    97    99    1
    53    46    44   ar
    54    60    59    1
    55    60    61    2
    56    18    19    1
    57    59    62    1
    58    44    45   ar
    59    44    43    1
    60    90    89    1
    61    43    42    1
    62    89    91    1
    63    89    86    1
    64    19    22    1
    65    19    20    1
    66    22    23    1
    67    62    63    1
    68    21    20    2
    69    63    64    1
    70    42    39    1
    71    86    85    1
    72    86    87    1
    73    34    32   ar
    74    34    36   ar
    75    32    31   ar
    76    23    25   am
    77    23    24    2
    78    37    36    1
    79    36    35   ar
    80    64    65    1
    81    87    88    2
    82    38    39    1
    83    38    28   am
    84    39    40    1
    85    41    40    2
    86    31    30    1
    87    31    33   ar
    88    30    27    1
    89    27    28    1
    90    27    26    1
    91    35    33   ar
    92    28    29    2
