@<TRIPOS>MOLECULE
tmp/6b6rA01.pdb
 83 78 0 0 0
SMALL
GASTEIGER

@<TRIPOS>ATOM
      1  N         14.3790  -30.2550  -19.3560 N.3   109  CYS109     -0.1221
      2  CA        13.3810  -29.3210  -19.8490 C.3   109  CYS109      0.1808
      3  C         12.3910  -30.0400  -20.7580 C.2   109  CYS109      0.2601
      4  O         12.7930  -30.7040  -21.7160 O.2   109  CYS109     -0.2717
      5  CB        14.0860  -28.1960  -20.6090 C.3   109  CYS109      0.0970
      6  SG        15.2510  -27.2460  -19.6230 S.3   109  CYS109     -0.0800
      7  N         11.0980  -29.8990  -20.4690 N.am  110  ALA110     -0.1965
      8  CA        10.0810  -30.5650  -21.2670 C.3   110  ALA110      0.1728
      9  C          9.9980  -29.9450  -22.6560 C.2   110  ALA110      0.2617
     10  O         10.5040  -28.8520  -22.9200 O.2   110  ALA110     -0.2715
     11  CB         8.7180  -30.4960  -20.5840 C.3   110  ALA110      0.0334
     12  N          9.3340  -30.6620  -23.5500 N.am  111  SER111     -0.1936
     13  CA         9.2450  -30.2860  -24.9500 C.3   111  SER111      0.2055
     14  C          7.8940  -29.6700  -25.2880 C.2   111  SER111      0.2642
     15  O          6.8580  -30.0350  -24.7270 O.2   111  SER111     -0.2714
     16  CB         9.4640  -31.5020  -25.8430 C.3   111  SER111      0.2130
     17  OG        10.7710  -31.9990  -25.6810 O.3   111  SER111     -0.2179
     18  N          7.9210  -28.7440  -26.2390 N.am  112  ALA112     -0.1977
     19  CA         6.7010  -28.3160  -26.8970 C.3   112  ALA112      0.1597
     20  C          5.8630  -29.5270  -27.2750 C.2   112  ALA112      0.2287
     21  O          6.3830  -30.5350  -27.7660 O.2   112  ALA112     -0.2864
     22  CB         7.0340  -27.5060  -28.1490 C.3   112  ALA112      0.0319
     23  N          2.4160  -27.3960  -23.7760 N.3   142  ILE142     -0.1231
     24  CA         3.5150  -26.4830  -24.0310 C.3   142  ILE142      0.1692
     25  C          3.5150  -26.1170  -25.5070 C.2   142  ILE142      0.2591
     26  O          3.3660  -26.9810  -26.3800 O.2   142  ILE142     -0.2718
     27  CB         4.8450  -27.1220  -23.6030 C.3   142  ILE142      0.0266
     28  CG1        4.8040  -27.4740  -22.1050 C.3   142  ILE142      0.0019
     29  CG2        6.0160  -26.1790  -23.8930 C.3   142  ILE142      0.0020
     30  CD1        6.0720  -28.1180  -21.5860 C.3   142  ILE142      0.0001
     31  N          3.6750  -24.8280  -25.7870 N.am  143  LEU143     -0.1980
     32  CA         3.7430  -24.2940  -27.1370 C.3   143  LEU143      0.1596
     33  C          5.1980  -24.0860  -27.5440 C.2   143  LEU143      0.2287
     34  O          6.0870  -23.9070  -26.7030 O.2   143  LEU143     -0.2864
     35  CB         2.9750  -22.9760  -27.2240 C.3   143  LEU143      0.0297
     36  CG         1.4740  -23.0840  -26.9200 C.3   143  LEU143      0.0022
     37  CD1        0.8390  -21.7170  -26.8860 C.3   143  LEU143      0.0001
     38  CD2        0.7540  -23.9820  -27.9390 C.3   143  LEU143      0.0001
     39  N          8.6490  -22.5690  -28.7740 N.3   145  ASP145     -0.1239
     40  CA         9.3490  -21.3140  -28.5200 C.3   145  ASP145      0.1674
     41  C          9.0730  -20.2900  -29.6120 C.2   145  ASP145      0.2266
     42  O          8.8940  -19.0960  -29.3290 O.2   145  ASP145     -0.2867
     43  CB        10.8490  -21.5910  -28.4180 C.3   145  ASP145      0.1410
     44  CG        11.6380  -20.3660  -28.0400 C.2   145  ASP145      0.3668
     45  OD1       11.3420  -19.7870  -26.9730 O.co2 145  ASP145     -0.2456
     46  OD2       12.5390  -19.9800  -28.8120 O.co2 145  ASP145     -0.2456
     47  N         11.5330  -18.4110  -20.1100 N.3   160  MET160     -0.1230
     48  CA        10.0870  -18.3790  -20.2480 C.3   160  MET160      0.1702
     49  C          9.6500  -19.3800  -21.3030 C.2   160  MET160      0.2592
     50  O         10.3820  -19.6670  -22.2580 O.2   160  MET160     -0.2718
     51  CB         9.5950  -17.0090  -20.6740 C.3   160  MET160      0.0401
     52  CG         9.9210  -15.8990  -19.7140 C.3   160  MET160      0.0596
     53  SD         9.4840  -14.3200  -20.4400 S.3   160  MET160     -0.1393
     54  CE        10.2620  -13.2120  -19.2700 C.3   160  MET160      0.0692
     55  N          8.4450  -19.9030  -21.1290 N.am  161  PHE161     -0.1976
     56  CA         7.7930  -20.6550  -22.1920 C.3   161  PHE161      0.1639
     57  C          6.3010  -20.3750  -22.1410 C.2   161  PHE161      0.2290
     58  O          5.7620  -19.9280  -21.1200 O.2   161  PHE161     -0.2864
     59  CB         8.0760  -22.1600  -22.0940 C.3   161  PHE161      0.0560
     60  CG         7.4370  -22.8410  -20.9180 C.ar  161  PHE161     -0.0200
     61  CD1        6.1990  -23.4250  -21.0440 C.ar  161  PHE161     -0.0042
     62  CD2        8.1020  -22.9510  -19.7050 C.ar  161  PHE161     -0.0042
     63  CE1        5.6130  -24.0840  -19.9760 C.ar  161  PHE161     -0.0003
     64  CE2        7.5200  -23.6000  -18.6370 C.ar  161  PHE161     -0.0003
     65  CZ         6.2780  -24.1740  -18.7750 C.ar  161  PHE161     -0.0000
     66  N          7.3750  -28.2070  -14.3880 N.3   188  GLN188     -0.1245
     67  CA         8.0870  -27.5420  -15.4690 C.3   188  GLN188      0.1566
     68  C          7.8680  -26.0380  -15.5180 C.2   188  GLN188      0.2260
     69  O          8.7050  -25.3280  -16.0890 O.2   188  GLN188     -0.2867
     70  CB         7.6830  -28.1290  -16.8140 C.3   188  GLN188      0.0367
     71  CG         8.1510  -29.5690  -17.0230 C.3   188  GLN188      0.0905
     72  CD         9.6280  -29.6630  -17.3400 C.2   188  GLN188      0.2608
     73  OE1       10.2500  -28.6890  -17.7740 O.2   188  GLN188     -0.2717
     74  NE2       10.1990  -30.8470  -17.1360 N.am  188  GLN188     -0.0878
     75  N         10.4420  -20.9350  -16.7040 N.3   208  LYS208     -0.1245
     76  CA        11.0060  -22.2090  -17.1600 C.3   208  LYS208      0.1561
     77  C         11.8150  -22.8330  -16.0280 C.2   208  LYS208      0.2260
     78  O         13.0190  -22.6070  -15.8950 O.2   208  LYS208     -0.2867
     79  CB        11.8430  -21.9810  -18.4120 C.3   208  LYS208      0.0271
     80  CG        12.2540  -23.2460  -19.1370 C.3   208  LYS208      0.0035
     81  CD        12.7740  -22.9350  -20.5440 C.3   208  LYS208      0.0206
     82  CE        13.4780  -24.1430  -21.1360 C.3   208  LYS208      0.1093
     83  NZ        13.8510  -23.9750  -22.5720 N.3   208  LYS208     -0.1314
@<TRIPOS>BOND
     1    41    42    2
     2    41    40    1
     3    46    44   ar
     4    39    40    1
     5    40    43    1
     6    43    44    1
     7    22    19    1
     8    44    45   ar
     9    38    36    1
    10    21    20    2
    11    33    32    1
    12    33    34    2
    13    20    19    1
    14    35    32    1
    15    35    36    1
    16    32    31    1
    17    36    37    1
    18    19    18    1
    19    26    25    2
    20    18    14   am
    21    16    17    1
    22    16    13    1
    23    31    25   am
    24    25    24    1
    25    14    13    1
    26    14    15    2
    27    13    12    1
    28    24    23    1
    29    24    27    1
    30    29    27    1
    31    27    28    1
    32    12     9   am
    33    10     9    2
    34     9     8    1
    35    83    82    1
    36    50    49    2
    37    56    57    1
    38    56    59    1
    39    56    55    1
    40    57    58    2
    41    28    30    1
    42    59    60    1
    43     4     3    2
    44    49    55   am
    45    49    48    1
    46     8    11    1
    47     8     7    1
    48    82    81    1
    49    61    60   ar
    50    61    63   ar
    51    60    62   ar
    52     3     7   am
    53     3     2    1
    54    51    48    1
    55    51    52    1
    56     5     2    1
    57     5     6    1
    58    81    80    1
    59    53    52    1
    60    53    54    1
    61    48    47    1
    62    63    65   ar
    63     2     1    1
    64    62    64   ar
    65    80    79    1
    66    65    64   ar
    67    79    76    1
    68    73    72    2
    69    72    74   am
    70    72    71    1
    71    76    75    1
    72    76    77    1
    73    71    70    1
    74    70    67    1
    75    69    68    2
    76    77    78    2
    77    68    67    1
    78    67    66    1
