@<TRIPOS>MOLECULE
tmp/6b6uA01.pdb
 123 112 0 0 0
SMALL
GASTEIGER

@<TRIPOS>ATOM
      1  N         28.5060  -22.1580   23.4830 N.3    72  HIS72      -0.1241
      2  CA        29.4230  -21.7530   22.4250 C.3    72  HIS72       0.1621
      3  C         30.8160  -21.6630   23.0110 C.2    72  HIS72       0.2264
      4  O         30.9790  -21.3860   24.1990 O.2    72  HIS72      -0.2867
      5  CB        29.0520  -20.3640   21.8850 C.3    72  HIS72       0.0745
      6  CG        27.6190  -20.2430   21.4710 C.ar   72  HIS72       0.0817
      7  ND1       27.0970  -20.9630   20.4200 N.ar   72  HIS72      -0.2268
      8  CD2       26.5940  -19.5110   21.9720 C.ar   72  HIS72       0.1154
      9  CE1       25.8160  -20.6720   20.2810 C.ar   72  HIS72       0.1986
     10  NE2       25.4850  -19.7970   21.2140 N.ar   72  HIS72      -0.2212
     11  N         23.5710  -18.3870    4.6870 N.3   125  GLU125     -0.1245
     12  CA        22.2170  -18.6420    5.1510 C.3   125  GLU125      0.1567
     13  C         21.3750  -19.0580    3.9540 C.2   125  GLU125      0.2260
     14  O         21.6940  -18.7370    2.8080 O.2   125  GLU125     -0.2867
     15  CB        21.6110  -17.3970    5.8250 C.3   125  GLU125      0.0388
     16  CG        22.4540  -16.8520    6.9710 C.3   125  GLU125      0.1160
     17  CD        21.7030  -15.8750    7.8650 C.2   125  GLU125      0.3649
     18  OE1       20.5250  -15.5760    7.5810 O.co2 125  GLU125     -0.2457
     19  OE2       22.2960  -15.4140    8.8660 O.co2 125  GLU125     -0.2457
     20  N         15.7750  -21.4990   15.5490 N.3   171  ASP171     -0.1225
     21  CA        16.3580  -20.1630   15.6660 C.3   171  ASP171      0.1805
     22  C         15.4850  -19.2140   16.4710 C.2   171  ASP171      0.2597
     23  O         14.7740  -18.3790   15.9010 O.2   171  ASP171     -0.2718
     24  CB        16.6330  -19.5490   14.2890 C.3   171  ASP171      0.1424
     25  CG        17.4980  -18.3090   14.3770 C.2   171  ASP171      0.3668
     26  OD1       18.0540  -18.0650   15.4650 O.co2 171  ASP171     -0.2456
     27  OD2       17.6230  -17.5810   13.3710 O.co2 171  ASP171     -0.2456
     28  N         15.5500  -19.3270   17.7980 N.am  172  ASP172     -0.1974
     29  CA        14.7730  -18.4710   18.6890 C.3   172  ASP172      0.1709
     30  C         13.2880  -18.5630   18.3830 C.2   172  ASP172      0.2293
     31  O         12.5310  -17.5940   18.5400 O.2   172  ASP172     -0.2864
     32  CB        15.2550  -17.0200   18.6550 C.3   172  ASP172      0.1436
     33  CG        16.6300  -16.8500   19.2830 C.2   172  ASP172      0.3671
     34  OD1       17.0950  -17.7610   20.0130 O.co2 172  ASP172     -0.2456
     35  OD2       17.2440  -15.7910   19.0460 O.co2 172  ASP172     -0.2456
     36  N         11.8270  -18.5880   15.6590 N.3   174  LEU174     -0.1245
     37  CA        11.4050  -17.7120   14.5740 C.3   174  LEU174      0.1561
     38  C         10.9980  -18.4720   13.3310 C.2   174  LEU174      0.2260
     39  O         10.1270  -18.0130   12.5890 O.2   174  LEU174     -0.2867
     40  CB        12.5230  -16.7350   14.2330 C.3   174  LEU174      0.0270
     41  CG        12.8330  -15.7720   15.3790 C.3   174  LEU174      0.0019
     42  CD1       14.0040  -14.9110   15.0010 C.3   174  LEU174      0.0001
     43  CD2       11.6330  -14.9000   15.7730 C.3   174  LEU174      0.0001
     44  N         15.2320  -16.6900    7.1800 N.3   196  SER196     -0.1217
     45  CA        16.6190  -16.9500    6.8150 C.3   196  SER196      0.1889
     46  C         17.2610  -17.8340    7.8790 C.2   196  SER196      0.2288
     47  O         17.2600  -17.4870    9.0650 O.2   196  SER196     -0.2866
     48  CB        17.3750  -15.6280    6.6950 C.3   196  SER196      0.2089
     49  OG        18.6400  -15.8170    6.0870 O.3   196  SER196     -0.2183
     50  N         21.7990  -23.4890   14.7550 N.3   201  LYS201     -0.1245
     51  CA        20.7230  -22.7780   15.4220 C.3   201  LYS201      0.1561
     52  C         19.9690  -23.7100   16.3600 C.2   201  LYS201      0.2260
     53  O         19.9040  -24.9250   16.1440 O.2   201  LYS201     -0.2867
     54  CB        19.7720  -22.1890   14.3810 C.3   201  LYS201      0.0271
     55  CG        20.4440  -21.2210   13.4120 C.3   201  LYS201      0.0035
     56  CD        21.0340  -20.0160   14.1410 C.3   201  LYS201      0.0206
     57  CE        21.7500  -19.0770   13.1840 C.3   201  LYS201      0.1093
     58  NZ        22.5390  -18.0370   13.9150 N.3   201  LYS201     -0.1314
     59  N         14.1500  -17.1590   27.0350 N.3   289  GLY289     -0.1225
     60  CA        14.3560  -17.4400   25.6280 C.3   289  GLY289      0.1811
     61  C         13.7430  -18.7620   25.2400 C.2   289  GLY289      0.2280
     62  O         12.7650  -18.8270   24.4940 O.2   289  GLY289     -0.2866
     63  N         16.9480  -12.6870   29.4960 N.3   322  THR322     -0.1203
     64  CA        16.8450  -12.9450   28.0620 C.3   322  THR322      0.1994
     65  C         15.9540  -11.9600   27.3260 C.2   322  THR322      0.2617
     66  O         14.7600  -11.8250   27.6210 O.2   322  THR322     -0.2717
     67  CB        16.4950  -14.3950   27.7670 C.3   322  THR322      0.1784
     68  OG1       17.4260  -15.2030   28.4870 O.3   322  THR322     -0.2211
     69  CG2       16.6200  -14.6820   26.2840 C.3   322  THR322      0.0376
     70  N         16.5660  -11.2510   26.3690 N.am  323  GLN323     -0.1979
     71  CA        15.9090  -10.2950   25.4860 C.3   323  GLN323      0.1601
     72  C         15.3780   -9.0660   26.2150 C.2   323  GLN323      0.2287
     73  O         14.5110   -8.3550   25.6950 O.2   323  GLN323     -0.2864
     74  CB        14.8320  -10.9600   24.6300 C.3   323  GLN323      0.0394
     75  CG        15.4070  -11.9850   23.6550 C.3   323  GLN323      0.0908
     76  CD        14.3820  -12.3970   22.6380 C.2   323  GLN323      0.2608
     77  OE1       13.1910  -12.4540   22.9260 O.2   323  GLN323     -0.2717
     78  NE2       14.8240  -12.5910   21.4030 N.am  323  GLN323     -0.0878
     79  N         16.9590   -6.3610   23.9810 N.3   326  GLU326     -0.1245
     80  CA        17.4260   -7.0660   22.7910 C.3   326  GLU326      0.1567
     81  C         17.7830   -6.1330   21.6440 C.2   326  GLU326      0.2260
     82  O         18.7850   -6.3610   20.9560 O.2   326  GLU326     -0.2867
     83  CB        16.3920   -8.0910   22.3340 C.3   326  GLU326      0.0388
     84  CG        16.8750   -8.9950   21.2130 C.3   326  GLU326      0.1160
     85  CD        17.8120  -10.1030   21.6270 C.2   326  GLU326      0.3649
     86  OE1       18.3320  -10.0760   22.7590 O.co2 326  GLU326     -0.2457
     87  OE2       18.0250  -11.0170   20.7910 O.co2 326  GLU326     -0.2457
     88  N         21.3740   -4.8330   20.8010 N.3   329  ILE329     -0.1245
     89  CA        22.4120   -5.5130   20.0270 C.3   329  ILE329      0.1561
     90  C         22.8320   -4.6510   18.8420 C.2   329  ILE329      0.2260
     91  O         24.0110   -4.6030   18.4830 O.2   329  ILE329     -0.2867
     92  CB        21.9350   -6.9120   19.5980 C.3   329  ILE329      0.0252
     93  CG1       21.7950   -7.8170   20.8230 C.3   329  ILE329      0.0019
     94  CG2       22.8990   -7.5300   18.5860 C.3   329  ILE329      0.0019
     95  CD1       21.0300   -9.0670   20.5450 C.3   329  ILE329      0.0001
     96  N         22.3680  -10.8610   27.5040 N.3   356  SER356     -0.1202
     97  CA        22.9280  -11.9840   26.7710 C.3   356  SER356      0.2020
     98  C         23.5880  -11.4240   25.5250 C.2   356  SER356      0.2619
     99  O         24.7050  -10.9030   25.6030 O.2   356  SER356     -0.2717
    100  CB        21.8900  -13.0760   26.5340 C.3   356  SER356      0.2103
    101  OG        21.5060  -13.5810   27.8070 O.3   356  SER356     -0.2182
    102  N         22.9270  -11.4900   24.3630 N.am  357  GLY357     -0.1942
    103  CA        23.5240  -10.9690   23.1410 C.3   357  GLY357      0.2014
    104  C         23.8980   -9.5100   23.2420 C.2   357  GLY357      0.2638
    105  O         24.8410   -9.0610   22.5780 O.2   357  GLY357     -0.2714
    106  N         23.1500   -8.7370   24.0430 N.am  358  GLU358     -0.1977
    107  CA        23.4350   -7.3180   24.1740 C.3   358  GLU358      0.1602
    108  C         24.8630   -7.0440   24.6240 C.2   358  GLU358      0.2287
    109  O         25.4430   -6.0230   24.2390 O.2   358  GLU358     -0.2864
    110  CB        22.4850   -6.6890   25.1940 C.3   358  GLU358      0.0415
    111  CG        20.9880   -6.8570   24.9320 C.3   358  GLU358      0.1163
    112  CD        20.3630   -8.0250   25.6910 C.2   358  GLU358      0.3649
    113  OE1       21.0100   -9.0870   25.7920 O.co2 358  GLU358     -0.2457
    114  OE2       19.2320   -7.8740   26.2110 O.co2 358  GLU358     -0.2457
    115  N         27.6850  -10.0510   22.0740 N.3   361  LYS361     -0.1245
    116  CA        27.8900   -9.9580   20.6310 C.3   361  LYS361      0.1561
    117  C         27.5050   -8.6160   20.0330 C.2   361  LYS361      0.2260
    118  O         27.8520   -8.3640   18.8770 O.2   361  LYS361     -0.2867
    119  CB        27.0850  -11.0500   19.9030 C.3   361  LYS361      0.0271
    120  CG        27.4470  -12.4890   20.2720 C.3   361  LYS361      0.0035
    121  CD        26.4440  -13.4720   19.6670 C.3   361  LYS361      0.0206
    122  CE        26.7170  -14.9100   20.0950 C.3   361  LYS361      0.1093
    123  NZ        26.7630  -15.0250   21.5850 N.3   361  LYS361     -0.1314
@<TRIPOS>BOND
     1    14    13    2
     2    13    12    1
     3    11    12    1
     4    12    15    1
     5    15    16    1
     6    49    48    1
     7    48    45    1
     8    45    44    1
     9    45    46    1
    10    16    17    1
    11    18    17   ar
    12    17    19   ar
    13    46    47    2
    14    39    38    2
    15    57    58    1
    16    57    56    1
    17    38    37    1
    18    27    25   ar
    19    55    56    1
    20    55    54    1
    21    40    37    1
    22    40    41    1
    23    24    25    1
    24    24    21    1
    25    25    26   ar
    26    54    51    1
    27    37    36    1
    28    50    51    1
    29    42    41    1
    30    41    43    1
    31    51    52    1
    32    20    21    1
    33    21    22    1
    34    23    22    2
    35    53    52    2
    36    22    28   am
    37    28    29    1
    38    30    31    2
    39    30    29    1
    40    91    90    2
    41    94    92    1
    42    32    29    1
    43    32    33    1
    44    90    89    1
    45   118   117    2
    46    35    33   ar
    47    33    34   ar
    48    92    89    1
    49    92    93    1
    50   121   122    1
    51   121   120    1
    52   119   120    1
    53   119   116    1
    54    89    88    1
    55   117   116    1
    56   122   123    1
    57     9     7   ar
    58     9    10   ar
    59     7     6   ar
    60    95    93    1
    61   116   115    1
    62    87    85   ar
    63    82    81    2
    64    84    85    1
    65    84    83    1
    66    10     8   ar
    67    78    76   am
    68     6     5    1
    69     6     8   ar
    70    85    86   ar
    71    81    80    1
    72     5     2    1
    73    83    80    1
    74     2     3    1
    75     2     1    1
    76   105   104    2
    77    76    77    2
    78    76    75    1
    79    80    79    1
    80     3     4    2
    81   103   104    1
    82   103   102    1
    83   104   106   am
    84    75    74    1
    85   106   107    1
    86   107   108    1
    87   107   110    1
    88   109   108    2
    89   102    98   am
    90    62    61    2
    91    74    71    1
    92   111   110    1
    93   111   112    1
    94    61    60    1
    95    71    72    1
    96    71    70    1
    97    98    99    2
    98    98    97    1
    99    60    59    1
   100   112   113   ar
   101   112   114   ar
   102    73    72    2
   103    69    67    1
   104    70    65   am
   105   100    97    1
   106   100   101    1
   107    97    96    1
   108    65    66    2
   109    65    64    1
   110    67    64    1
   111    67    68    1
   112    64    63    1
