@<TRIPOS>MOLECULE
tmp/6b6uA02.pdb
 98 92 0 0 0
SMALL
GASTEIGER

@<TRIPOS>ATOM
      1  N         -2.2580    0.8090   46.6980 N.3    20  PHE20      -0.1241
      2  CA        -1.3750    0.6190   45.5580 C.3    20  PHE20       0.1605
      3  C         -1.7770    1.5250   44.3970 C.2    20  PHE20       0.2264
      4  O         -0.9140    2.0840   43.7020 O.2    20  PHE20      -0.2867
      5  CB        -1.3640   -0.8360   45.1070 C.3    20  PHE20       0.0534
      6  CG        -0.3830   -1.0690   43.9910 C.ar   20  PHE20      -0.0203
      7  CD1        0.9710   -1.1160   44.2500 C.ar   20  PHE20      -0.0042
      8  CD2       -0.7970   -1.1280   42.6730 C.ar   20  PHE20      -0.0042
      9  CE1        1.8900   -1.2880   43.2320 C.ar   20  PHE20      -0.0003
     10  CE2        0.1240   -1.2850   41.6460 C.ar   20  PHE20      -0.0003
     11  CZ         1.4580   -1.3580   41.9290 C.ar   20  PHE20      -0.0000
     12  N          0.7140    4.2150   42.5150 N.3    24  MET24      -0.1245
     13  CA         0.9570    4.4380   41.0920 C.3    24  MET24       0.1570
     14  C          0.7250    5.8950   40.7080 C.2    24  MET24       0.2261
     15  O          1.5210    6.4930   39.9710 O.2    24  MET24      -0.2867
     16  CB         0.0310    3.5650   40.2570 C.3    24  MET24       0.0387
     17  CG         0.2650    2.0850   40.4010 C.3    24  MET24       0.0595
     18  SD        -0.9560    1.1580   39.4230 S.3    24  MET24      -0.1393
     19  CE        -0.4440    1.5810   37.7570 C.3    24  MET24       0.0692
     20  N          6.2760  -14.2100   36.8340 N.3   305  LYS305     -0.1245
     21  CA         5.7790  -13.6520   38.0820 C.3   305  LYS305      0.1561
     22  C          5.5690  -14.7400   39.1280 C.2   305  LYS305      0.2260
     23  O          5.8310  -14.5190   40.3150 O.2   305  LYS305     -0.2867
     24  CB         4.5300  -12.8380   37.7890 C.3   305  LYS305      0.0271
     25  CG         4.8670  -11.5600   37.0080 C.3   305  LYS305      0.0035
     26  CD         3.6380  -10.9250   36.3450 C.3   305  LYS305      0.0206
     27  CE         3.9770   -9.7280   35.4920 C.3   305  LYS305      0.1093
     28  NZ         4.3030   -8.5070   36.2540 N.3   305  LYS305     -0.1314
     29  N          9.7960   -3.6360   35.0940 N.3   344  ASN344     -0.1240
     30  CA         8.8180   -4.5430   35.6680 C.3   344  ASN344      0.1653
     31  C          9.4640   -5.7770   36.2720 C.2   344  ASN344      0.2266
     32  O          8.8930   -6.3650   37.1970 O.2   344  ASN344     -0.2867
     33  CB         7.7530   -4.9080   34.6350 C.3   344  ASN344      0.1155
     34  CG         6.7050   -3.8440   34.5030 C.2   344  ASN344      0.2627
     35  OD1        6.0670   -3.4830   35.4780 O.2   344  ASN344     -0.2716
     36  ND2        6.5130   -3.3380   33.3210 N.am  344  ASN344     -0.0877
     37  N         10.2670   -4.4800   39.6540 N.3   347  LEU347     -0.1231
     38  CA         9.0410   -4.3410   40.4370 C.3   347  LEU347      0.1693
     39  C          8.4420   -5.6940   40.7950 C.2   347  LEU347      0.2592
     40  O          7.8630   -5.8430   41.8740 O.2   347  LEU347     -0.2718
     41  CB         8.0080   -3.4940   39.6860 C.3   347  LEU347      0.0284
     42  CG         8.4430   -2.0710   39.3790 C.3   347  LEU347      0.0019
     43  CD1        7.4870   -1.4010   38.4010 C.3   347  LEU347      0.0001
     44  CD2        8.5420   -1.2360   40.6520 C.3   347  LEU347      0.0001
     45  N          8.5800   -6.6920   39.9240 N.am  348  ASP348     -0.1974
     46  CA         8.0830   -8.0270   40.2340 C.3   348  ASP348      0.1709
     47  C          8.7960   -8.5980   41.4450 C.2   348  ASP348      0.2293
     48  O          8.2070   -9.3870   42.1890 O.2   348  ASP348     -0.2864
     49  CB         8.3830   -9.0100   39.1000 C.3   348  ASP348      0.1436
     50  CG         7.4780   -8.8800   37.8900 C.2   348  ASP348      0.3671
     51  OD1        6.4060   -8.2640   37.9740 O.co2 348  ASP348     -0.2456
     52  OD2        7.8630   -9.4230   36.8250 O.co2 348  ASP348     -0.2456
     53  N          9.2050    0.6910   43.9610 N.3   383  ILE383     -0.1231
     54  CA         8.6090   -0.4310   44.6650 C.3   383  ILE383      0.1692
     55  C          7.7390    0.0830   45.8010 C.2   383  ILE383      0.2592
     56  O          8.0980    1.0300   46.5060 O.2   383  ILE383     -0.2718
     57  CB         9.7350   -1.3430   45.1810 C.3   383  ILE383      0.0266
     58  CG1       10.4090   -2.0620   44.0100 C.3   383  ILE383      0.0019
     59  CG2        9.2080   -2.3590   46.1950 C.3   383  ILE383      0.0020
     60  CD1       11.6830   -2.7480   44.3860 C.3   383  ILE383      0.0001
     61  N          6.5880   -0.5540   45.9790 N.am  384  TYR384     -0.1976
     62  CA         5.6780   -0.2030   47.0670 C.3   384  TYR384      0.1639
     63  C          6.0650   -1.0120   48.3010 C.2   384  TYR384      0.2290
     64  O          5.4410   -2.0100   48.6470 O.2   384  TYR384     -0.2864
     65  CB         4.2440   -0.4680   46.6480 C.3   384  TYR384      0.0560
     66  CG         3.1630    0.0700   47.5660 C.ar  384  TYR384     -0.0198
     67  CD1        3.3000    1.2840   48.2220 C.ar  384  TYR384     -0.0009
     68  CD2        1.9800   -0.6260   47.7240 C.ar  384  TYR384     -0.0009
     69  CE1        2.2610    1.7900   49.0160 C.ar  384  TYR384      0.0417
     70  CE2        0.9490   -0.1400   48.5020 C.ar  384  TYR384      0.0417
     71  CZ         1.0980    1.0550   49.1540 C.ar  384  TYR384      0.1957
     72  OH         0.0530    1.5120   49.9320 O.3   384  TYR384     -0.2866
     73  N          3.5210   -2.3000   51.2110 N.3   387  GLN387     -0.1231
     74  CA         2.8050   -3.5580   51.0390 C.3   387  GLN387      0.1698
     75  C          3.7580   -4.7480   50.9810 C.2   387  GLN387      0.2592
     76  O          3.4980   -5.7870   51.5870 O.2   387  GLN387     -0.2718
     77  CB         1.9450   -3.4990   49.7760 C.3   387  GLN387      0.0381
     78  CG         1.1850   -4.7730   49.5330 C.3   387  GLN387      0.0905
     79  CD         0.0130   -4.6130   48.5900 C.2   387  GLN387      0.2608
     80  OE1       -0.2500   -3.5290   48.0640 O.2   387  GLN387     -0.2717
     81  NE2       -0.7110   -5.6930   48.3840 N.am  387  GLN387     -0.0878
     82  N          4.8620   -4.6200   50.2460 N.am  388  LEU388     -0.1980
     83  CA         5.7790   -5.7420   50.0840 C.3   388  LEU388      0.1596
     84  C          6.3180   -6.2280   51.4230 C.2   388  LEU388      0.2287
     85  O          6.3120   -7.4310   51.7060 O.2   388  LEU388     -0.2864
     86  CB         6.9210   -5.3240   49.1680 C.3   388  LEU388      0.0297
     87  CG         7.9840   -6.3940   48.9760 C.3   388  LEU388      0.0022
     88  CD1        7.3950   -7.6560   48.3490 C.3   388  LEU388      0.0001
     89  CD2        9.1060   -5.8560   48.1210 C.3   388  LEU388      0.0001
     90  N          3.7260   -8.0550   53.4670 N.3   391  GLU391     -0.1245
     91  CA         3.4020   -9.3930   52.9830 C.3   391  GLU391      0.1567
     92  C          4.5480  -10.3670   53.2290 C.2   391  GLU391      0.2260
     93  O          4.3190  -11.5150   53.6270 O.2   391  GLU391     -0.2867
     94  CB         3.0040   -9.3240   51.5100 C.3   391  GLU391      0.0388
     95  CG         1.7410   -8.5040   51.3170 C.3   391  GLU391      0.1160
     96  CD         1.1960   -8.5410   49.9130 C.2   391  GLU391      0.3649
     97  OE1        1.9220   -8.9780   49.0120 O.co2 391  GLU391     -0.2457
     98  OE2        0.0230   -8.1440   49.7320 O.co2 391  GLU391     -0.2457
@<TRIPOS>BOND
     1    36    34   am
     2    34    33    1
     3    34    35    2
     4    33    30    1
     5    29    30    1
     6    27    28    1
     7    27    26    1
     8    30    31    1
     9    31    32    2
    10    26    25    1
    11    52    50   ar
    12    20    21    1
    13    25    24    1
    14    19    18    1
    15    24    21    1
    16    50    51   ar
    17    50    49    1
    18    21    22    1
    19    43    42    1
    20    49    46    1
    21    22    23    2
    22    42    41    1
    23    42    44    1
    24    18    17    1
    25    37    38    1
    26    41    38    1
    27    45    46    1
    28    45    39   am
    29    15    14    2
    30    46    47    1
    31    16    17    1
    32    16    13    1
    33    38    39    1
    34    14    13    1
    35    39    40    2
    36    13    12    1
    37    47    48    2
    38    10    11   ar
    39    10     8   ar
    40    11     9   ar
    41     8     6   ar
    42     9     7   ar
    43     4     3    2
    44    53    54    1
    45     6     7   ar
    46     6     5    1
    47    58    60    1
    48    58    57    1
    49     3     2    1
    50    54    57    1
    51    54    55    1
    52     5     2    1
    53    57    59    1
    54     2     1    1
    55    55    61   am
    56    55    56    2
    57    61    62    1
    58    65    62    1
    59    65    66    1
    60    62    63    1
    61    66    68   ar
    62    66    67   ar
    63    68    70   ar
    64    80    79    2
    65    89    87    1
    66    67    69   ar
    67    63    64    2
    68    88    87    1
    69    81    79   am
    70    70    71   ar
    71    79    78    1
    72    87    86    1
    73    97    96   ar
    74    69    71   ar
    75    71    72    1
    76    86    83    1
    77    78    77    1
    78    98    96   ar
    79    77    74    1
    80    96    95    1
    81    83    82    1
    82    83    84    1
    83    82    75   am
    84    75    74    1
    85    75    76    2
    86    74    73    1
    87    95    94    1
    88    84    85    2
    89    94    91    1
    90    91    92    1
    91    91    90    1
    92    92    93    2
