@<TRIPOS>MOLECULE
tmp/6b73A01.pdb
 84 78 0 0 0
SMALL
GASTEIGER

@<TRIPOS>ATOM
      1  N         70.7200  -18.8730    6.9020 N.3   227  VAL227     -0.1231
      2  CA        71.5880  -18.3660    5.8360 C.3   227  VAL227      0.1692
      3  C         72.2080  -19.5550    5.0660 C.2   227  VAL227      0.2591
      4  O         72.0950  -19.5970    3.8460 O.2   227  VAL227     -0.2718
      5  CB        72.6840  -17.4060    6.3840 C.3   227  VAL227      0.0266
      6  CG1       73.7260  -17.0680    5.3160 C.3   227  VAL227      0.0020
      7  CG2       72.0600  -16.1330    6.9470 C.3   227  VAL227      0.0020
      8  N         72.8230  -20.5200    5.7720 N.am  228  VAL228     -0.1980
      9  CA        73.4810  -21.6820    5.1630 C.3   228  VAL228      0.1595
     10  C         72.4690  -22.4780    4.2860 C.2   228  VAL228      0.2287
     11  O         72.8550  -22.9510    3.2220 O.2   228  VAL228     -0.2864
     12  CB        74.1440  -22.6110    6.2370 C.3   228  VAL228      0.0276
     13  CG1       74.6490  -23.9160    5.6340 C.3   228  VAL228      0.0022
     14  CG2       75.2840  -21.8980    6.9600 C.3   228  VAL228      0.0022
     15  N         70.3140  -19.3330    1.3290 N.3   231  THR231     -0.1204
     16  CA        71.1860  -18.5740    0.4130 C.3   231  THR231      0.1979
     17  C         71.5920  -19.4130   -0.8360 C.2   231  THR231      0.2459
     18  O         71.5790  -18.8360   -1.9240 O.2   231  THR231     -0.2732
     19  CB        72.4560  -18.0800    1.1320 C.3   231  THR231      0.1783
     20  OG1       72.0830  -17.3470    2.2980 O.3   231  THR231     -0.2211
     21  CG2       73.3550  -17.2230    0.2460 C.3   231  THR231      0.0376
     22  N         71.9360  -20.7360   -0.7550 N.am  232  PRO232     -0.2728
     23  CA        72.3720  -21.4400   -1.9750 C.3   232  PRO232      0.1401
     24  C         71.2790  -21.5690   -3.0310 C.2   232  PRO232      0.2269
     25  O         71.5380  -21.2770   -4.2000 O.2   232  PRO232     -0.2865
     26  CB        72.7630  -22.8370   -1.4680 C.3   232  PRO232      0.0296
     27  CG        72.9770  -22.6880   -0.0360 C.3   232  PRO232      0.0237
     28  CD        72.0410  -21.6250    0.4220 C.3   232  PRO232      0.0939
     29  N         69.8460  -18.0470   -4.6230 N.3   235  ILE235     -0.1231
     30  CA        70.8190  -17.5400   -5.5930 C.3   235  ILE235      0.1692
     31  C         70.8150  -18.4380   -6.8360 C.2   235  ILE235      0.2592
     32  O         70.8080  -17.9110   -7.9470 O.2   235  ILE235     -0.2718
     33  CB        72.2460  -17.4380   -4.9620 C.3   235  ILE235      0.0266
     34  CG1       72.2860  -16.4090   -3.7910 C.3   235  ILE235      0.0019
     35  CG2       73.3340  -17.1190   -6.0060 C.3   235  ILE235      0.0020
     36  CD1       71.9010  -14.8820   -4.1320 C.3   235  ILE235      0.0001
     37  N         70.7780  -19.7740   -6.6550 N.am  236  PHE236     -0.1976
     38  CA        70.7960  -20.7180   -7.7760 C.3   236  PHE236      0.1639
     39  C         69.5960  -20.4720   -8.7060 C.2   236  PHE236      0.2290
     40  O         69.7930  -20.3120   -9.9110 O.2   236  PHE236     -0.2864
     41  CB        70.7980  -22.1690   -7.2800 C.3   236  PHE236      0.0560
     42  CG        71.3090  -23.1530   -8.3060 C.ar  236  PHE236     -0.0200
     43  CD1       70.4960  -23.5840   -9.3490 C.ar  236  PHE236     -0.0042
     44  CD2       72.5890  -23.6820   -8.2060 C.ar  236  PHE236     -0.0042
     45  CE1       70.9750  -24.4840  -10.3060 C.ar  236  PHE236     -0.0003
     46  CE2       73.0560  -24.6070   -9.1470 C.ar  236  PHE236     -0.0003
     47  CZ        72.2460  -25.0000  -10.1910 C.ar  236  PHE236     -0.0000
     48  N         69.9390  -16.9140  -10.4380 N.3   239  VAL239     -0.1245
     49  CA        70.9800  -16.9130  -11.4810 C.3   239  VAL239      0.1561
     50  C         70.4990  -17.7520  -12.6950 C.2   239  VAL239      0.2260
     51  O         70.6460  -17.2910  -13.8290 O.2   239  VAL239     -0.2867
     52  CB        72.3510  -17.4140  -10.9510 C.3   239  VAL239      0.0252
     53  CG1       73.3550  -17.6060  -12.0820 C.3   239  VAL239      0.0019
     54  CG2       72.9140  -16.4530   -9.9060 C.3   239  VAL239      0.0019
     55  N         71.1250  -20.5600  -17.0090 N.3   244  THR244     -0.1203
     56  CA        72.5420  -20.8120  -16.8240 C.3   244  THR244      0.1994
     57  C         72.9570  -22.0160  -17.6430 C.2   244  THR244      0.2618
     58  O         73.0570  -21.9440  -18.8610 O.2   244  THR244     -0.2717
     59  CB        72.8810  -21.0690  -15.3500 C.3   244  THR244      0.1784
     60  OG1       71.9960  -22.0570  -14.8070 O.3   244  THR244     -0.2211
     61  CG2       72.7890  -19.7880  -14.5430 C.3   244  THR244      0.0376
     62  N         73.1700  -23.1340  -16.9680 N.am  245  SER245     -0.1951
     63  CA        73.5810  -24.3570  -17.6310 C.3   245  SER245      0.1924
     64  C         72.6730  -25.4850  -17.2120 C.2   245  SER245      0.2314
     65  O         72.0060  -25.4000  -16.1970 O.2   245  SER245     -0.2863
     66  CB        75.0180  -24.7030  -17.2540 C.3   245  SER245      0.2116
     67  OG        75.2380  -26.0960  -17.3220 O.3   245  SER245     -0.2180
     68  N         75.4350  -29.5990  -12.6750 N.3   250  ALA250     -0.1245
     69  CA        74.5840  -28.4240  -12.4510 C.3   250  ALA250      0.1562
     70  C         73.1890  -28.8420  -11.9550 C.2   250  ALA250      0.2260
     71  O         72.5970  -28.1440  -11.1280 O.2   250  ALA250     -0.2867
     72  CB        74.4640  -27.6100  -13.7290 C.3   250  ALA250      0.0290
     73  N         73.8660  -30.3270   -8.2870 N.3   253  SER253     -0.1217
     74  CA        74.1050  -29.2310   -7.3560 C.3   253  SER253      0.1889
     75  C         72.7940  -28.5190   -7.0130 C.2   253  SER253      0.2288
     76  O         72.5930  -28.1940   -5.8430 O.2   253  SER253     -0.2866
     77  CB        75.1140  -28.2440   -7.9250 C.3   253  SER253      0.2089
     78  OG        74.6370  -27.6980   -9.1380 O.3   253  SER253     -0.2183
     79  N         71.0220  -28.1290   -3.3330 N.3   257  CYS257     -0.1235
     80  CA        70.6030  -26.8270   -2.8000 C.3   257  CYS257      0.1677
     81  C         69.1360  -26.8850   -2.3770 C.2   257  CYS257      0.2270
     82  O         68.7690  -26.2350   -1.3930 O.2   257  CYS257     -0.2867
     83  CB        70.8390  -25.7190   -3.8170 C.3   257  CYS257      0.0956
     84  SG        72.5780  -25.4800   -4.2510 S.3   257  CYS257     -0.0801
@<TRIPOS>BOND
     1    58    57    2
     2    57    62   am
     3    57    56    1
     4    63    66    1
     5    63    64    1
     6    63    62    1
     7    67    66    1
     8    64    65    2
     9    55    56    1
    10    56    59    1
    11    59    60    1
    12    59    61    1
    13    51    50    2
    14    72    69    1
    15    50    49    1
    16    68    69    1
    17    69    70    1
    18    53    52    1
    19    70    71    2
    20    49    52    1
    21    49    48    1
    22    52    54    1
    23    45    47   ar
    24    45    43   ar
    25    47    46   ar
    26    40    39    2
    27    43    42   ar
    28    46    44   ar
    29    78    77    1
    30    39    38    1
    31    42    44   ar
    32    42    41    1
    33    73    74    1
    34    32    31    2
    35    77    74    1
    36    38    41    1
    37    38    37    1
    38    74    75    1
    39    75    76    2
    40    31    37   am
    41    31    30    1
    42    35    33    1
    43    30    33    1
    44    30    29    1
    45    33    34    1
    46    84    83    1
    47    25    24    2
    48    36    34    1
    49    83    80    1
    50    79    80    1
    51    24    23    1
    52    80    81    1
    53    81    82    2
    54    23    26    1
    55    23    22    1
    56    18    17    2
    57    26    27    1
    58    17    22   am
    59    17    16    1
    60    22    28    1
    61    27    28    1
    62    21    19    1
    63    16    19    1
    64    16    15    1
    65    19    20    1
    66    11    10    2
    67     4     3    2
    68    10     9    1
    69     3     8   am
    70     3     2    1
    71     9     8    1
    72     9    12    1
    73     6     5    1
    74    13    12    1
    75     2     5    1
    76     2     1    1
    77    12    14    1
    78     5     7    1
