@<TRIPOS>MOLECULE
tmp/6b73A00.pdb
 208 199 0 0 0
SMALL
GASTEIGER

@<TRIPOS>ATOM
      1  N         56.1270  -28.9240    4.7000 N.3    58  VAL58      -0.1245
      2  CA        57.0700  -28.6150    3.6180 C.3    58  VAL58       0.1561
      3  C         57.8630  -29.8660    3.2730 C.2    58  VAL58       0.2260
      4  O         58.1650  -30.0640    2.1000 O.2    58  VAL58      -0.2867
      5  CB        58.0280  -27.4290    3.8700 C.3    58  VAL58       0.0252
      6  CG1       57.3040  -26.1000    3.8070 C.3    58  VAL58       0.0019
      7  CG2       58.7950  -27.5740    5.1650 C.3    58  VAL58       0.0019
      8  N         56.3580  -32.4220    0.6110 N.3    61  THR61      -0.1218
      9  CA        56.5980  -32.1930   -0.8200 C.3    61  THR61       0.1862
     10  C         57.9420  -32.7850   -1.2760 C.2    61  THR61       0.2287
     11  O         58.1080  -33.0830   -2.4530 O.2    61  THR61      -0.2866
     12  CB        56.5740  -30.6650   -1.1380 C.3    61  THR61       0.1770
     13  OG1       57.6930  -29.9980   -0.5390 O.3    61  THR61      -0.2211
     14  CG2       55.2660  -29.9890   -0.7400 C.3    61  THR61       0.0375
     15  N         58.6680  -35.6590   -3.8650 N.3    64  PHE64      -0.1227
     16  CA        58.3430  -35.2700   -5.2390 C.3    64  PHE64       0.1736
     17  C         59.5760  -34.6860   -5.9220 C.2    64  PHE64       0.2595
     18  O         59.8380  -35.0400   -7.0640 O.2    64  PHE64      -0.2718
     19  CB        57.1720  -34.2750   -5.2900 C.3    64  PHE64       0.0547
     20  CG        55.8540  -34.8340   -4.7990 C.ar   64  PHE64      -0.0202
     21  CD1       55.5100  -34.7740   -3.4510 C.ar   64  PHE64      -0.0042
     22  CD2       54.9420  -35.3880   -5.6880 C.ar   64  PHE64      -0.0042
     23  CE1       54.2870  -35.2830   -2.9990 C.ar   64  PHE64      -0.0003
     24  CE2       53.7260  -35.9090   -5.2340 C.ar   64  PHE64      -0.0003
     25  CZ        53.4030  -35.8440   -3.8940 C.ar   64  PHE64      -0.0000
     26  N         60.3620  -33.8430   -5.2120 N.am   65  GLN65      -0.1979
     27  CA        61.6170  -33.2630   -5.7370 C.3    65  GLN65       0.1601
     28  C         62.6200  -34.3730   -6.0670 C.2    65  GLN65       0.2287
     29  O         63.2170  -34.3780   -7.1470 O.2    65  GLN65      -0.2864
     30  CB        62.2400  -32.2740   -4.7270 C.3    65  GLN65       0.0394
     31  CG        61.4120  -31.0370   -4.3680 C.3    65  GLN65       0.0908
     32  CD        61.4060  -29.9210   -5.3820 C.2    65  GLN65       0.2608
     33  OE1       61.5380  -30.1280   -6.5940 O.2    65  GLN65      -0.2717
     34  NE2       61.2190  -28.6920   -4.8880 N.am   65  GLN65      -0.0878
     35  N         61.4410  -36.3870   -9.2610 N.3    68  VAL68      -0.1245
     36  CA        61.5560  -35.5460  -10.4610 C.3    68  VAL68       0.1561
     37  C         63.0320  -35.4520  -10.8920 C.2    68  VAL68       0.2260
     38  O         63.3020  -35.5110  -12.0890 O.2    68  VAL68      -0.2867
     39  CB        60.9400  -34.1360  -10.2380 C.3    68  VAL68       0.0252
     40  CG1       61.2700  -33.1820  -11.3820 C.3    68  VAL68       0.0019
     41  CG2       59.4320  -34.2240  -10.0500 C.3    68  VAL68       0.0019
     42  N         57.6740  -34.9490  -15.0620 N.3    74  TRP74      -0.1241
     43  CA        56.4990  -34.9360  -14.1900 C.3    74  TRP74       0.1605
     44  C         55.3340  -35.6160  -14.9330 C.2    74  TRP74       0.2264
     45  O         54.6180  -34.9590  -15.6930 O.2    74  TRP74      -0.2867
     46  CB        56.1320  -33.5130  -13.7260 C.3    74  TRP74       0.0550
     47  CG        54.9410  -33.4760  -12.8090 C.ar   74  TRP74       0.0003
     48  CD1       53.6270  -33.4490  -13.1730 C.ar   74  TRP74       0.0946
     49  CD2       54.9620  -33.4310  -11.3760 C.ar   74  TRP74       0.0152
     50  NE1       52.8280  -33.4420  -12.0560 N.ar   74  TRP74      -0.2442
     51  CE2       53.6190  -33.4080  -10.9390 C.ar   74  TRP74       0.0810
     52  CE3       55.9870  -33.3890  -10.4140 C.ar   74  TRP74       0.0012
     53  CZ2       53.2730  -33.3680   -9.5800 C.ar   74  TRP74       0.0191
     54  CZ3       55.6440  -33.3450   -9.0690 C.ar   74  TRP74       0.0001
     55  CH2       54.3020  -33.3290   -8.6640 C.ar   74  TRP74       0.0015
     56  N         50.8900  -30.0020   -5.2750 N.3    84  VAL84      -0.1231
     57  CA        52.2620  -30.1350   -4.7690 C.3    84  VAL84       0.1692
     58  C         52.9750  -28.7620   -4.7850 C.2    84  VAL84       0.2591
     59  O         53.6340  -28.4320   -3.7940 O.2    84  VAL84      -0.2718
     60  CB        53.0540  -31.1890   -5.5750 C.3    84  VAL84       0.0266
     61  CG1       54.5090  -31.2350   -5.1560 C.3    84  VAL84       0.0020
     62  CG2       52.4280  -32.5670   -5.4140 C.3    84  VAL84       0.0020
     63  N         52.8150  -27.9550   -5.8580 N.am   85  LEU85      -0.1980
     64  CA        53.4440  -26.6270   -5.9090 C.3    85  LEU85       0.1596
     65  C         52.8860  -25.7020   -4.8200 C.2    85  LEU85       0.2287
     66  O         53.6720  -25.0600   -4.1270 O.2    85  LEU85      -0.2864
     67  CB        53.2790  -25.9430   -7.2850 C.3    85  LEU85       0.0297
     68  CG        54.0430  -26.5300   -8.4840 C.3    85  LEU85       0.0022
     69  CD1       53.6160  -25.8570   -9.7700 C.3    85  LEU85       0.0001
     70  CD2       55.5700  -26.4200   -8.3010 C.3    85  LEU85       0.0001
     71  N         54.2130  -26.5540   -1.4220 N.3    88  ASP88      -0.1225
     72  CA        55.6410  -26.2310   -1.3970 C.3    88  ASP88       0.1805
     73  C         55.8510  -24.7230   -1.1280 C.2    88  ASP88       0.2597
     74  O         56.6340  -24.3890   -0.2390 O.2    88  ASP88      -0.2718
     75  CB        56.3150  -26.6500   -2.7200 C.3    88  ASP88       0.1424
     76  CG        57.8360  -26.7440   -2.6780 C.2    88  ASP88       0.3668
     77  OD1       58.3920  -26.9420   -1.5710 O.co2  88  ASP88      -0.2456
     78  OD2       58.4620  -26.7470   -3.7620 O.co2  88  ASP88      -0.2456
     79  N         55.1090  -23.8290   -1.8450 N.am   89  TYR89      -0.1976
     80  CA        55.1600  -22.3630   -1.6950 C.3    89  TYR89       0.1639
     81  C         54.5010  -21.8690   -0.4040 C.2    89  TYR89       0.2290
     82  O         55.1460  -21.1450    0.3540 O.2    89  TYR89      -0.2864
     83  CB        54.4760  -21.6450   -2.8710 C.3    89  TYR89       0.0560
     84  CG        55.3210  -21.4970   -4.1150 C.ar   89  TYR89      -0.0198
     85  CD1       56.2220  -20.4470   -4.2450 C.ar   89  TYR89      -0.0009
     86  CD2       55.1120  -22.3120   -5.2220 C.ar   89  TYR89      -0.0009
     87  CE1       56.9670  -20.2700   -5.4100 C.ar   89  TYR89       0.0417
     88  CE2       55.8450  -22.1410   -6.3970 C.ar   89  TYR89       0.0417
     89  CZ        56.7650  -21.1120   -6.4900 C.ar   89  TYR89       0.1957
     90  OH        57.4830  -20.9320   -7.6490 O.3    89  TYR89      -0.2866
     91  N         56.3120  -22.5230    2.6560 N.3    92  MET92      -0.1245
     92  CA        57.6560  -21.9270    2.6640 C.3    92  MET92       0.1570
     93  C         57.5970  -20.5890    3.3820 C.2    92  MET92       0.2261
     94  O         58.3910  -20.3490    4.2880 O.2    92  MET92      -0.2867
     95  CB        58.2310  -21.7660    1.2510 C.3    92  MET92       0.0387
     96  CG        59.5950  -21.0980    1.2350 C.3    92  MET92       0.0595
     97  SD        60.0340  -20.5060   -0.4100 S.3    92  MET92      -0.1393
     98  CE        61.5500  -19.7930   -0.0750 C.3    92  MET92       0.0692
     99  N         56.8470  -29.5550  -14.3070 N.3   157  CYS157     -0.1221
    100  CA        55.8380  -28.9960  -13.3940 C.3   157  CYS157      0.1808
    101  C         56.3820  -27.6890  -12.8170 C.2   157  CYS157      0.2601
    102  O         57.4500  -27.7010  -12.2050 O.2   157  CYS157     -0.2717
    103  CB        55.4710  -30.0000  -12.2990 C.3   157  CYS157      0.0970
    104  SG        54.3940  -29.3430  -10.9850 S.3   157  CYS157     -0.0800
    105  N         55.7000  -26.5510  -13.0960 N.am  158  SER158     -0.1952
    106  CA        56.0960  -25.1980  -12.6580 C.3   158  SER158      0.1924
    107  C         54.9470  -24.2100  -12.7600 C.2   158  SER158      0.2314
    108  O         53.9070  -24.5420  -13.3300 O.2   158  SER158     -0.2863
    109  CB        57.2640  -24.6740  -13.5020 C.3   158  SER158      0.2116
    110  OG        58.4440  -25.4490  -13.3760 O.3   158  SER158     -0.2180
    111  N         59.9570  -14.6140   -9.4610 N.3   174  LYS174     -0.1245
    112  CA        61.1110  -15.1180   -8.7310 C.3   174  LYS174      0.1561
    113  C         61.8150  -14.0260   -7.9260 C.2   174  LYS174      0.2260
    114  O         62.3650  -14.3010   -6.8600 O.2   174  LYS174     -0.2867
    115  CB        62.1010  -15.7810   -9.6910 C.3   174  LYS174      0.0271
    116  CG        61.6110  -17.0940  -10.2800 C.3   174  LYS174      0.0035
    117  CD        62.5810  -17.6290  -11.3200 C.3   174  LYS174      0.0206
    118  CE        62.1580  -19.0030  -11.8140 C.3   174  LYS174      0.1093
    119  NZ        61.8270  -18.9940  -13.2660 N.3   174  LYS174     -0.1314
    120  N         59.6240  -13.4490   -4.7660 N.3   177  VAL177     -0.1245
    121  CA        59.8560  -14.5410   -3.8260 C.3   177  VAL177      0.1561
    122  C         61.2120  -14.3040   -3.1300 C.2   177  VAL177      0.2260
    123  O         61.2750  -14.3840   -1.9140 O.2   177  VAL177     -0.2867
    124  CB        59.7840  -15.9420   -4.5070 C.3   177  VAL177      0.0252
    125  CG1       60.1280  -17.0630   -3.5240 C.3   177  VAL177      0.0019
    126  CG2       58.4100  -16.1850   -5.1190 C.3   177  VAL177      0.0019
    127  N         69.1100  -21.3510    3.0190 N.3   230  TRP230     -0.1241
    128  CA        68.3220  -20.6840    1.9770 C.3   230  TRP230      0.1605
    129  C         69.1670  -19.9320    0.9390 C.2   230  TRP230      0.2264
    130  O         68.7590  -19.8980   -0.2220 O.2   230  TRP230     -0.2867
    131  CB        67.3340  -19.6940    2.5750 C.3   230  TRP230      0.0550
    132  CG        66.2240  -20.3580    3.3250 C.ar  230  TRP230      0.0003
    133  CD1       66.0840  -20.4440    4.6770 C.ar  230  TRP230      0.0946
    134  CD2       65.1720  -21.1530    2.7630 C.ar  230  TRP230      0.0152
    135  NE1       64.9530  -21.1580    4.9920 N.ar  230  TRP230     -0.2442
    136  CE2       64.3820  -21.6210    3.8360 C.ar  230  TRP230      0.0810
    137  CE3       64.7860  -21.4740    1.4470 C.ar  230  TRP230      0.0012
    138  CZ2       63.2360  -22.4020    3.6390 C.ar  230  TRP230      0.0191
    139  CZ3       63.6510  -22.2440    1.2520 C.ar  230  TRP230      0.0001
    140  CH2       62.8800  -22.6860    2.3380 C.ar  230  TRP230      0.0015
    141  N         70.0730  -22.0010   -2.6270 N.3   233  ILE233     -0.1231
    142  CA        68.9960  -22.2890   -3.5590 C.3   233  ILE233      0.1692
    143  C         68.3470  -20.9710   -4.0700 C.2   233  ILE233      0.2592
    144  O         68.0090  -20.9250   -5.2520 O.2   233  ILE233     -0.2718
    145  CB        67.9340  -23.2470   -2.9440 C.3   233  ILE233      0.0266
    146  CG1       66.9180  -23.7120   -4.0080 C.3   233  ILE233      0.0019
    147  CG2       67.2480  -22.6970   -1.6820 C.3   233  ILE233      0.0020
    148  CD1       67.5680  -24.4060   -5.2450 C.3   233  ILE233      0.0001
    149  N         68.2110  -19.9130   -3.2290 N.am  234  HIS234     -0.1976
    150  CA        67.6460  -18.6320   -3.6960 C.3   234  HIS234      0.1656
    151  C         68.5100  -18.0380   -4.8100 C.2   234  HIS234      0.2291
    152  O         67.9710  -17.6510   -5.8460 O.2   234  HIS234     -0.2864
    153  CB        67.4780  -17.6100   -2.5610 C.3   234  HIS234      0.0771
    154  CG        66.2190  -17.7970   -1.7770 C.ar  234  HIS234      0.0820
    155  ND1       65.0200  -17.2600   -2.2090 N.ar  234  HIS234     -0.2267
    156  CD2       66.0140  -18.4250   -0.5960 C.ar  234  HIS234      0.1154
    157  CE1       64.1260  -17.5920   -1.2930 C.ar  234  HIS234      0.1986
    158  NE2       64.6770  -18.2890   -0.3020 N.ar  234  HIS234     -0.2212
    159  N         68.3720  -20.3890   -8.1330 N.3   237  ILE237     -0.1245
    160  CA        67.1250  -20.1370   -8.8620 C.3   237  ILE237      0.1561
    161  C         67.2170  -18.7850   -9.6040 C.2   237  ILE237      0.2260
    162  O         66.9250  -18.7280  -10.8030 O.2   237  ILE237     -0.2867
    163  CB        65.9010  -20.1730   -7.8870 C.3   237  ILE237      0.0252
    164  CG1       65.7140  -21.5920   -7.3090 C.3   237  ILE237      0.0019
    165  CG2       64.6070  -19.7030   -8.5810 C.3   237  ILE237      0.0019
    166  CD1       64.6290  -21.7560   -6.2910 C.3   237  ILE237      0.0001
    167  N         71.8790  -28.3380   -8.0050 N.3   254  TYR254     -0.1241
    168  CA        70.5620  -27.7100   -7.7940 C.3   254  TYR254      0.1605
    169  C         69.7300  -28.4850   -6.7530 C.2   254  TYR254      0.2264
    170  O         69.2140  -27.8760   -5.8120 O.2   254  TYR254     -0.2867
    171  CB        69.7700  -27.6020   -9.1150 C.3   254  TYR254      0.0534
    172  CG        68.3090  -27.2220   -8.9370 C.ar  254  TYR254     -0.0201
    173  CD1       67.9300  -25.9000   -8.7200 C.ar  254  TYR254     -0.0009
    174  CD2       67.3030  -28.1760   -9.0480 C.ar  254  TYR254     -0.0009
    175  CE1       66.5860  -25.5460   -8.5700 C.ar  254  TYR254      0.0417
    176  CE2       65.9580  -27.8370   -8.8960 C.ar  254  TYR254      0.0417
    177  CZ        65.6010  -26.5200   -8.6610 C.ar  254  TYR254      0.1957
    178  OH        64.2680  -26.1930   -8.5240 O.3   254  TYR254     -0.2866
    179  N         68.3040  -27.6570   -3.1210 N.3   258  ILE258     -0.1245
    180  CA        66.8950  -27.9130   -2.8020 C.3   258  ILE258      0.1561
    181  C         66.8310  -28.6120   -1.4370 C.2   258  ILE258      0.2260
    182  O         66.0720  -28.1790   -0.5670 O.2   258  ILE258     -0.2867
    183  CB        66.2010  -28.7520   -3.9350 C.3   258  ILE258      0.0252
    184  CG1       65.9720  -27.9180   -5.2090 C.3   258  ILE258      0.0019
    185  CG2       64.8620  -29.3590   -3.4780 C.3   258  ILE258      0.0019
    186  CD1       64.9120  -26.7770   -5.0970 C.3   258  ILE258      0.0001
    187  N         67.3790  -26.3180    1.5550 N.3   261  GLY261     -0.1210
    188  CA        66.1700  -25.5690    1.8870 C.3   261  GLY261      0.1956
    189  C         65.2470  -26.3660    2.7970 C.2   261  GLY261      0.2611
    190  O         64.6800  -25.8230    3.7510 O.2   261  GLY261     -0.2717
    191  N         65.1110  -27.6760    2.5180 N.am  262  TYR262     -0.1976
    192  CA        64.3130  -28.5900    3.3250 C.3   262  TYR262      0.1639
    193  C         64.9900  -28.8820    4.6720 C.2   262  TYR262      0.2290
    194  O         64.2940  -29.2250    5.6320 O.2   262  TYR262     -0.2864
    195  CB        64.0600  -29.9070    2.5760 C.3   262  TYR262      0.0560
    196  CG        63.0420  -29.8110    1.4590 C.ar  262  TYR262     -0.0198
    197  CD1       61.6760  -29.8300    1.7320 C.ar  262  TYR262     -0.0009
    198  CD2       63.4350  -29.8650    0.1240 C.ar  262  TYR262     -0.0009
    199  CE1       60.7310  -29.8000    0.7090 C.ar  262  TYR262      0.0417
    200  CE2       62.4950  -29.8440   -0.9100 C.ar  262  TYR262      0.0417
    201  CZ        61.1430  -29.8120   -0.6100 C.ar  262  TYR262      0.1957
    202  OH        60.1970  -29.7720   -1.6010 O.3   262  TYR262     -0.2866
    203  N         63.9230  -26.5950    7.6170 N.3   265  SER265     -0.1217
    204  CA        62.6530  -27.1040    8.1320 C.3   265  SER265      0.1889
    205  C         62.8490  -28.3010    9.0620 C.2   265  SER265      0.2288
    206  O         62.0770  -28.4840   10.0000 O.2   265  SER265     -0.2866
    207  CB        61.7650  -27.5170    6.9650 C.3   265  SER265      0.2089
    208  OG        61.6430  -26.4570    6.0290 O.3   265  SER265     -0.2183
@<TRIPOS>BOND
     1    45    44    2
     2    42    43    1
     3    44    43    1
     4    99   100    1
     5    43    46    1
     6    46    47    1
     7   109   110    1
     8   109   106    1
     9   100   101    1
    10   100   103    1
    11   108   107    2
    12   119   118    1
    13    48    47   ar
    14    48    50   ar
    15   105   101   am
    16   105   106    1
    17   101   102    2
    18    47    49   ar
    19   107   106    1
    20   103   104    1
    21    38    37    2
    22    50    51   ar
    23   118   117    1
    24    40    39    1
    25    49    51   ar
    26    49    52   ar
    27   117   116    1
    28    51    53   ar
    29    37    36    1
    30   162   161    2
    31    36    39    1
    32    36    35    1
    33    52    54   ar
    34   116   115    1
    35    39    41    1
    36    69    68    1
    37   115   112    1
    38   161   160    1
    39    53    55   ar
    40   111   112    1
    41   171   172    1
    42   171   168    1
    43    54    55   ar
    44   174   172   ar
    45   174   176   ar
    46   172   173   ar
    47   176   177   ar
    48   160   159    1
    49   160   163    1
    50   112   113    1
    51   173   175   ar
    52   177   175   ar
    53   177   178    1
    54   165   163    1
    55    68    70    1
    56    68    67    1
    57   167   168    1
    58   113   114    2
    59   163   164    1
    60   168   169    1
    61    90    89    1
    62   164   166    1
    63    67    64    1
    64    29    28    2
    65    18    17    2
    66   169   170    2
    67    33    32    2
    68    89    88   ar
    69    89    87   ar
    70    88    86   ar
    71    28    27    1
    72    17    16    1
    73    17    26   am
    74    64    63    1
    75    64    65    1
    76    63    58   am
    77   152   151    2
    78    27    26    1
    79    27    30    1
    80    22    24   ar
    81    22    20   ar
    82    60    62    1
    83    60    61    1
    84    60    57    1
    85    87    85   ar
    86    32    34   am
    87    32    31    1
    88    19    16    1
    89    19    20    1
    90    56    57    1
    91   144   143    2
    92   148   146    1
    93    16    15    1
    94    24    25   ar
    95    86    84   ar
    96   184   186    1
    97   184   183    1
    98   126   124    1
    99    65    66    2
   100   151   150    1
   101    20    21   ar
   102    58    57    1
   103    58    59    2
   104   120   121    1
   105    30    31    1
   106   124   121    1
   107   124   125    1
   108    85    84   ar
   109    84    83    1
   110   143   142    1
   111   143   149   am
   112   146   145    1
   113   183   185    1
   114   183   180    1
   115    25    23   ar
   116   121   122    1
   117    78    76   ar
   118   150   149    1
   119   150   153    1
   120   142   145    1
   121   142   141    1
   122    21    23   ar
   123   122   123    2
   124   179   180    1
   125   145   147    1
   126    83    80    1
   127   180   181    1
   128    75    76    1
   129    75    72    1
   130    76    77   ar
   131   153   154    1
   132    11    10    2
   133   155   154   ar
   134   155   157   ar
   135    79    80    1
   136    79    73   am
   137   154   156   ar
   138    80    81    1
   139   202   201    1
   140   181   182    2
   141    71    72    1
   142    72    73    1
   143   157   158   ar
   144    10     9    1
   145    12     9    1
   146    12    14    1
   147    12    13    1
   148    73    74    2
   149   200   201   ar
   150   200   198   ar
   151     9     8    1
   152   201   199   ar
   153   156   158   ar
   154    97    98    1
   155    97    96    1
   156    81    82    2
   157   130   129    2
   158   198   196   ar
   159   199   197   ar
   160   129   128    1
   161    96    95    1
   162    95    92    1
   163   139   137   ar
   164   139   140   ar
   165   137   134   ar
   166   196   197   ar
   167   196   195    1
   168   187   188    1
   169   188   189    1
   170   128   131    1
   171   128   127    1
   172     4     3    2
   173   140   138   ar
   174   191   189   am
   175   191   192    1
   176   131   132    1
   177   195   192    1
   178    91    92    1
   179    92    93    1
   180   134   132   ar
   181   134   136   ar
   182   189   190    2
   183     3     2    1
   184   132   133   ar
   185   192   193    1
   186    93    94    2
   187     2     5    1
   188     2     1    1
   189   138   136   ar
   190     6     5    1
   191   136   135   ar
   192     5     7    1
   193   193   194    2
   194   133   135   ar
   195   208   207    1
   196   207   204    1
   197   203   204    1
   198   204   205    1
   199   205   206    2
