@<TRIPOS>MOLECULE
tmp/6b74B01.pdb
 102 100 0 0 0
SMALL
GASTEIGER

@<TRIPOS>ATOM
      1  N         71.2260   -2.5180   13.6740 N.3   185  ASP185     -0.1225
      2  CA        69.9830   -1.8210   13.9420 C.3   185  ASP185      0.1805
      3  C         69.2920   -2.2860   15.2100 C.2   185  ASP185      0.2598
      4  O         69.5920   -3.3460   15.7350 O.2   185  ASP185     -0.2718
      5  CB        69.0390   -1.9780   12.7590 C.3   185  ASP185      0.1424
      6  CG        67.8770   -1.0310   12.8260 C.2   185  ASP185      0.3668
      7  OD1       66.9110   -1.2130   12.0630 O.co2 185  ASP185     -0.2456
      8  OD2       67.9340   -0.1000   13.6480 O.co2 185  ASP185     -0.2456
      9  N         68.3590   -1.4810   15.6970 N.am  186  ALA186     -0.1966
     10  CA        67.4350   -1.9130   16.7290 C.3   186  ALA186      0.1728
     11  C         66.4260   -2.8730   16.1160 C.2   186  ALA186      0.2616
     12  O         66.1500   -2.8140   14.9290 O.2   186  ALA186     -0.2715
     13  CB        66.7340   -0.7240   17.3550 C.3   186  ALA186      0.0334
     14  N         65.9190   -3.7900   16.9390 N.am  187  CYS187     -0.1954
     15  CA        65.0310   -4.8650   16.4870 C.3   187  CYS187      0.1843
     16  C         63.8550   -5.0600   17.4440 C.2   187  CYS187      0.2625
     17  O         63.9280   -4.6670   18.6080 O.2   187  CYS187     -0.2714
     18  CB        65.8080   -6.1740   16.3350 C.3   187  CYS187      0.0997
     19  SG        67.3800   -6.0110   15.4560 S.3   187  CYS187     -0.0797
     20  N         62.8050   -5.7310   16.9840 N.am  188  GLN188     -0.1977
     21  CA        61.5760   -5.8000   17.7620 C.3   188  GLN188      0.1601
     22  C         61.8710   -6.3890   19.1330 C.2   188  GLN188      0.2287
     23  O         62.6190   -7.3590   19.2620 O.2   188  GLN188     -0.2864
     24  CB        60.5280   -6.6460   17.0370 C.3   188  GLN188      0.0394
     25  CG        59.6490   -7.4720   17.9620 C.3   188  GLN188      0.0908
     26  CD        58.5510   -8.2090   17.2200 C.2   188  GLN188      0.2608
     27  OE1       57.6550   -8.7900   17.8310 O.2   188  GLN188     -0.2717
     28  NE2       58.6170   -8.1880   15.8930 N.am  188  GLN188     -0.0878
     29  N         62.0300   -1.7960   21.6960 N.3   191  SER191     -0.1217
     30  CA        61.2210   -0.5880   21.8570 C.3   191  SER191      0.1889
     31  C         61.2990   -0.0040   23.2640 C.2   191  SER191      0.2288
     32  O         61.3010   -0.7360   24.2530 O.2   191  SER191     -0.2866
     33  CB        59.7600   -0.8780   21.5050 C.3   191  SER191      0.2089
     34  OG        59.5970   -1.0580   20.1090 O.3   191  SER191     -0.2183
     35  N         64.0390    4.1730   21.2200 N.3   212  ILE212     -0.1231
     36  CA        63.7760    3.1790   20.1840 C.3   212  ILE212      0.1692
     37  C         62.2780    3.0770   19.9030 C.2   212  ILE212      0.2593
     38  O         61.4920    2.7400   20.7890 O.2   212  ILE212     -0.2718
     39  CB        64.3310    1.8000   20.5820 C.3   212  ILE212      0.0266
     40  CG1       65.8380    1.8950   20.8290 C.3   212  ILE212      0.0019
     41  CG2       64.0320    0.7720   19.5060 C.3   212  ILE212      0.0020
     42  CD1       66.4230    0.7070   21.5540 C.3   212  ILE212      0.0001
     43  N         61.8900    3.3820   18.6670 N.am  213  SER213     -0.1938
     44  CA        60.4770    3.4840   18.3130 C.3   213  SER213      0.2055
     45  C         60.0400    2.4410   17.2850 C.2   213  SER213      0.2643
     46  O         59.2790    1.5300   17.6070 O.2   213  SER213     -0.2714
     47  CB        60.1690    4.8880   17.7870 C.3   213  SER213      0.2130
     48  OG        58.7830    5.0470   17.5360 O.3   213  SER213     -0.2179
     49  N         60.5100    2.5770   16.0480 N.am  214  TRP214     -0.1959
     50  CA        60.0900    1.6610   14.9900 C.3   214  TRP214      0.1771
     51  C         61.0690    1.5740   13.8250 C.2   214  TRP214      0.2620
     52  O         62.1190    2.2160   13.8210 O.2   214  TRP214     -0.2715
     53  CB        58.7130    2.0660   14.4580 C.3   214  TRP214      0.0590
     54  CG        58.6790    3.4220   13.8170 C.ar  214  TRP214      0.0006
     55  CD1       58.6010    4.6270   14.4530 C.ar  214  TRP214      0.0946
     56  CD2       58.7110    3.7120   12.4130 C.ar  214  TRP214      0.0152
     57  NE1       58.5860    5.6480   13.5340 N.ar  214  TRP214     -0.2442
     58  CE2       58.6530    5.1130   12.2740 C.ar  214  TRP214      0.0810
     59  CE3       58.7840    2.9230   11.2600 C.ar  214  TRP214      0.0012
     60  CZ2       58.6660    5.7420   11.0300 C.ar  214  TRP214      0.0191
     61  CZ3       58.7970    3.5500   10.0260 C.ar  214  TRP214      0.0001
     62  CH2       58.7380    4.9450    9.9210 C.ar  214  TRP214      0.0015
     63  N         60.7020    0.7650   12.8370 N.am  215  GLY215     -0.1940
     64  CA        61.4990    0.5850   11.6390 C.3   215  GLY215      0.2014
     65  C         60.9310   -0.5270   10.7800 C.2   215  GLY215      0.2640
     66  O         59.8650   -1.0700   11.0770 O.2   215  GLY215     -0.2714
     67  N         61.6310   -0.8620    9.7060 N.am  216  SER216     -0.1935
     68  CA        61.1930   -1.9340    8.8270 C.3   216  SER216      0.2055
     69  C         62.2890   -2.9700    8.6630 C.2   216  SER216      0.2644
     70  O         63.2940   -2.7240    8.0140 O.2   216  SER216     -0.2714
     71  CB        60.7840   -1.3810    7.4700 C.3   216  SER216      0.2130
     72  OG        61.9160   -0.9290    6.7660 O.3   216  SER216     -0.2179
     73  N         62.0880   -4.1240    9.2830 N.am  217  GLY217     -0.1939
     74  CA        63.0490   -5.2060    9.2440 C.3   217  GLY217      0.2014
     75  C         64.1160   -4.9380   10.2760 C.2   217  GLY217      0.2639
     76  O         64.0960   -3.8980   10.9160 O.2   217  GLY217     -0.2714
     77  N         65.0440   -5.8710   10.4280 N.am  218  CYS218     -0.1967
     78  CA        66.1960   -5.6260   11.2660 C.3   218  CYS218      0.1712
     79  C         67.4180   -5.5300   10.3720 C.2   218  CYS218      0.2296
     80  O         67.7670   -6.4820    9.6730 O.2   218  CYS218     -0.2864
     81  CB        66.3720   -6.7520   12.2850 C.3   218  CYS218      0.0983
     82  SG        65.9930   -6.2830   13.9890 S.3   218  CYS218     -0.0798
     83  N         67.1610    1.0960    5.4020 N.3   223  LYS223     -0.1245
     84  CA        66.0370    1.1290    6.3180 C.3   223  LYS223      0.1561
     85  C         66.5400    1.2010    7.7430 C.2   223  LYS223      0.2260
     86  O         66.4760    0.2310    8.4850 O.2   223  LYS223     -0.2867
     87  CB        65.1570   -0.1010    6.1320 C.3   223  LYS223      0.0271
     88  CG        64.6290   -0.2720    4.7220 C.3   223  LYS223      0.0035
     89  CD        63.9650    0.9990    4.2300 C.3   223  LYS223      0.0206
     90  CE        63.4550    0.8380    2.8110 C.3   223  LYS223      0.1093
     91  NZ        62.7840    2.0730    2.3310 N.3   223  LYS223     -0.1314
     92  N         66.7690    2.3910   11.7150 N.3   225  GLY225     -0.1210
     93  CA        65.7950    2.4590   12.7790 C.3   225  GLY225      0.1956
     94  C         65.3090    3.8720   13.0060 C.2   225  GLY225      0.2611
     95  O         66.0480    4.8240   12.8130 O.2   225  GLY225     -0.2717
     96  N         64.0560    4.0020   13.4130 N.am  226  VAL226     -0.1979
     97  CA        63.4770    5.3020   13.6960 C.3   226  VAL226      0.1595
     98  C         63.2940    5.4710   15.1910 C.2   226  VAL226      0.2287
     99  O         62.8310    4.5740   15.8720 O.2   226  VAL226     -0.2864
    100  CB        62.1380    5.4950   12.9770 C.3   226  VAL226      0.0276
    101  CG1       61.6550    6.9210   13.1420 C.3   226  VAL226      0.0022
    102  CG2       62.2870    5.1610   11.5090 C.3   226  VAL226      0.0022
@<TRIPOS>BOND
     1    91    90    1
     2    90    89    1
     3    89    88    1
     4    88    87    1
     5    83    84    1
     6    87    84    1
     7    84    85    1
     8    72    71    1
     9    71    68    1
    10    85    86    2
    11    70    69    2
    12    69    68    1
    13    69    73   am
    14    68    67    1
    15    74    73    1
    16    74    75    1
    17    80    79    2
    18    67    65   am
    19    62    61   ar
    20    62    60   ar
    21    61    59   ar
    22    75    77   am
    23    75    76    2
    24    79    78    1
    25    77    78    1
    26    65    66    2
    27    65    64    1
    28    60    58   ar
    29    59    56   ar
    30    78    81    1
    31   102   100    1
    32    64    63    1
    33    92    93    1
    34     7     6   ar
    35    58    56   ar
    36    58    57   ar
    37    81    82    1
    38    56    54   ar
    39     5     6    1
    40     5     2    1
    41    93    94    1
    42    95    94    2
    43     6     8   ar
    44    63    51   am
    45   100   101    1
    46   100    97    1
    47    94    96   am
    48    96    97    1
    49    57    55   ar
    50     1     2    1
    51    97    98    1
    52    54    55   ar
    53    54    53    1
    54    52    51    2
    55    51    50    1
    56     2     3    1
    57    82    19    1
    58    53    50    1
    59    12    11    2
    60    50    49    1
    61    98    99    2
    62     3     9   am
    63     3     4    2
    64    19    18    1
    65     9    10    1
    66    28    26   am
    67    49    45   am
    68    11    10    1
    69    11    14   am
    70    18    15    1
    71    15    14    1
    72    15    16    1
    73    10    13    1
    74    20    16   am
    75    20    21    1
    76    24    21    1
    77    24    25    1
    78    26    27    2
    79    26    25    1
    80    45    46    2
    81    45    44    1
    82    16    17    2
    83    48    47    1
    84    21    22    1
    85    47    44    1
    86    44    43    1
    87    43    37   am
    88    22    23    2
    89    41    39    1
    90    37    36    1
    91    37    38    2
    92    34    33    1
    93    36    39    1
    94    36    35    1
    95    39    40    1
    96    40    42    1
    97    33    30    1
    98    29    30    1
    99    30    31    1
   100    31    32    2
