@<TRIPOS>MOLECULE
tmp/6b75B00.pdb
 163 152 0 0 0
SMALL
GASTEIGER

@<TRIPOS>ATOM
      1  N         27.6400  -64.4900   -6.0560 N.3   171  TYR171     -0.1241
      2  CA        26.2390  -64.8640   -5.9910 C.3   171  TYR171      0.1605
      3  C         25.3960  -63.8070   -5.2470 C.2   171  TYR171      0.2264
      4  O         24.1640  -63.9020   -5.2210 O.2   171  TYR171     -0.2867
      5  CB        26.0840  -66.2990   -5.4130 C.3   171  TYR171      0.0534
      6  CG        26.7480  -67.3750   -6.2570 C.ar  171  TYR171     -0.0201
      7  CD1       26.0870  -67.9500   -7.3440 C.ar  171  TYR171     -0.0009
      8  CD2       28.0460  -67.8090   -5.9800 C.ar  171  TYR171     -0.0009
      9  CE1       26.7050  -68.9130   -8.1460 C.ar  171  TYR171      0.0417
     10  CE2       28.6790  -68.7670   -6.7850 C.ar  171  TYR171      0.0417
     11  CZ        28.0010  -69.3150   -7.8670 C.ar  171  TYR171      0.1957
     12  OH        28.6100  -70.2650   -8.6590 O.3   171  TYR171     -0.2866
     13  N         22.2280  -60.8550   -8.1690 N.3   174  HIS174     -0.1241
     14  CA        21.4770  -61.6710   -9.0890 C.3   174  HIS174      0.1621
     15  C         20.7160  -60.8170  -10.0650 C.2   174  HIS174      0.2264
     16  O         20.1480  -59.8050   -9.6790 O.2   174  HIS174     -0.2867
     17  CB        20.4910  -62.5580   -8.3090 C.3   174  HIS174      0.0745
     18  CG        20.1570  -63.8300   -9.0210 C.ar  174  HIS174      0.0817
     19  ND1       20.9560  -64.9590   -8.8960 N.ar  174  HIS174     -0.2268
     20  CD2       19.1270  -64.1120   -9.8460 C.ar  174  HIS174      0.1154
     21  CE1       20.3880  -65.8820   -9.6480 C.ar  174  HIS174      0.1986
     22  NE2       19.2990  -65.4100  -10.2570 N.ar  174  HIS174     -0.2212
     23  N         17.5890  -60.1050  -12.1990 N.3   176  PHE176     -0.1241
     24  CA        16.1140  -60.2200  -12.2020 C.3   176  PHE176      0.1605
     25  C         15.5350  -59.3040  -13.3040 C.2   176  PHE176      0.2264
     26  O         14.3510  -58.9690  -13.2640 O.2   176  PHE176     -0.2867
     27  CB        15.5610  -59.6740  -10.8770 C.3   176  PHE176      0.0534
     28  CG        15.6560  -60.4820   -9.6110 C.ar  176  PHE176     -0.0203
     29  CD1       16.5390  -61.5550   -9.5110 C.ar  176  PHE176     -0.0042
     30  CD2       14.9290  -60.1170   -8.4810 C.ar  176  PHE176     -0.0042
     31  CE1       16.6520  -62.2760   -8.3230 C.ar  176  PHE176     -0.0003
     32  CE2       15.0580  -60.8280   -7.2860 C.ar  176  PHE176     -0.0003
     33  CZ        15.9310  -61.8930   -7.2140 C.ar  176  PHE176     -0.0000
     34  N         12.5670  -59.2270  -17.6650 N.3   179  ARG179     -0.1245
     35  CA        11.2860  -58.6380  -18.0690 C.3   179  ARG179      0.1563
     36  C         11.3230  -57.1010  -18.2380 C.2   179  ARG179      0.2260
     37  O         10.4610  -56.5390  -18.9370 O.2   179  ARG179     -0.2867
     38  CB        10.1940  -59.0780  -17.0720 C.3   179  ARG179      0.0307
     39  CG        10.2720  -58.3640  -15.7240 C.3   179  ARG179      0.0489
     40  CD         9.3680  -58.9910  -14.7050 C.3   179  ARG179      0.2205
     41  NE         9.9340  -60.2520  -14.2250 N.pl3 179  ARG179     -0.0865
     42  CZ         9.3890  -61.0210  -13.2940 C.cat 179  ARG179      0.5346
     43  NH1        8.2630  -60.6590  -12.7020 N.pl3 179  ARG179      0.1354
     44  NH2        9.9740  -62.1480  -12.9350 N.pl3 179  ARG179      0.1354
     45  N         18.9000  -64.9390  -13.7120 N.3   202  ASP202     -0.1239
     46  CA        17.6040  -65.5110  -14.0530 C.3   202  ASP202      0.1674
     47  C         17.3350  -65.1700  -15.5200 C.2   202  ASP202      0.2266
     48  O         16.4080  -65.6950  -16.1520 O.2   202  ASP202     -0.2867
     49  CB        16.4810  -64.9990  -13.1350 C.3   202  ASP202      0.1410
     50  CG        16.0760  -65.9750  -12.0340 C.2   202  ASP202      0.3668
     51  OD1       16.9790  -66.4650  -11.3070 O.co2 202  ASP202     -0.2456
     52  OD2       14.8590  -66.2590  -11.9100 O.co2 202  ASP202     -0.2456
     53  N         20.9620  -70.3480  -10.9520 N.3   224  SER224     -0.1202
     54  CA        19.8070  -69.8220  -10.2170 C.3   224  SER224      0.2020
     55  C         19.3480  -70.8390   -9.1710 C.2   224  SER224      0.2618
     56  O         19.9120  -71.9390   -9.0660 O.2   224  SER224     -0.2717
     57  CB        18.6690  -69.4630  -11.1740 C.3   224  SER224      0.2103
     58  OG        17.4990  -68.9710  -10.5360 O.3   224  SER224     -0.2182
     59  N         18.3470  -70.4380   -8.3690 N.am  225  VAL225     -0.1979
     60  CA        17.7380  -71.2400   -7.3140 C.3   225  VAL225      0.1595
     61  C         16.2260  -71.2890   -7.5390 C.2   225  VAL225      0.2287
     62  O         15.6670  -70.3470   -8.1260 O.2   225  VAL225     -0.2864
     63  CB        18.1090  -70.7630   -5.8710 C.3   225  VAL225      0.0276
     64  CG1       19.6120  -70.5370   -5.7070 C.3   225  VAL225      0.0022
     65  CG2       17.3210  -69.5310   -5.4420 C.3   225  VAL225      0.0022
     66  N         12.5340  -70.4510   -6.9030 N.3   227  ALA227     -0.1231
     67  CA        11.9780  -69.2790   -6.2580 C.3   227  ALA227      0.1694
     68  C         10.5120  -69.0440   -6.5970 C.2   227  ALA227      0.2592
     69  O         10.0810  -69.2830   -7.7360 O.2   227  ALA227     -0.2718
     70  CB        12.7990  -68.0660   -6.6290 C.3   227  ALA227      0.0304
     71  N          9.7470  -68.5710   -5.5990 N.am  228  ALA228     -0.1966
     72  CA         8.3230  -68.2490   -5.7560 C.3   228  ALA228      0.1728
     73  C          8.1460  -66.8700   -6.3980 C.2   228  ALA228      0.2616
     74  O          9.0550  -66.0420   -6.4080 O.2   228  ALA228     -0.2715
     75  CB         7.6080  -68.2750   -4.3970 C.3   228  ALA228      0.0334
     76  N          6.9760  -66.6420   -6.9280 N.am  229  GLU229     -0.1977
     77  CA         6.5960  -65.3640   -7.4580 C.3   229  GLU229      0.1602
     78  C          5.2670  -65.0030   -6.7900 C.2   229  GLU229      0.2287
     79  O          4.7960  -65.7620   -5.9330 O.2   229  GLU229     -0.2864
     80  CB         6.5590  -65.3860   -8.9850 C.3   229  GLU229      0.0415
     81  CG         5.3670  -66.0160   -9.6790 C.3   229  GLU229      0.1163
     82  CD         5.3810  -65.6770  -11.1600 C.2   229  GLU229      0.3649
     83  OE1        4.3000  -65.6820  -11.7840 O.co2 229  GLU229     -0.2457
     84  OE2        6.4680  -65.3560  -11.6900 O.co2 229  GLU229     -0.2457
     85  N         18.1290  -74.7680   -1.9770 N.3   256  PRO256     -0.2116
     86  CA        17.7600  -73.4660   -1.3940 C.3   256  PRO256      0.1372
     87  C         16.5270  -72.9410   -2.1110 C.2   256  PRO256      0.2244
     88  O         16.3520  -73.2300   -3.2950 O.2   256  PRO256     -0.2868
     89  CB        18.9720  -72.5640   -1.6920 C.3   256  PRO256      0.0268
     90  CG        20.0580  -73.4660   -2.1220 C.3   256  PRO256      0.0207
     91  CD        19.3820  -74.6470   -2.7500 C.3   256  PRO256      0.0892
     92  N         13.8770  -69.3980   -2.6180 N.3   258  SER258     -0.1217
     93  CA        13.5760  -67.9950   -2.4100 C.3   258  SER258      0.1889
     94  C         12.0500  -67.8680   -2.3620 C.2   258  SER258      0.2288
     95  O         11.3740  -68.3160   -3.2830 O.2   258  SER258     -0.2866
     96  CB        14.1910  -67.1540   -3.5250 C.3   258  SER258      0.2089
     97  OG        13.5640  -65.8870   -3.6280 O.3   258  SER258     -0.2183
     98  N         22.0260  -76.6290    5.4610 N.3   287  THR287     -0.1203
     99  CA        22.9020  -75.4890    5.2370 C.3   287  THR287      0.1994
    100  C         23.0380  -75.2600    3.7170 C.2   287  THR287      0.2617
    101  O         23.1820  -74.1240    3.2550 O.2   287  THR287     -0.2717
    102  CB        24.1910  -75.7700    5.9950 C.3   287  THR287      0.1784
    103  OG1       23.9430  -75.4400    7.3610 O.3   287  THR287     -0.2211
    104  CG2       25.4070  -75.0020    5.4680 C.3   287  THR287      0.0376
    105  N         22.9350  -76.3490    2.9540 N.am  288  GLN288     -0.1979
    106  CA        23.0010  -76.3800    1.4960 C.3   288  GLN288      0.1601
    107  C         21.6270  -76.1470    0.8560 C.2   288  GLN288      0.2287
    108  O         21.5380  -76.0520   -0.3710 O.2   288  GLN288     -0.2864
    109  CB        23.6200  -77.7170    1.0360 C.3   288  GLN288      0.0394
    110  CG        25.1590  -77.7050    0.9560 C.3   288  GLN288      0.0908
    111  CD        25.8460  -77.2290    2.2210 C.2   288  GLN288      0.2608
    112  OE1       25.6490  -77.7710    3.3210 O.2   288  GLN288     -0.2717
    113  NE2       26.6380  -76.1740    2.0950 N.am  288  GLN288     -0.0878
    114  N         18.9520  -73.5180    2.2300 N.3   290  PRO290     -0.2116
    115  CA        18.2950  -72.5590    3.1230 C.3   290  PRO290      0.1372
    116  C         17.0120  -71.9720    2.5660 C.2   290  PRO290      0.2244
    117  O         16.7120  -72.0980    1.3670 O.2   290  PRO290     -0.2868
    118  CB        19.3590  -71.4680    3.3200 C.3   290  PRO290      0.0268
    119  CG        20.1830  -71.5130    2.1010 C.3   290  PRO290      0.0207
    120  CD        20.1370  -72.9150    1.5750 C.3   290  PRO290      0.0892
    121  N         15.3640  -68.5700    1.7220 N.3   292  ILE292     -0.1245
    122  CA        15.7530  -67.2140    1.3900 C.3   292  ILE292      0.1561
    123  C         14.4350  -66.4610    1.3900 C.2   292  ILE292      0.2260
    124  O         13.5550  -66.7490    0.5760 O.2   292  ILE292     -0.2867
    125  CB        16.5700  -67.1100    0.0600 C.3   292  ILE292      0.0252
    126  CG1       17.7100  -68.1430    0.0000 C.3   292  ILE292      0.0019
    127  CG2       17.1550  -65.7420   -0.0960 C.3   292  ILE292      0.0019
    128  CD1       17.6770  -69.0040   -1.2740 C.3   292  ILE292      0.0001
    129  N         12.1890  -63.4220    0.7140 N.3   294  ARG294     -0.1245
    130  CA        12.2120  -62.3070   -0.1990 C.3   294  ARG294      0.1563
    131  C         11.1670  -61.2010    0.0920 C.2   294  ARG294      0.2260
    132  O         10.0150  -61.3070   -0.3360 O.2   294  ARG294     -0.2867
    133  CB        12.1210  -62.7590   -1.6700 C.3   294  ARG294      0.0307
    134  CG        12.2380  -61.5710   -2.6310 C.3   294  ARG294      0.0489
    135  CD        12.7570  -61.9180   -3.9960 C.3   294  ARG294      0.2205
    136  NE        11.7180  -62.5440   -4.8030 N.pl3 294  ARG294     -0.0865
    137  CZ        10.9230  -61.8910   -5.6390 C.cat 294  ARG294      0.5346
    138  NH1       10.0140  -62.5470   -6.3450 N.pl3 294  ARG294      0.1354
    139  NH2       11.0450  -60.5810   -5.7950 N.pl3 294  ARG294      0.1354
    140  N         18.2700  -67.0920    5.0830 N.3   332  ARG332     -0.1245
    141  CA        18.9190  -65.9520    4.3960 C.3   332  ARG332      0.1563
    142  C         17.8430  -65.0060    3.8510 C.2   332  ARG332      0.2260
    143  O         16.6640  -65.3450    3.8710 O.2   332  ARG332     -0.2867
    144  CB        19.8840  -66.4000    3.2680 C.3   332  ARG332      0.0307
    145  CG        21.1590  -67.1610    3.6840 C.3   332  ARG332      0.0489
    146  CD        22.0510  -66.3970    4.6470 C.3   332  ARG332      0.2205
    147  NE        23.1940  -67.1890    5.1130 N.pl3 332  ARG332     -0.0865
    148  CZ        23.4540  -67.4800    6.3870 C.cat 332  ARG332      0.5346
    149  NH1       22.6380  -67.0650    7.3530 N.pl3 332  ARG332      0.1354
    150  NH2       24.5330  -68.1800    6.7050 N.pl3 332  ARG332      0.1354
    151  N         16.8320  -61.9490    0.6320 N.3   334  ILE334     -0.1245
    152  CA        17.0990  -61.4000   -0.6900 C.3   334  ILE334      0.1561
    153  C         16.3360  -60.1210   -0.8600 C.2   334  ILE334      0.2260
    154  O         15.1080  -60.1440   -0.8170 O.2   334  ILE334     -0.2867
    155  CB        16.9280  -62.3650   -1.9120 C.3   334  ILE334      0.0252
    156  CG1       17.1100  -61.6200   -3.2720 C.3   334  ILE334      0.0019
    157  CG2       15.6130  -63.1170   -1.9120 C.3   334  ILE334      0.0019
    158  CD1       18.3300  -61.8280   -3.9230 C.3   334  ILE334      0.0001
    159  N         21.4570  -61.3280    0.0190 N.3   362  ALA362     -0.1245
    160  CA        21.7620  -61.3510   -1.3870 C.3   362  ALA362      0.1562
    161  C         20.9410  -60.2150   -2.0060 C.2   362  ALA362      0.2260
    162  O         19.9340  -59.7920   -1.4280 O.2   362  ALA362     -0.2867
    163  CB        21.3660  -62.6830   -1.9920 C.3   362  ALA362      0.0290
@<TRIPOS>BOND
     1    37    36    2
     2    36    35    1
     3    35    34    1
     4    35    38    1
     5    38    39    1
     6    48    47    2
     7    39    40    1
     8    47    46    1
     9    40    41    1
    10    41    42    2
    11    46    45    1
    12    46    49    1
    13    25    26    2
    14    25    24    1
    15    42    44    1
    16    42    43    1
    17    49    50    1
    18    24    23    1
    19    24    27    1
    20    50    52   ar
    21    50    51   ar
    22    83    82   ar
    23    84    82   ar
    24    57    58    1
    25    57    54    1
    26    82    81    1
    27    53    54    1
    28    27    28    1
    29    22    20   ar
    30    22    21   ar
    31    54    55    1
    32    15    16    2
    33    15    14    1
    34    20    18   ar
    35    81    80    1
    36    21    19   ar
    37    28    29   ar
    38    28    30   ar
    39    29    31   ar
    40    55    56    2
    41    55    59   am
    42    14    17    1
    43    14    13    1
    44    18    19   ar
    45    18    17    1
    46    80    77    1
    47    12    11    1
    48    30    32   ar
    49    59    60    1
    50    31    33   ar
    51     9    11   ar
    52     9     7   ar
    53    62    61    2
    54    11    10   ar
    55    69    68    2
    56    61    60    1
    57    77    76    1
    58    77    78    1
    59     7     6   ar
    60    60    63    1
    61    32    33   ar
    62    76    73   am
    63    66    67    1
    64    78    79    2
    65    10     8   ar
    66    70    67    1
    67    68    67    1
    68    68    71   am
    69    74    73    2
    70    73    72    1
    71   138   137    1
    72     6     8   ar
    73     6     5    1
    74     1     2    1
    75     2     5    1
    76     2     3    1
    77    63    64    1
    78    63    65    1
    79   139   137    1
    80    72    71    1
    81    72    75    1
    82   137   136    2
    83     3     4    2
    84   136   135    1
    85   135   134    1
    86   158   156    1
    87    97    96    1
    88    96    93    1
    89    88    87    2
    90    95    94    2
    91   156   155    1
    92    91    90    1
    93    91    85    1
    94   134   133    1
    95    92    93    1
    96    93    94    1
    97    90    89    1
    98    87    86    1
    99   161   162    2
   100   161   160    1
   101   163   160    1
   102    85    86    1
   103   157   155    1
   104   155   152    1
   105    89    86    1
   106   133   130    1
   107   160   159    1
   108   128   126    1
   109   153   154    2
   110   153   152    1
   111   152   151    1
   112   108   107    2
   113   132   131    2
   114   130   131    1
   115   130   129    1
   116   127   125    1
   117   126   125    1
   118   125   122    1
   119   124   123    2
   120   107   106    1
   121   110   109    1
   122   110   111    1
   123   109   106    1
   124   117   116    2
   125   123   122    1
   126   122   121    1
   127   106   105    1
   128   120   119    1
   129   120   114    1
   130   113   111   am
   131   119   118    1
   132   111   112    2
   133   114   115    1
   134   116   115    1
   135   105   100   am
   136   115   118    1
   137   101   100    2
   138   144   145    1
   139   144   141    1
   140   145   146    1
   141   100    99    1
   142   142   143    2
   143   142   141    1
   144   141   140    1
   145   146   147    1
   146   147   148    2
   147    99    98    1
   148    99   102    1
   149   104   102    1
   150   102   103    1
   151   148   150    1
   152   148   149    1
