@<TRIPOS>MOLECULE
tmp/6b76A00.pdb
 132 124 0 0 0
SMALL
GASTEIGER

@<TRIPOS>ATOM
      1  N          7.0670   -0.8950    2.8600 N.3   173  TYR173     -0.1241
      2  CA         7.0660   -1.4720    4.2010 C.3   173  TYR173      0.1605
      3  C          7.5510   -2.9200    4.2760 C.2   173  TYR173      0.2264
      4  O          7.5640   -3.4940    5.3650 O.2   173  TYR173     -0.2867
      5  CB         5.6710   -1.3220    4.8170 C.3   173  TYR173      0.0534
      6  CG         5.2220    0.1220    4.9090 C.ar  173  TYR173     -0.0201
      7  CD1        5.7170    0.9640    5.9010 C.ar  173  TYR173     -0.0009
      8  CD2        4.3290    0.6550    3.9870 C.ar  173  TYR173     -0.0009
      9  CE1        5.3050    2.2930    5.9950 C.ar  173  TYR173      0.0417
     10  CE2        3.9310    1.9920    4.0530 C.ar  173  TYR173      0.0417
     11  CZ         4.4260    2.8100    5.0570 C.ar  173  TYR173      0.1957
     12  OH         4.0220    4.1250    5.1510 O.3   173  TYR173     -0.2866
     13  N         12.0700   -3.6870    6.8070 N.3   176  HIS176     -0.1241
     14  CA        12.0270   -2.9050    8.0390 C.3   176  HIS176      0.1621
     15  C         13.3410   -2.8860    8.7610 C.2   176  HIS176      0.2264
     16  O         13.9800   -3.9290    8.9230 O.2   176  HIS176     -0.2867
     17  CB        10.9340   -3.4510    8.9600 C.3   176  HIS176      0.0745
     18  CG        10.4410   -2.4730    9.9670 C.ar  176  HIS176      0.0817
     19  ND1        9.3440   -1.6810    9.7110 N.ar  176  HIS176     -0.2268
     20  CD2       10.8710   -2.2370   11.2290 C.ar  176  HIS176      0.1154
     21  CE1        9.1600   -0.9610   10.8080 C.ar  176  HIS176      0.1986
     22  NE2       10.0460   -1.2780   11.7540 N.ar  176  HIS176     -0.2212
     23  N         15.4930   -2.9340   11.8440 N.3   178  PHE178     -0.1241
     24  CA        15.5400   -3.6150   13.1460 C.3   178  PHE178      0.1605
     25  C         17.0010   -3.5200   13.6570 C.2   178  PHE178      0.2264
     26  O         17.3850   -4.2280   14.5910 O.2   178  PHE178     -0.2867
     27  CB        15.2800   -5.1290   12.8930 C.3   178  PHE178      0.0534
     28  CG        13.8910   -5.6930   12.6770 C.ar  178  PHE178     -0.0203
     29  CD1       12.8250   -4.8660   12.3500 C.ar  178  PHE178     -0.0042
     30  CD2       13.6570   -7.0600   12.7920 C.ar  178  PHE178     -0.0042
     31  CE1       11.5480   -5.3970   12.1470 C.ar  178  PHE178     -0.0003
     32  CE2       12.3770   -7.5850   12.6060 C.ar  178  PHE178     -0.0003
     33  CZ        11.3370   -6.7500   12.2790 C.ar  178  PHE178     -0.0000
     34  N         20.1110   -1.9420   17.6200 N.3   181  ARG181     -0.1245
     35  CA        21.0450   -2.5730   18.5720 C.3   181  ARG181      0.1563
     36  C         22.3320   -3.1030   17.9580 C.2   181  ARG181      0.2260
     37  O         23.3370   -3.1990   18.6550 O.2   181  ARG181     -0.2867
     38  CB        20.3360   -3.6960   19.3430 C.3   181  ARG181      0.0307
     39  CG        20.0760   -4.9580   18.4770 C.3   181  ARG181      0.0489
     40  CD        19.0440   -5.8780   19.0460 C.3   181  ARG181      0.2205
     41  NE        17.7650   -5.1950   19.1510 N.pl3 181  ARG181     -0.0865
     42  CZ        16.7080   -5.7120   19.7490 C.cat 181  ARG181      0.5346
     43  NH1       16.7710   -6.9150   20.2900 N.pl3 181  ARG181      0.1354
     44  NH2       15.5770   -5.0330   19.8060 N.pl3 181  ARG181      0.1354
     45  N         12.3980    0.9360   12.9620 N.3   204  ASP204     -0.1239
     46  CA        12.3560    0.8200   14.4190 C.3   204  ASP204      0.1674
     47  C         13.5450    1.6140   14.9920 C.2   204  ASP204      0.2266
     48  O         13.5970    1.8420   16.2040 O.2   204  ASP204     -0.2867
     49  CB        12.3880   -0.6420   14.8830 C.3   204  ASP204      0.1410
     50  CG        11.0630   -1.1000   15.4590 C.2   204  ASP204      0.3668
     51  OD1       10.0620   -1.0480   14.7420 O.co2 204  ASP204     -0.2456
     52  OD2       11.0310   -1.4860   16.6350 O.co2 204  ASP204     -0.2456
     53  N          7.7720    4.9860    9.8670 N.3   225  TYR225     -0.1227
     54  CA         6.6300    4.4240   10.5980 C.3   225  TYR225      0.1736
     55  C          6.9140    3.0350   11.1730 C.2   225  TYR225      0.2596
     56  O          7.7160    2.2790   10.6340 O.2   225  TYR225     -0.2718
     57  CB         5.3970    4.3620    9.6620 C.3   225  TYR225      0.0548
     58  CG         4.9730    5.7110    9.1130 C.ar  225  TYR225     -0.0200
     59  CD1        5.5410    6.2230    7.9470 C.ar  225  TYR225     -0.0009
     60  CD2        4.0070    6.4750    9.7540 C.ar  225  TYR225     -0.0009
     61  CE1        5.2070    7.4950    7.4730 C.ar  225  TYR225      0.0417
     62  CE2        3.6280    7.7250    9.2640 C.ar  225  TYR225      0.0417
     63  CZ         4.2430    8.2410    8.1280 C.ar  225  TYR225      0.1957
     64  OH         3.8830    9.4810    7.6320 O.3   225  TYR225     -0.2866
     65  N          6.2380    2.7010   12.2690 N.am  226  SER226     -0.1938
     66  CA         6.3300    1.3950   12.9080 C.3   226  SER226      0.2055
     67  C          4.9560    0.9620   13.4350 C.2   226  SER226      0.2642
     68  O          3.9890    1.7240   13.3340 O.2   226  SER226     -0.2714
     69  CB         7.3520    1.4220   14.0390 C.3   226  SER226      0.2130
     70  OG         7.7850    0.0990   14.2970 O.3   226  SER226     -0.2179
     71  N          4.8620   -0.2700   13.9670 N.am  227  VAL227     -0.1977
     72  CA         3.6390   -0.7990   14.5780 C.3   227  VAL227      0.1596
     73  C          3.9860   -1.3750   15.9470 C.2   227  VAL227      0.2287
     74  O          5.1500   -1.7530   16.1530 O.2   227  VAL227     -0.2864
     75  CB         2.8790   -1.8610   13.7150 C.3   227  VAL227      0.0276
     76  CG1        2.3950   -1.2950   12.3850 C.3   227  VAL227      0.0022
     77  CG2        3.6550   -3.1710   13.5470 C.3   227  VAL227      0.0022
     78  N          4.6590   -4.0960   18.7000 N.3   229  ALA229     -0.1231
     79  CA         5.2500   -5.4140   18.5260 C.3   229  ALA229      0.1694
     80  C          5.7960   -5.9360   19.8090 C.2   229  ALA229      0.2591
     81  O          6.0630   -5.1570   20.7120 O.2   229  ALA229     -0.2718
     82  CB         6.3490   -5.3520   17.4900 C.3   229  ALA229      0.0304
     83  N          6.0000   -7.2550   19.8850 N.am  230  ALA230     -0.1980
     84  CA         6.4840   -7.9410   21.0810 C.3   230  ALA230      0.1597
     85  C          7.9270   -8.4330   20.9910 C.2   230  ALA230      0.2287
     86  O          8.4710   -8.6280   19.8980 O.2   230  ALA230     -0.2864
     87  CB         5.5570   -9.1170   21.4050 C.3   230  ALA230      0.0319
     88  N         -2.0270   -2.8150   13.3730 N.3   258  PRO258     -0.2116
     89  CA        -1.3520   -4.1200   13.2180 C.3   258  PRO258      0.1372
     90  C         -0.4410   -4.4000   14.4020 C.2   258  PRO258      0.2244
     91  O          0.0460   -3.4540   15.0140 O.2   258  PRO258     -0.2868
     92  CB        -0.5320   -3.9500   11.9260 C.3   258  PRO258      0.0268
     93  CG        -1.0670   -2.7370   11.2590 C.3   258  PRO258      0.0207
     94  CD        -1.5600   -1.8530   12.3530 C.3   258  PRO258      0.0892
     95  N          2.8310   -7.1280   15.8030 N.3   260  SER260     -0.1217
     96  CA         3.7740   -8.1990   15.5270 C.3   260  SER260      0.1889
     97  C          4.0090   -8.9370   16.8220 C.2   260  SER260      0.2288
     98  O          4.2680   -8.3140   17.8480 O.2   260  SER260     -0.2866
     99  CB         5.0790   -7.6640   14.9480 C.3   260  SER260      0.2089
    100  OG         6.0740   -8.6750   14.9500 O.3   260  SER260     -0.2183
    101  N          0.6900  -10.0240   12.6930 N.3   294  ILE294     -0.1245
    102  CA         1.8950  -10.3590   11.9810 C.3   294  ILE294      0.1561
    103  C          2.6890  -11.2930   12.8650 C.2   294  ILE294      0.2260
    104  O          3.2440  -10.8800   13.8740 O.2   294  ILE294     -0.2867
    105  CB         2.6400   -9.0850   11.4960 C.3   294  ILE294      0.0252
    106  CG1        1.6680   -8.1220   10.7650 C.3   294  ILE294      0.0019
    107  CG2        3.7800   -9.4470   10.5790 C.3   294  ILE294      0.0019
    108  CD1        1.8900   -6.6550   11.0460 C.3   294  ILE294      0.0001
    109  N          5.6890  -13.6330   13.9270 N.3   296  ARG296     -0.1245
    110  CA         7.1270  -13.4810   13.7990 C.3   296  ARG296      0.1563
    111  C          8.0050  -14.6740   14.2830 C.2   296  ARG296      0.2260
    112  O          8.2070  -14.8290   15.4960 O.2   296  ARG296     -0.2867
    113  CB         7.5550  -12.1840   14.5290 C.3   296  ARG296      0.0307
    114  CG         9.0140  -11.7890   14.3150 C.3   296  ARG296      0.0489
    115  CD         9.3790  -10.4730   14.9850 C.3   296  ARG296      0.2205
    116  NE        10.7640  -10.5460   15.4280 N.pl3 296  ARG296     -0.0865
    117  CZ        11.1860  -10.2750   16.6590 C.cat 296  ARG296      0.5346
    118  NH1       10.3470   -9.7940   17.5660 N.pl3 296  ARG296      0.1354
    119  NH2       12.4600  -10.4370   16.9790 N.pl3 296  ARG296      0.1354
    120  N          6.3360  -11.9170    9.2850 N.3   336  ILE336     -0.1245
    121  CA         7.5630  -11.1000    9.2880 C.3   336  ILE336      0.1561
    122  C          8.7880  -11.9890    9.5830 C.2   336  ILE336      0.2260
    123  O          8.8840  -12.5570   10.6660 O.2   336  ILE336     -0.2867
    124  CB         7.5320   -9.7750   10.1620 C.3   336  ILE336      0.0252
    125  CG1        8.8800   -8.9630   10.0290 C.3   336  ILE336      0.0019
    126  CG2        7.1990  -10.0200   11.6440 C.3   336  ILE336      0.0019
    127  CD1        8.7630   -7.4400    9.9000 C.3   336  ILE336      0.0001
    128  N          6.6950   -9.6810    5.0870 N.3   364  ALA364     -0.1245
    129  CA         7.4450   -8.4500    5.2390 C.3   364  ALA364      0.1562
    130  C          8.7490   -8.9580    5.8440 C.2   364  ALA364      0.2260
    131  O          8.7730  -10.0410    6.4470 O.2   364  ALA364     -0.2867
    132  CB         6.7400   -7.5140    6.2030 C.3   364  ALA364      0.0290
@<TRIPOS>BOND
     1     1     2    1
     2     8    10   ar
     3     8     6   ar
     4    10    11   ar
     5     2     3    1
     6     2     5    1
     7     3     4    2
     8     5     6    1
     9     6     7   ar
    10    11    12    1
    11    11     9   ar
    12   128   129    1
    13   129   130    1
    14   129   132    1
    15   130   131    2
    16     7     9   ar
    17    13    14    1
    18    61    59   ar
    19    61    63   ar
    20    64    63    1
    21    59    58   ar
    22    14    15    1
    23    14    17    1
    24    63    62   ar
    25    15    16    2
    26    17    18    1
    27    58    57    1
    28    58    60   ar
    29    62    60   ar
    30   120   121    1
    31   121   122    1
    32   121   124    1
    33   122   123    2
    34    57    54    1
    35    19    18   ar
    36    19    21   ar
    37    53    54    1
    38   127   125    1
    39    18    20   ar
    40   125   124    1
    41   124   126    1
    42   107   105    1
    43    54    55    1
    44    56    55    2
    45   106   108    1
    46   106   105    1
    47    21    22   ar
    48    55    65   am
    49    20    22   ar
    50    93    92    1
    51    93    94    1
    52   105   102    1
    53    23    24    1
    54    92    89    1
    55   102   101    1
    56   102   103    1
    57    31    33   ar
    58    31    29   ar
    59    65    66    1
    60    33    32   ar
    61    29    28   ar
    62    94    88    1
    63    76    75    1
    64    32    30   ar
    65    28    30   ar
    66    28    27    1
    67   103   104    2
    68    27    24    1
    69    66    67    1
    70    66    69    1
    71    45    46    1
    72    24    25    1
    73    89    88    1
    74    89    90    1
    75    68    67    2
    76    67    71   am
    77    77    75    1
    78    25    26    2
    79    75    72    1
    80   110   109    1
    81   110   111    1
    82   110   113    1
    83    71    72    1
    84    69    70    1
    85   111   112    2
    86   114   113    1
    87   114   115    1
    88    90    91    2
    89    46    49    1
    90    46    47    1
    91    72    73    1
    92    51    50   ar
    93    49    50    1
    94    99   100    1
    95    99    96    1
    96   115   116    1
    97    47    48    2
    98   116   117    2
    99    50    52   ar
   100    96    95    1
   101    96    97    1
   102    73    74    2
   103   117   119    1
   104   117   118    1
   105    97    98    2
   106    82    79    1
   107    34    35    1
   108    36    35    1
   109    36    37    2
   110    39    40    1
   111    39    38    1
   112    79    78    1
   113    79    80    1
   114    35    38    1
   115    40    41    1
   116    41    42    2
   117    42    44    1
   118    42    43    1
   119    80    83   am
   120    80    81    2
   121    83    84    1
   122    86    85    2
   123    85    84    1
   124    84    87    1
