@<TRIPOS>MOLECULE
tmp/6b77B01.pdb
 152 151 0 0 0
SMALL
GASTEIGER

@<TRIPOS>ATOM
      1  N        105.4340   75.9270   24.1350 N.3    40  HIS40      -0.1241
      2  CA       106.0550   77.0850   23.4850 C.3    40  HIS40       0.1621
      3  C        105.9430   78.3330   24.3380 C.2    40  HIS40       0.2264
      4  O        106.7230   79.2620   24.1460 O.2    40  HIS40      -0.2867
      5  CB       105.4660   77.3290   22.0690 C.3    40  HIS40       0.0745
      6  CG       104.1170   78.0070   22.0340 C.ar   40  HIS40       0.0817
      7  ND1      102.9420   77.3170   21.7870 N.ar   40  HIS40      -0.2268
      8  CD2      103.7660   79.3150   22.1590 C.ar   40  HIS40       0.1154
      9  CE1      101.9250   78.1660   21.8020 C.ar   40  HIS40       0.1986
     10  NE2      102.4000   79.3880   21.9980 N.ar   40  HIS40      -0.2212
     11  N        106.5170   72.9010   16.4020 N.3    86  TYR86      -0.1241
     12  CA       105.5840   72.9090   17.5330 C.3    86  TYR86       0.1605
     13  C        104.9450   71.5610   17.7760 C.2    86  TYR86       0.2264
     14  O        103.8980   71.5050   18.4000 O.2    86  TYR86      -0.2867
     15  CB       104.4750   73.9490   17.4080 C.3    86  TYR86       0.0534
     16  CG       104.8510   75.3650   17.8620 C.ar   86  TYR86      -0.0201
     17  CD1      103.8630   76.3180   18.1710 C.ar   86  TYR86      -0.0009
     18  CD2      106.1830   75.7690   17.9240 C.ar   86  TYR86      -0.0009
     19  CE1      104.1930   77.6150   18.5460 C.ar   86  TYR86       0.0417
     20  CE2      106.5240   77.0820   18.2940 C.ar   86  TYR86       0.0417
     21  CZ       105.5260   77.9850   18.5970 C.ar   86  TYR86       0.1957
     22  OH       105.8750   79.2490   18.9600 O.3    86  TYR86      -0.2866
     23  N         95.7660   93.0260   23.9940 N.3   143  TYR143     -0.1241
     24  CA        95.0600   91.8430   24.4390 C.3   143  TYR143      0.1605
     25  C         93.6860   92.2410   24.9940 C.2   143  TYR143      0.2264
     26  O         93.4980   93.3460   25.5240 O.2   143  TYR143     -0.2867
     27  CB        95.8970   91.1310   25.5220 C.3   143  TYR143      0.0534
     28  CG        97.1440   90.4000   25.0320 C.ar  143  TYR143     -0.0201
     29  CD1       97.7050   89.3600   25.7850 C.ar  143  TYR143     -0.0009
     30  CD2       97.7560   90.7320   23.8180 C.ar  143  TYR143     -0.0009
     31  CE1       98.8510   88.6590   25.3410 C.ar  143  TYR143      0.0417
     32  CE2       98.9010   90.0390   23.3570 C.ar  143  TYR143      0.0417
     33  CZ        99.4440   89.0070   24.1310 C.ar  143  TYR143      0.1957
     34  OH       100.5640   88.3230   23.6970 O.3   143  TYR143     -0.2866
     35  N         88.2610   81.8710   15.6980 N.3   185  ASP185     -0.1225
     36  CA        89.5660   81.2640   15.9000 C.3   185  ASP185      0.1805
     37  C         90.2240   81.8380   17.1480 C.2   185  ASP185      0.2598
     38  O         89.9130   82.9470   17.5800 O.2   185  ASP185     -0.2718
     39  CB        90.4740   81.4650   14.6610 C.3   185  ASP185      0.1424
     40  CG        91.5850   80.4450   14.6080 C.2   185  ASP185      0.3668
     41  OD1       92.4220   80.5230   13.6910 O.co2 185  ASP185     -0.2456
     42  OD2       91.6000   79.5500   15.4990 O.co2 185  ASP185     -0.2456
     43  N         91.1700   81.0780   17.6950 N.am  186  ALA186     -0.1966
     44  CA        92.1440   81.6260   18.6300 C.3   186  ALA186      0.1728
     45  C         93.2180   82.3860   17.8610 C.2   186  ALA186      0.2616
     46  O         93.4850   82.1100   16.6860 O.2   186  ALA186     -0.2715
     47  CB        92.8040   80.5120   19.4500 C.3   186  ALA186      0.0334
     48  N         93.8680   83.3160   18.5550 N.am  187  CYS187     -0.1954
     49  CA        94.8440   84.2180   17.9500 C.3   187  CYS187      0.1843
     50  C         96.0220   84.4130   18.8920 C.2   187  CYS187      0.2625
     51  O         96.0350   83.9280   20.0220 O.2   187  CYS187     -0.2714
     52  CB        94.1980   85.5840   17.6150 C.3   187  CYS187      0.0997
     53  SG        92.7430   85.3270   16.6560 S.3   187  CYS187     -0.0797
     54  N         97.0150   85.1520   18.4210 N.am  188  GLN188     -0.1963
     55  CA        98.1370   85.5490   19.2550 C.3   188  GLN188      0.1733
     56  C         97.6470   86.0990   20.5900 C.2   188  GLN188      0.2616
     57  O         96.7560   86.9490   20.6370 O.2   188  GLN188     -0.2715
     58  CB        98.9600   86.5990   18.5020 C.3   188  GLN188      0.0408
     59  CG       100.1950   87.1310   19.2280 C.3   188  GLN188      0.0908
     60  CD       100.8950   88.2550   18.4350 C.2   188  GLN188      0.2608
     61  OE1      101.1790   89.3220   18.9830 O.2   188  GLN188     -0.2717
     62  NE2      101.1650   88.0140   17.1480 N.am  188  GLN188     -0.0878
     63  N         98.3060   85.6520   21.6550 N.am  189  GLY189     -0.1955
     64  CA        97.9580   86.0020   23.0200 C.3   189  GLY189      0.1869
     65  C         97.0180   84.9740   23.6300 C.2   189  GLY189      0.2309
     66  O         96.6600   85.0630   24.8040 O.2   189  GLY189     -0.2863
     67  N         97.8450   81.7130   23.5190 N.3   191  SER191     -0.1217
     68  CA        98.6810   80.5340   23.7210 C.3   191  SER191      0.1889
     69  C         98.4330   79.8770   25.0740 C.2   191  SER191      0.2288
     70  O         98.3030   80.5490   26.0950 O.2   191  SER191     -0.2866
     71  CB       100.1610   80.9010   23.5870 C.3   191  SER191      0.2089
     72  OG       100.4030   81.6440   22.4040 O.3   191  SER191     -0.2183
     73  N         95.7640   75.4200   22.9650 N.3   212  ILE212     -0.1231
     74  CA        95.9920   76.3940   21.8940 C.3   212  ILE212      0.1692
     75  C         97.4860   76.4370   21.5810 C.2   212  ILE212      0.2593
     76  O         98.3140   76.7480   22.4490 O.2   212  ILE212     -0.2718
     77  CB        95.4240   77.7680   22.2940 C.3   212  ILE212      0.0266
     78  CG1       93.8950   77.6620   22.4060 C.3   212  ILE212      0.0019
     79  CG2       95.7990   78.8170   21.2820 C.3   212  ILE212      0.0020
     80  CD1       93.2230   78.7540   23.1210 C.3   212  ILE212      0.0001
     81  N         97.8360   76.0860   20.3460 N.am  213  SER213     -0.1938
     82  CA        99.2310   75.9390   19.9320 C.3   213  SER213      0.2055
     83  C         99.5920   76.9490   18.8410 C.2   213  SER213      0.2643
     84  O        100.3980   77.8580   19.0860 O.2   213  SER213     -0.2714
     85  CB        99.4850   74.4950   19.4630 C.3   213  SER213      0.2130
     86  OG       100.8550   74.2620   19.1200 O.3   213  SER213     -0.2179
     87  N         99.0290   76.8300   17.6410 N.am  214  TRP214     -0.1959
     88  CA        99.4190   77.7320   16.5600 C.3   214  TRP214      0.1771
     89  C         98.3570   77.7910   15.4480 C.2   214  TRP214      0.2620
     90  O         97.3770   77.0350   15.4330 O.2   214  TRP214     -0.2715
     91  CB       100.7880   77.3120   16.0010 C.3   214  TRP214      0.0590
     92  CG       100.8230   75.9480   15.3690 C.ar  214  TRP214      0.0006
     93  CD1      100.9380   74.7440   16.0020 C.ar  214  TRP214      0.0946
     94  CD2      100.7710   75.6580   13.9720 C.ar  214  TRP214      0.0152
     95  NE1      100.9680   73.7210   15.0870 N.ar  214  TRP214     -0.2442
     96  CE2      100.8590   74.2540   13.8300 C.ar  214  TRP214      0.0810
     97  CE3      100.6620   76.4440   12.8300 C.ar  214  TRP214      0.0012
     98  CZ2      100.8350   73.6210   12.5800 C.ar  214  TRP214      0.0191
     99  CZ3      100.6360   75.8120   11.5790 C.ar  214  TRP214      0.0001
    100  CH2      100.7230   74.4180   11.4700 C.ar  214  TRP214      0.0015
    101  N         98.5800   78.7110   14.5180 N.am  215  GLY215     -0.1940
    102  CA        97.7800   78.8110   13.3100 C.3   215  GLY215      0.2014
    103  C         98.4600   79.7440   12.3200 C.2   215  GLY215      0.2640
    104  O         99.6710   79.9670   12.3810 O.2   215  GLY215     -0.2714
    105  N         97.6760   80.3230   11.4100 N.am  216  SER216     -0.1935
    106  CA        98.2330   81.3390   10.4970 C.3   216  SER216      0.2055
    107  C         97.2510   82.4940   10.3890 C.2   216  SER216      0.2644
    108  O         96.3510   82.4700    9.5510 O.2   216  SER216     -0.2714
    109  CB        98.5410   80.7690    9.1240 C.3   216  SER216      0.2130
    110  OG        97.5290   79.8760    8.7390 O.3   216  SER216     -0.2179
    111  N         97.4230   83.5000   11.2300 N.am  217  GLY217     -0.1939
    112  CA        96.6260   84.6850   11.0350 C.3   217  GLY217      0.2014
    113  C         95.2290   84.5500   11.6040 C.2   217  GLY217      0.2639
    114  O         94.4740   83.6270   11.2660 O.2   217  GLY217     -0.2714
    115  N         94.8770   85.5100   12.4540 N.am  218  CYS218     -0.1967
    116  CA        93.6540   85.5070   13.2450 C.3   218  CYS218      0.1712
    117  C         92.4320   85.3090   12.3470 C.2   218  CYS218      0.2296
    118  O         91.9850   86.2450   11.6690 O.2   218  CYS218     -0.2864
    119  CB        93.6040   86.8160   14.0460 C.3   218  CYS218      0.0983
    120  SG        92.5020   86.9820   15.4710 S.3   218  CYS218     -0.0798
    121  N         91.9340   78.3560    7.0940 N.3   223  LYS223     -0.1245
    122  CA        93.0320   78.1550    8.0440 C.3   223  LYS223      0.1561
    123  C         92.5300   77.9670    9.4730 C.2   223  LYS223      0.2260
    124  O         92.5270   78.9070   10.2850 O.2   223  LYS223     -0.2867
    125  CB        94.0050   79.3220    7.9630 C.3   223  LYS223      0.0271
    126  CG        94.6150   79.4060    6.5910 C.3   223  LYS223      0.0035
    127  CD        94.8870   78.0140    6.0440 C.3   223  LYS223      0.0206
    128  CE        95.5790   78.0910    4.6940 C.3   223  LYS223      0.1093
    129  NZ        96.2730   76.8260    4.3540 N.3   223  LYS223     -0.1314
    130  N         92.6900   76.7590   13.4580 N.3   225  GLY225     -0.1210
    131  CA        93.7310   76.7460   14.4640 C.3   225  GLY225      0.1956
    132  C         94.2550   75.3430   14.6870 C.2   225  GLY225      0.2612
    133  O         93.5570   74.3520   14.4710 O.2   225  GLY225     -0.2717
    134  N         95.5280   75.2530   15.0720 N.am  226  VAL226     -0.1965
    135  CA        96.1560   73.9670   15.3630 C.3   226  VAL226      0.1727
    136  C         96.3520   73.8880   16.8710 C.2   226  VAL226      0.2616
    137  O         96.7340   74.8780   17.5190 O.2   226  VAL226     -0.2715
    138  CB        97.4620   73.7710   14.5680 C.3   226  VAL226      0.0290
    139  CG1       97.9680   72.3140   14.6700 C.3   226  VAL226      0.0023
    140  CG2       97.2010   74.0930   13.1210 C.3   226  VAL226      0.0023
    141  N         95.9670   72.7510   17.4360 N.am  227  TYR227     -0.1974
    142  CA        95.9440   72.5340   18.8760 C.3   227  TYR227      0.1639
    143  C         96.7500   71.2940   19.1870 C.2   227  TYR227      0.2290
    144  O         96.8670   70.3940   18.3620 O.2   227  TYR227     -0.2864
    145  CB        94.5320   72.3040   19.4080 C.3   227  TYR227      0.0560
    146  CG        93.6440   73.4500   19.1690 C.ar  227  TYR227     -0.0198
    147  CD1       93.0280   73.6360   17.9270 C.ar  227  TYR227     -0.0009
    148  CD2       93.3970   74.3570   20.1800 C.ar  227  TYR227     -0.0009
    149  CE1       92.1890   74.7230   17.7110 C.ar  227  TYR227      0.0417
    150  CE2       92.5490   75.4180   19.9980 C.ar  227  TYR227      0.0417
    151  CZ        91.9390   75.6160   18.7570 C.ar  227  TYR227      0.1957
    152  OH        91.0920   76.7070   18.5760 O.3   227  TYR227     -0.2866
@<TRIPOS>BOND
     1   129   128    1
     2   128   127    1
     3   127   126    1
     4   126   125    1
     5   121   122    1
     6   125   122    1
     7   122   123    1
     8   110   109    1
     9   109   106    1
    10   123   124    2
    11   108   107    2
    12   107   106    1
    13   107   111   am
    14   106   105    1
    15   112   111    1
    16   112   113    1
    17   114   113    2
    18   105   103   am
    19   100    99   ar
    20   100    98   ar
    21    99    97   ar
    22   113   115   am
    23   118   117    2
    24   103   104    2
    25   103   102    1
    26   117   116    1
    27   115   116    1
    28    98    96   ar
    29    97    94   ar
    30   140   138    1
    31   116   119    1
    32   102   101    1
    33   130   131    1
    34    41    40   ar
    35    96    94   ar
    36    96    95   ar
    37    94    92   ar
    38   119   120    1
    39   131   132    1
    40   133   132    2
    41   101    89   am
    42   138   139    1
    43   138   135    1
    44    40    39    1
    45    40    42   ar
    46    39    36    1
    47   132   134   am
    48   134   135    1
    49    95    93   ar
    50   135   136    1
    51    92    91    1
    52    92    93   ar
    53    90    89    2
    54    89    88    1
    55   120    53    1
    56    35    36    1
    57    36    37    1
    58    91    88    1
    59    11    12    1
    60    88    87    1
    61    53    52    1
    62    46    45    2
    63   136   141   am
    64   136   137    2
    65    37    38    2
    66    37    43   am
    67    62    60   am
    68    15    12    1
    69    15    16    1
    70   141   142    1
    71    12    13    1
    72    52    49    1
    73    87    83   am
    74    43    44    1
    75   149   147   ar
    76   149   151   ar
    77    13    14    2
    78    45    48   am
    79    45    44    1
    80    16    18   ar
    81    16    17   ar
    82    18    20   ar
    83   147   146   ar
    84    49    48    1
    85    49    50    1
    86    17    19   ar
    87    20    21   ar
    88   144   143    2
    89    54    50   am
    90    54    55    1
    91    60    61    2
    92    60    59    1
    93    58    59    1
    94    58    55    1
    95    19    21   ar
    96   152   151    1
    97    21    22    1
    98    44    47    1
    99   151   150   ar
   100    83    84    2
   101    83    82    1
   102   142   143    1
   103   142   145    1
   104    50    51    2
   105    86    85    1
   106   146   145    1
   107   146   148   ar
   108    55    56    1
   109    85    82    1
   110    82    81    1
   111   150   148   ar
   112    81    75   am
   113    56    57    2
   114    56    63   am
   115    79    77    1
   116    75    74    1
   117    75    76    2
   118    63    64    1
   119     7     9   ar
   120     7     6   ar
   121     9    10   ar
   122    74    77    1
   123    74    73    1
   124    10     8   ar
   125     6     5    1
   126     6     8   ar
   127     5     2    1
   128    77    78    1
   129    72    71    1
   130    78    80    1
   131    64    65    1
   132    32    30   ar
   133    32    33   ar
   134     2     1    1
   135     2     3    1
   136    67    68    1
   137    71    68    1
   138    65    66    2
   139    34    33    1
   140    68    69    1
   141    30    28   ar
   142    23    24    1
   143    33    31   ar
   144     4     3    2
   145    24    25    1
   146    24    27    1
   147    25    26    2
   148    28    27    1
   149    28    29   ar
   150    69    70    2
   151    31    29   ar
