@<TRIPOS>MOLECULE
tmp/6b77B02.pdb
 90 87 0 0 0
SMALL
GASTEIGER

@<TRIPOS>ATOM
      1  N        101.5310   84.4810   34.4600 N.3    19  TYR19      -0.1227
      2  CA       102.2450   85.7510   34.3310 C.3    19  TYR19       0.1736
      3  C        103.6900   85.5810   34.7650 C.2    19  TYR19       0.2595
      4  O        103.9800   84.9060   35.7550 O.2    19  TYR19      -0.2718
      5  CB       101.6120   86.8570   35.1590 C.3    19  TYR19       0.0548
      6  CG       100.1210   87.0510   34.9630 C.ar   19  TYR19      -0.0200
      7  CD1       99.2070   86.3100   35.7000 C.ar   19  TYR19      -0.0009
      8  CD2       99.6230   88.0080   34.0910 C.ar   19  TYR19      -0.0009
      9  CE1       97.8460   86.4930   35.5470 C.ar   19  TYR19       0.0417
     10  CE2       98.2490   88.1980   33.9380 C.ar   19  TYR19       0.0417
     11  CZ        97.3590   87.4330   34.6610 C.ar   19  TYR19       0.1957
     12  OH        95.9680   87.6030   34.5280 O.3    19  TYR19      -0.2866
     13  N        104.5990   86.1670   33.9980 N.am   20  TRP20      -0.1962
     14  CA       105.9910   86.2120   34.4130 C.3    20  TRP20       0.1771
     15  C        106.6890   87.2460   33.5580 C.2    20  TRP20       0.2620
     16  O        106.3890   87.3620   32.3690 O.2    20  TRP20      -0.2715
     17  CB       106.6760   84.8580   34.2640 C.3    20  TRP20       0.0590
     18  CG       106.9280   84.4860   32.8290 C.ar   20  TRP20       0.0006
     19  CD1      108.0960   84.6160   32.1440 C.ar   20  TRP20       0.0946
     20  CD2      105.9830   83.9250   31.9060 C.ar   20  TRP20       0.0152
     21  NE1      107.9460   84.1690   30.8590 N.ar   20  TRP20      -0.2442
     22  CE2      106.6590   83.7280   30.6870 C.ar   20  TRP20       0.0810
     23  CE3      104.6400   83.5540   32.0000 C.ar   20  TRP20       0.0012
     24  CZ2      106.0290   83.2040   29.5530 C.ar   20  TRP20       0.0191
     25  CZ3      104.0140   83.0210   30.8710 C.ar   20  TRP20       0.0001
     26  CH2      104.7090   82.8620   29.6660 C.ar   20  TRP20       0.0015
     27  N        107.5990   88.0010   34.1700 N.am   21  GLY21      -0.1954
     28  CA       108.3130   89.0510   33.4700 C.3    21  GLY21       0.1869
     29  C        107.3930   89.9610   32.6830 C.2    21  GLY21       0.2309
     30  O        106.5340   90.6330   33.2570 O.2    21  GLY21      -0.2863
     31  N        103.9220   83.3540   38.0740 N.3    52  THR52      -0.1218
     32  CA       102.7420   83.5470   38.9120 C.3    52  THR52       0.1862
     33  C        101.5520   82.9670   38.1730 C.2    52  THR52       0.2287
     34  O        101.3510   83.2760   36.9960 O.2    52  THR52      -0.2866
     35  CB       102.4880   85.0280   39.2310 C.3    52  THR52       0.1770
     36  OG1      103.4740   85.4810   40.1630 O.3    52  THR52      -0.2211
     37  CG2      101.1280   85.2170   39.8310 C.3    52  THR52       0.0375
     38  N         97.3790   82.5330   38.2870 N.3    54  VAL54      -0.1245
     39  CA        96.1680   83.0880   38.8610 C.3    54  VAL54       0.1561
     40  C         94.9840   82.2890   38.3410 C.2    54  VAL54       0.2260
     41  O         94.7870   82.1640   37.1180 O.2    54  VAL54      -0.2867
     42  CB        96.0220   84.5800   38.5140 C.3    54  VAL54       0.0252
     43  CG1       94.8050   85.1550   39.1690 C.3    54  VAL54       0.0019
     44  CG2       97.3270   85.3570   38.9180 C.3    54  VAL54       0.0019
     45  N         90.1690   83.9530   37.4470 N.3    57  GLN57      -0.1245
     46  CA        90.2130   85.2980   36.8970 C.3    57  GLN57       0.1566
     47  C         89.1930   85.4610   35.7670 C.2    57  GLN57       0.2260
     48  O         88.8810   84.5130   35.0460 O.2    57  GLN57      -0.2867
     49  CB        91.6300   85.5780   36.3830 C.3    57  GLN57       0.0367
     50  CG        91.9930   87.0320   36.1430 C.3    57  GLN57       0.0905
     51  CD        93.5050   87.2910   36.2680 C.2    57  GLN57       0.2608
     52  OE1       93.9100   88.2400   36.9160 O.2    57  GLN57      -0.2717
     53  NE2       94.3290   86.4560   35.6390 N.am   57  GLN57      -0.0878
     54  N         94.7880   90.2780   34.2750 N.3    61  ASN61      -0.1225
     55  CA        95.5750   91.0750   35.2250 C.3    61  ASN61       0.1785
     56  C         94.7400   91.9960   36.1070 C.2    61  ASN61       0.2597
     57  O         95.2580   92.9860   36.6130 O.2    61  ASN61      -0.2718
     58  CB        96.6460   91.9140   34.5250 C.3    61  ASN61       0.1169
     59  CG        97.8200   92.1650   35.4270 C.2    61  ASN61       0.2627
     60  OD1       98.3400   93.2800   35.5060 O.2    61  ASN61      -0.2716
     61  ND2       98.2260   91.0930   36.1500 N.am   61  ASN61      -0.0877
     62  N         93.5080   91.5900   36.3730 N.am   62  HIS62      -0.1961
     63  CA        92.6080   92.3490   37.2150 C.3    62  HIS62       0.1787
     64  C         92.3540   91.5550   38.4910 C.2    62  HIS62       0.2620
     65  O         91.9960   90.3820   38.4310 O.2    62  HIS62      -0.2715
     66  CB        91.2920   92.5590   36.4710 C.3    62  HIS62       0.0785
     67  CG        90.9690   93.9920   36.1940 C.ar   62  HIS62       0.0821
     68  ND1       91.3620   94.6310   35.0390 N.ar   62  HIS62      -0.2267
     69  CD2       90.2780   94.9060   36.9140 C.ar   62  HIS62       0.1154
     70  CE1       90.9330   95.8800   35.0620 C.ar   62  HIS62       0.1986
     71  NE2       90.2720   96.0730   36.1890 N.ar   62  HIS62      -0.2212
     72  N         92.5450   92.1920   39.6450 N.am   63  SER63      -0.1950
     73  CA        92.3080   91.5510   40.9390 C.3    63  SER63       0.1924
     74  C         90.8100   91.3170   41.0840 C.2    63  SER63       0.2314
     75  O         90.0130   92.1290   40.6160 O.2    63  SER63      -0.2863
     76  CB        92.8140   92.4340   42.0780 C.3    63  SER63       0.2116
     77  OG        94.1630   92.8100   41.8740 O.3    63  SER63      -0.2180
     78  N         89.3310   85.3680   42.6000 N.3    67  CYS67      -0.1235
     79  CA        90.6820   85.1150   42.1020 C.3    67  CYS67       0.1677
     80  C         91.5470   84.4580   43.1590 C.2    67  CYS67       0.2270
     81  O         91.4560   84.7750   44.3400 O.2    67  CYS67      -0.2867
     82  CB        91.3620   86.4280   41.6850 C.3    67  CYS67       0.0956
     83  SG        90.7770   87.2170   40.1570 S.3    67  CYS67      -0.0801
     84  N         95.7980   83.5490   43.6440 N.3    69  THR69      -0.1218
     85  CA        97.1430   83.6210   43.0860 C.3    69  THR69       0.1862
     86  C         97.9940   82.5320   43.7100 C.2    69  THR69       0.2287
     87  O         97.8260   82.1860   44.8860 O.2    69  THR69      -0.2866
     88  CB        97.7880   85.0000   43.3100 C.3    69  THR69       0.1770
     89  OG1       96.9190   86.0060   42.7790 O.3    69  THR69      -0.2211
     90  CG2       99.1280   85.1140   42.5830 C.3    69  THR69       0.0375
@<TRIPOS>BOND
     1    24    26   ar
     2    24    22   ar
     3    26    25   ar
     4    22    21   ar
     5    22    20   ar
     6    21    19   ar
     7    25    23   ar
     8    20    23   ar
     9    20    18   ar
    10    19    18   ar
    11    16    15    2
    12    29    30    2
    13    29    28    1
    14    18    17    1
    15    28    27    1
    16    15    27   am
    17    15    14    1
    18    10     8   ar
    19    10    11   ar
    20    13    14    1
    21    13     3   am
    22     8     6   ar
    23    17    14    1
    24    54    55    1
    25     2     1    1
    26     2     3    1
    27     2     5    1
    28    58    55    1
    29    58    59    1
    30    12    11    1
    31    11     9   ar
    32     3     4    2
    33     6     5    1
    34     6     7   ar
    35    68    70   ar
    36    68    67   ar
    37    48    47    2
    38    70    71   ar
    39    55    56    1
    40    59    60    2
    41    59    61   am
    42     9     7   ar
    43    53    51   am
    44    47    46    1
    45    56    62   am
    46    56    57    2
    47    50    51    1
    48    50    49    1
    49    71    69   ar
    50    67    66    1
    51    67    69   ar
    52    51    52    2
    53    62    63    1
    54    49    46    1
    55    66    63    1
    56    46    45    1
    57    34    33    2
    58    41    40    2
    59    63    64    1
    60    31    32    1
    61    33    32    1
    62    38    39    1
    63    40    39    1
    64    65    64    2
    65    64    72   am
    66    42    39    1
    67    42    44    1
    68    42    43    1
    69    32    35    1
    70    35    37    1
    71    35    36    1
    72    72    73    1
    73    83    82    1
    74    75    74    2
    75    73    74    1
    76    73    76    1
    77    82    79    1
    78    77    76    1
    79    79    78    1
    80    79    80    1
    81    90    88    1
    82    89    88    1
    83    85    88    1
    84    85    84    1
    85    85    86    1
    86    80    81    2
    87    86    87    2
