@<TRIPOS>MOLECULE
tmp/6b7aB00.pdb
 95 91 0 0 0
SMALL
GASTEIGER

@<TRIPOS>ATOM
      1  N         -8.6180  -19.6510   35.5410 N.3    36  ALA36      -0.1245
      2  CA        -8.1420  -20.1840   34.2720 C.3    36  ALA36       0.1562
      3  C         -8.0890  -19.0840   33.2170 C.2    36  ALA36       0.2260
      4  O         -8.9900  -18.2430   33.1290 O.2    36  ALA36      -0.2867
      5  CB        -9.0430  -21.3290   33.8060 C.3    36  ALA36       0.0290
      6  N         -3.8860  -19.1570   36.1400 N.3    69  PHE69      -0.1227
      7  CA        -3.1650  -20.2750   35.5550 C.3    69  PHE69       0.1736
      8  C         -3.6590  -20.5480   34.1470 C.2    69  PHE69       0.2596
      9  O         -4.8310  -20.3330   33.8230 O.2    69  PHE69      -0.2718
     10  CB        -3.2870  -21.5510   36.4070 C.3    69  PHE69       0.0547
     11  CG        -4.6420  -22.2170   36.3400 C.ar   69  PHE69      -0.0202
     12  CD1       -5.7360  -21.6890   37.0120 C.ar   69  PHE69      -0.0042
     13  CD2       -4.8110  -23.3820   35.6110 C.ar   69  PHE69      -0.0042
     14  CE1       -6.9730  -22.3130   36.9510 C.ar   69  PHE69      -0.0003
     15  CE2       -6.0400  -24.0060   35.5440 C.ar   69  PHE69      -0.0003
     16  CZ        -7.1240  -23.4710   36.2160 C.ar   69  PHE69      -0.0000
     17  N         -2.7380  -21.0430   33.3260 N.am   70  SER70      -0.1938
     18  CA        -3.0400  -21.5300   31.9970 C.3    70  SER70       0.2055
     19  C         -2.7360  -23.0140   31.8830 C.2    70  SER70       0.2643
     20  O         -2.8830  -23.5800   30.7950 O.2    70  SER70      -0.2714
     21  CB        -2.2490  -20.7600   30.9290 C.3    70  SER70       0.2130
     22  OG        -0.8480  -20.8290   31.1570 O.3    70  SER70      -0.2179
     23  N         -2.3510  -23.6670   32.9790 N.am   71  ASP71      -0.1957
     24  CA        -2.0300  -25.0820   32.9230 C.3    71  ASP71       0.1840
     25  C         -3.3010  -25.9090   32.8370 C.2    71  ASP71       0.2622
     26  O         -4.4230  -25.4060   32.9460 O.2    71  ASP71      -0.2715
     27  CB        -1.2870  -25.5300   34.1810 C.3    71  ASP71       0.1450
     28  CG         0.0160  -24.7970   34.3990 C.2    71  ASP71       0.3671
     29  OD1        0.6120  -24.3140   33.4260 O.co2  71  ASP71      -0.2456
     30  OD2        0.4640  -24.7190   35.5530 O.co2  71  ASP71      -0.2456
     31  N         -3.1130  -27.2140   32.6990 N.am   72  LEU72      -0.1963
     32  CA        -4.2130  -28.1330   32.9080 C.3    72  LEU72       0.1728
     33  C         -4.5790  -28.0240   34.3780 C.2    72  LEU72       0.2616
     34  O         -3.6930  -28.0710   35.2360 O.2    72  LEU72      -0.2715
     35  CB        -3.7670  -29.5480   32.5590 C.3    72  LEU72       0.0311
     36  CG        -4.7040  -30.7470   32.6180 C.3    72  LEU72       0.0022
     37  CD1       -5.6690  -30.6980   31.4540 C.3    72  LEU72       0.0001
     38  CD2       -3.8810  -32.0300   32.6000 C.3    72  LEU72       0.0001
     39  N         -5.8720  -27.8530   34.6790 N.am   73  MET73      -0.1963
     40  CA        -6.2590  -27.6610   36.0770 C.3    73  MET73       0.1736
     41  C         -5.7950  -28.8280   36.9500 C.2    73  MET73       0.2616
     42  O         -5.4340  -28.6270   38.1150 O.2    73  MET73      -0.2715
     43  CB        -7.7570  -27.3560   36.2430 C.3    73  MET73       0.0427
     44  CG        -8.8000  -28.4110   35.9760 C.3    73  MET73       0.0599
     45  SD       -10.4500  -27.7350   36.3640 S.3    73  MET73      -0.1393
     46  CE       -10.6550  -26.4420   35.1330 C.3    73  MET73       0.0692
     47  N         -5.8160  -30.0560   36.4220 N.am   74  ALA74      -0.1977
     48  CA        -5.3750  -31.1980   37.2210 C.3    74  ALA74       0.1597
     49  C         -3.9040  -31.0620   37.6150 C.2    74  ALA74       0.2287
     50  O         -3.5320  -31.3180   38.7670 O.2    74  ALA74      -0.2864
     51  CB        -5.6090  -32.4970   36.4540 C.3    74  ALA74       0.0319
     52  N        -22.0170  -31.0700   32.7060 N.3    97  TYR97      -0.1241
     53  CA       -20.6660  -30.6880   32.3180 C.3    97  TYR97       0.1605
     54  C        -19.6750  -30.9150   33.4530 C.2    97  TYR97       0.2264
     55  O        -18.5550  -31.3850   33.2190 O.2    97  TYR97      -0.2867
     56  CB       -20.6510  -29.2240   31.8800 C.3    97  TYR97       0.0534
     57  CG       -19.2830  -28.7080   31.5100 C.ar   97  TYR97      -0.0201
     58  CD1      -18.5830  -29.2370   30.4340 C.ar   97  TYR97      -0.0009
     59  CD2      -18.6800  -27.7050   32.2570 C.ar   97  TYR97      -0.0009
     60  CE1      -17.3280  -28.7640   30.1000 C.ar   97  TYR97       0.0417
     61  CE2      -17.4270  -27.2290   31.9350 C.ar   97  TYR97       0.0417
     62  CZ       -16.7550  -27.7600   30.8570 C.ar   97  TYR97       0.1957
     63  OH       -15.5060  -27.2810   30.5400 O.3    97  TYR97      -0.2866
     64  N        -16.1680  -33.1920   33.4740 N.3   101  LEU101     -0.1245
     65  CA       -14.9210  -32.6460   34.0040 C.3   101  LEU101      0.1561
     66  C        -14.3730  -33.4850   35.1490 C.2   101  LEU101      0.2260
     67  O        -13.1740  -33.7940   35.1900 O.2   101  LEU101     -0.2867
     68  CB       -15.1790  -31.2210   34.4910 C.3   101  LEU101      0.0270
     69  CG       -15.2970  -30.0730   33.5050 C.3   101  LEU101      0.0019
     70  CD1      -14.7100  -28.8160   34.1440 C.3   101  LEU101      0.0001
     71  CD2      -14.5860  -30.4020   32.2190 C.3   101  LEU101      0.0001
     72  N        -12.9170  -36.7430   33.9790 N.3   104  MET104     -0.1230
     73  CA       -11.6400  -36.5160   33.3120 C.3   104  MET104      0.1702
     74  C        -10.5490  -36.1990   34.3300 C.2   104  MET104      0.2592
     75  O         -9.4480  -36.7580   34.2670 O.2   104  MET104     -0.2718
     76  CB       -11.7740  -35.3960   32.2760 C.3   104  MET104      0.0401
     77  CG       -10.4930  -35.1120   31.5000 C.3   104  MET104      0.0596
     78  SD        -9.9150  -36.5490   30.5730 S.3   104  MET104     -0.1393
     79  CE       -11.1380  -36.6250   29.2640 C.3   104  MET104      0.0692
     80  N        -10.8440  -35.3110   35.2880 N.am  105  ASN105     -0.1974
     81  CA        -9.8570  -34.9570   36.3050 C.3   105  ASN105      0.1688
     82  C         -9.4850  -36.1630   37.1600 C.2   105  ASN105      0.2292
     83  O         -8.3250  -36.3110   37.5620 O.2   105  ASN105     -0.2864
     84  CB       -10.3760  -33.8210   37.1870 C.3   105  ASN105      0.1181
     85  CG       -10.1920  -32.4610   36.5580 C.2   105  ASN105      0.2629
     86  OD1      -11.0130  -31.5630   36.7390 O.2   105  ASN105     -0.2716
     87  ND2       -9.1060  -32.3000   35.8140 N.am  105  ASN105     -0.0877
     88  N         -6.9370  -37.9630   35.2560 N.3   108  LEU108     -0.1245
     89  CA        -5.6650  -37.2460   35.2590 C.3   108  LEU108      0.1561
     90  C         -5.0060  -37.1950   36.6350 C.2   108  LEU108      0.2260
     91  O         -3.7740  -37.1980   36.7270 O.2   108  LEU108     -0.2867
     92  CB        -5.8710  -35.8260   34.7300 C.3   108  LEU108      0.0270
     93  CG        -6.3700  -35.7790   33.2860 C.3   108  LEU108      0.0019
     94  CD1       -6.9690  -34.4150   32.9760 C.3   108  LEU108      0.0001
     95  CD2       -5.2410  -36.1260   32.3210 C.3   108  LEU108      0.0001
@<TRIPOS>BOND
     1    79    78    1
     2    60    58   ar
     3    60    62   ar
     4    58    57   ar
     5    63    62    1
     6    78    77    1
     7    20    19    2
     8    62    61   ar
     9    21    22    1
    10    21    18    1
    11    37    36    1
    12    77    76    1
    13    57    56    1
    14    57    59   ar
    15    56    53    1
    16    19    18    1
    17    19    23   am
    18    61    59   ar
    19    18    17    1
    20    71    69    1
    21    76    73    1
    22    53    52    1
    23    53    54    1
    24    95    93    1
    25    35    36    1
    26    35    32    1
    27    38    36    1
    28    31    25   am
    29    31    32    1
    30    25    24    1
    31    25    26    2
    32    32    33    1
    33    24    23    1
    34    24    27    1
    35    94    93    1
    36     4     3    2
    37     3     2    1
    38    55    54    2
    39    93    92    1
    40    73    72    1
    41    73    74    1
    42    17     8   am
    43    29    28   ar
    44    64    65    1
    45    69    70    1
    46    69    68    1
    47     5     2    1
    48     9     8    2
    49    65    68    1
    50    65    66    1
    51     8     7    1
    52    27    28    1
    53    75    74    2
    54     2     1    1
    55    74    80   am
    56    33    39   am
    57    33    34    2
    58    28    30   ar
    59    39    40    1
    60    92    89    1
    61    46    45    1
    62    66    67    2
    63    88    89    1
    64    89    90    1
    65    80    81    1
    66    15    13   ar
    67    15    16   ar
    68     7     6    1
    69     7    10    1
    70    13    11   ar
    71    87    85   am
    72    44    43    1
    73    44    45    1
    74    40    43    1
    75    40    41    1
    76    16    14   ar
    77    81    82    1
    78    81    84    1
    79    11    10    1
    80    11    12   ar
    81    47    41   am
    82    47    48    1
    83    51    48    1
    84    85    86    2
    85    85    84    1
    86    90    91    2
    87    41    42    2
    88    14    12   ar
    89    82    83    2
    90    48    49    1
    91    49    50    2
