@<TRIPOS>MOLECULE
tmp/6b7aB01.pdb
 114 111 0 0 0
SMALL
GASTEIGER

@<TRIPOS>ATOM
      1  N        -10.3190  -23.9480   43.9280 N.3     6  TYR6       -0.1228
      2  CA       -11.6110  -23.5610   43.3630 C.3     6  TYR6        0.1721
      3  C        -11.3260  -22.9320   42.0060 C.2     6  TYR6        0.2437
      4  O        -11.0670  -21.7220   41.9110 O.2     6  TYR6       -0.2733
      5  CB       -12.3610  -22.6110   44.2960 C.3     6  TYR6        0.0547
      6  CG       -13.6920  -22.1090   43.7710 C.ar    6  TYR6       -0.0200
      7  CD1      -14.4380  -22.8420   42.8500 C.ar    6  TYR6       -0.0009
      8  CD2      -14.2060  -20.9000   44.2120 C.ar    6  TYR6       -0.0009
      9  CE1      -15.6550  -22.3650   42.3770 C.ar    6  TYR6        0.0417
     10  CE2      -15.4060  -20.4210   43.7510 C.ar    6  TYR6        0.0417
     11  CZ       -16.1280  -21.1510   42.8410 C.ar    6  TYR6        0.1957
     12  OH       -17.3220  -20.6370   42.4120 O.3     6  TYR6       -0.2866
     13  N        -11.3480  -23.7190   40.9340 N.am    7  PRO7       -0.2718
     14  CA       -10.9880  -23.2030   39.6140 C.3     7  PRO7        0.1535
     15  C        -12.1970  -22.7300   38.8260 C.2     7  PRO7        0.2599
     16  O        -13.3230  -23.1960   39.0100 O.2     7  PRO7       -0.2715
     17  CB       -10.3510  -24.4260   38.9410 C.3     7  PRO7        0.0310
     18  CG       -11.1110  -25.5780   39.5200 C.3     7  PRO7        0.0237
     19  CD       -11.5470  -25.1790   40.9160 C.3     7  PRO7        0.0939
     20  N        -11.9410  -21.7820   37.9360 N.am    8  GLY8       -0.1955
     21  CA       -12.9920  -21.2480   37.0930 C.3     8  GLY8        0.1869
     22  C        -12.4500  -20.1150   36.2550 C.2     8  GLY8        0.2309
     23  O        -11.3010  -19.6880   36.4100 O.2     8  GLY8       -0.2863
     24  N        -14.0900  -17.0470   36.0700 N.3    10  PHE10      -0.1241
     25  CA       -14.3320  -15.8540   36.8870 C.3    10  PHE10       0.1605
     26  C        -14.2260  -14.5690   36.0620 C.2    10  PHE10       0.2264
     27  O        -13.4100  -13.6870   36.3320 O.2    10  PHE10      -0.2867
     28  CB       -13.3840  -15.8020   38.0900 C.3    10  PHE10       0.0534
     29  CG       -13.4320  -17.0250   38.9700 C.ar   10  PHE10      -0.0203
     30  CD1      -14.4850  -17.2180   39.8520 C.ar   10  PHE10      -0.0042
     31  CD2      -12.4060  -17.9580   38.9460 C.ar   10  PHE10      -0.0042
     32  CE1      -14.5280  -18.3330   40.6740 C.ar   10  PHE10      -0.0003
     33  CE2      -12.4410  -19.0720   39.7690 C.ar   10  PHE10      -0.0003
     34  CZ       -13.5030  -19.2600   40.6320 C.ar   10  PHE10      -0.0000
     35  N        -22.0910  -15.0770   43.4760 N.3    16  GLY16      -0.1210
     36  CA       -22.2310  -16.5230   43.5110 C.3    16  GLY16       0.1956
     37  C        -20.9020  -17.2050   43.7600 C.2    16  GLY16       0.2611
     38  O        -20.8050  -18.1150   44.5890 O.2    16  GLY16      -0.2717
     39  N        -19.8590  -16.7720   43.0450 N.am   17  HIS17      -0.1975
     40  CA       -18.5110  -17.2590   43.3160 C.3    17  HIS17       0.1656
     41  C        -18.0820  -16.9360   44.7410 C.2    17  HIS17       0.2291
     42  O        -17.4700  -17.7730   45.4150 O.2    17  HIS17      -0.2864
     43  CB       -17.5150  -16.6580   42.3240 C.3    17  HIS17       0.0771
     44  CG       -17.8080  -16.9730   40.8890 C.ar   17  HIS17       0.0820
     45  ND1      -17.9230  -15.9980   39.9230 N.ar   17  HIS17      -0.2267
     46  CD2      -17.9800  -18.1550   40.2520 C.ar   17  HIS17       0.1154
     47  CE1      -18.1670  -16.5630   38.7540 C.ar   17  HIS17       0.1986
     48  NE2      -18.2080  -17.8720   38.9260 N.ar   17  HIS17      -0.2212
     49  N        -19.5010  -19.3850   47.1620 N.3    20  ILE20      -0.1245
     50  CA       -18.8930  -20.7160   47.1010 C.3    20  ILE20       0.1561
     51  C        -17.5270  -20.7250   47.7740 C.2    20  ILE20       0.2260
     52  O        -17.2330  -21.6050   48.5950 O.2    20  ILE20      -0.2867
     53  CB       -18.8110  -21.2090   45.6450 C.3    20  ILE20       0.0252
     54  CG1      -20.2140  -21.3940   45.0610 C.3    20  ILE20       0.0019
     55  CG2      -18.0120  -22.5020   45.5650 C.3    20  ILE20       0.0019
     56  CD1      -21.0240  -22.4920   45.7340 C.3    20  ILE20       0.0001
     57  N        -16.2830  -27.0450   43.0740 N.3    87  ARG87      -0.1231
     58  CA       -17.0830  -26.3960   42.0440 C.3    87  ARG87       0.1694
     59  C        -18.4760  -26.1780   42.6080 C.2    87  ARG87       0.2593
     60  O        -18.9920  -26.9950   43.3750 O.2    87  ARG87      -0.2718
     61  CB       -17.1860  -27.2070   40.7390 C.3    87  ARG87       0.0321
     62  CG       -15.8510  -27.6180   40.1220 C.3    87  ARG87       0.0489
     63  CD       -15.2250  -26.5980   39.1630 C.3    87  ARG87       0.2205
     64  NE       -15.9750  -26.4820   37.9180 N.pl3  87  ARG87      -0.0865
     65  CZ       -15.5740  -25.7880   36.8570 C.cat  87  ARG87       0.5346
     66  NH1      -14.4480  -25.0850   36.8970 N.pl3  87  ARG87       0.1354
     67  NH2      -16.3270  -25.7600   35.7680 N.pl3  87  ARG87       0.1354
     68  N        -19.0840  -25.0640   42.2200 N.am   88  GLY88      -0.1942
     69  CA       -20.4500  -24.7900   42.5960 C.3    88  GLY88       0.2014
     70  C        -21.3410  -25.3740   41.5150 C.2    88  GLY88       0.2639
     71  O        -20.9840  -25.3930   40.3380 O.2    88  GLY88      -0.2714
     72  N        -22.4950  -25.8710   41.9290 N.am   89  LEU89      -0.1963
     73  CA       -23.4480  -26.4640   41.0070 C.3    89  LEU89       0.1728
     74  C        -24.6740  -25.5750   40.9390 C.2    89  LEU89       0.2616
     75  O        -25.2440  -25.2300   41.9710 O.2    89  LEU89      -0.2715
     76  CB       -23.8620  -27.8610   41.4540 C.3    89  LEU89       0.0311
     77  CG       -22.8330  -28.9580   41.2200 C.3    89  LEU89       0.0022
     78  CD1      -23.4530  -30.3210   41.5000 C.3    89  LEU89       0.0001
     79  CD2      -22.2460  -28.8660   39.8210 C.3    89  LEU89       0.0001
     80  N        -25.0910  -25.2200   39.7290 N.am   90  ARG90      -0.1977
     81  CA       -26.2250  -24.3180   39.5660 C.3    90  ARG90       0.1597
     82  C        -27.4240  -25.0110   38.9370 C.2    90  ARG90       0.2287
     83  O        -28.4720  -25.1320   39.5800 O.2    90  ARG90      -0.2864
     84  CB       -25.7930  -23.1120   38.7270 C.3    90  ARG90       0.0334
     85  CG       -26.5990  -21.8680   38.9410 C.3    90  ARG90       0.0492
     86  CD       -25.9750  -20.7180   38.1790 C.3    90  ARG90       0.2205
     87  NE       -25.4290  -21.1460   36.8950 N.pl3  90  ARG90      -0.0865
     88  CZ       -24.1820  -20.9130   36.4990 C.cat  90  ARG90       0.5346
     89  NH1      -23.3500  -20.2380   37.2820 N.pl3  90  ARG90       0.1354
     90  NH2      -23.7700  -21.3420   35.3150 N.pl3  90  ARG90       0.1354
     91  N        -25.0180  -27.2890   34.0960 N.3    94  ASP94      -0.1239
     92  CA       -23.8050  -27.2970   34.9040 C.3    94  ASP94       0.1674
     93  C        -23.4490  -28.7160   35.3330 C.2    94  ASP94       0.2266
     94  O        -22.3660  -29.2180   35.0140 O.2    94  ASP94      -0.2867
     95  CB       -23.9890  -26.3920   36.1220 C.3    94  ASP94       0.1410
     96  CG       -24.2870  -24.9580   35.7390 C.2    94  ASP94       0.3668
     97  OD1      -23.3470  -24.2410   35.3360 O.co2  94  ASP94      -0.2456
     98  OD2      -25.4660  -24.5540   35.8230 O.co2  94  ASP94      -0.2456
     99  N        -20.0670  -30.5940   34.6900 N.3    98  GLU98      -0.1245
    100  CA       -19.1800  -30.8290   35.8260 C.3    98  GLU98       0.1567
    101  C        -18.8780  -32.3160   35.9950 C.2    98  GLU98       0.2260
    102  O        -17.7750  -32.6900   36.4090 O.2    98  GLU98      -0.2867
    103  CB       -19.7930  -30.2560   37.1060 C.3    98  GLU98       0.0388
    104  CG       -19.8870  -28.7280   37.1720 C.3    98  GLU98       0.1160
    105  CD       -18.5530  -28.0250   36.9860 C.2    98  GLU98       0.3649
    106  OE1      -17.5080  -28.5760   37.3990 O.co2  98  GLU98      -0.2457
    107  OE2      -18.5560  -26.8990   36.4460 O.co2  98  GLU98      -0.2457
    108  N        -25.1660  -23.4580   45.5450 N.3   119  PRO119     -0.2116
    109  CA       -25.1790  -22.0470   45.9350 C.3   119  PRO119      0.1372
    110  C        -26.4320  -21.6710   46.7110 C.2   119  PRO119      0.2244
    111  O        -27.4450  -22.3730   46.6980 O.2   119  PRO119     -0.2868
    112  CB       -25.1500  -21.3120   44.5980 C.3   119  PRO119      0.0268
    113  CG       -25.8760  -22.2270   43.6900 C.3   119  PRO119      0.0207
    114  CD       -25.6800  -23.6380   44.1880 C.3   119  PRO119      0.0892
@<TRIPOS>BOND
     1    91    92    1
     2    99   100    1
     3    92    93    1
     4    92    95    1
     5    94    93    2
     6    90    88    1
     7    97    96   ar
     8    96    98   ar
     9    96    95    1
    10    67    65    1
    11   100   101    1
    12   100   103    1
    13   101   102    2
    14    26    27    2
    15    26    25    1
    16    24    25    1
    17    22    23    2
    18    22    21    1
    19   107   105   ar
    20    88    87    2
    21    88    89    1
    22    65    66    1
    23    65    64    2
    24    25    28    1
    25    87    86    1
    26   105   104    1
    27   105   106   ar
    28    21    20    1
    29   103   104    1
    30    64    63    1
    31    20    15   am
    32    28    29    1
    33    86    85    1
    34    84    85    1
    35    84    81    1
    36    47    48   ar
    37    47    45   ar
    38    15    16    2
    39    15    14    1
    40    48    46   ar
    41    82    81    1
    42    82    83    2
    43    17    18    1
    44    17    14    1
    45    31    29   ar
    46    31    33   ar
    47    29    30   ar
    48    63    62    1
    49    18    19    1
    50    81    80    1
    51    14    13    1
    52    80    74   am
    53    33    34   ar
    54    79    77    1
    55    30    32   ar
    56    45    44   ar
    57    62    61    1
    58    46    44   ar
    59    71    70    2
    60    34    32   ar
    61    61    58    1
    62    44    43    1
    63    19    13    1
    64    13     3   am
    65    74    73    1
    66    74    75    2
    67    73    76    1
    68    73    72    1
    69    77    76    1
    70    77    78    1
    71    70    72   am
    72    70    69    1
    73     4     3    2
    74     3     2    1
    75    58    59    1
    76    58    57    1
    77    68    69    1
    78    68    59   am
    79    43    40    1
    80     9    11   ar
    81     9     7   ar
    82    12    11    1
    83    59    60    2
    84    11    10   ar
    85     7     6   ar
    86    39    40    1
    87    39    37   am
    88    40    41    1
    89     2     1    1
    90     2     5    1
    91    35    36    1
    92    36    37    1
    93   113   114    1
    94   113   112    1
    95    10     8   ar
    96    37    38    2
    97     6     8   ar
    98     6     5    1
    99   114   108    1
   100   112   109    1
   101    41    42    2
   102    54    53    1
   103    54    56    1
   104   108   109    1
   105    55    53    1
   106    53    50    1
   107   109   110    1
   108   111   110    2
   109    50    49    1
   110    50    51    1
   111    51    52    2
