@<TRIPOS>MOLECULE
tmp/6b7aB02.pdb
 112 106 0 0 0
SMALL
GASTEIGER

@<TRIPOS>ATOM
      1  N        -11.9410  -21.7820   37.9360 N.3     8  GLY8       -0.1210
      2  CA       -12.9920  -21.2480   37.0930 C.3     8  GLY8        0.1956
      3  C        -12.4500  -20.1150   36.2550 C.2     8  GLY8        0.2613
      4  O        -11.3010  -19.6880   36.4100 O.2     8  GLY8       -0.2717
      5  N        -13.3030  -19.6240   35.3580 N.am    9  THR9       -0.1938
      6  CA       -12.9030  -18.5130   34.5040 C.3     9  THR9        0.2028
      7  C        -13.0800  -17.1690   35.2050 C.2     9  THR9        0.2642
      8  O        -12.2810  -16.2540   34.9780 O.2     9  THR9       -0.2714
      9  CB       -13.6890  -18.5640   33.1910 C.3     9  THR9        0.1808
     10  OG1      -13.4280  -19.8130   32.5370 O.3     9  THR9       -0.2208
     11  CG2      -13.2730  -17.4310   32.2660 C.3     9  THR9        0.0379
     12  N        -14.0900  -17.0470   36.0700 N.am   10  PHE10      -0.1959
     13  CA       -14.3320  -15.8540   36.8870 C.3    10  PHE10       0.1771
     14  C        -14.2260  -14.5690   36.0620 C.2    10  PHE10       0.2619
     15  O        -13.4100  -13.6870   36.3320 O.2    10  PHE10      -0.2715
     16  CB       -13.3840  -15.8020   38.0900 C.3    10  PHE10       0.0574
     17  CG       -13.4320  -17.0250   38.9700 C.ar   10  PHE10      -0.0200
     18  CD1      -14.4850  -17.2180   39.8520 C.ar   10  PHE10      -0.0042
     19  CD2      -12.4060  -17.9580   38.9460 C.ar   10  PHE10      -0.0042
     20  CE1      -14.5280  -18.3330   40.6740 C.ar   10  PHE10      -0.0003
     21  CE2      -12.4410  -19.0720   39.7690 C.ar   10  PHE10      -0.0003
     22  CZ       -13.5030  -19.2600   40.6320 C.ar   10  PHE10      -0.0000
     23  N        -15.0820  -14.4710   35.0420 N.am   11  ASP11      -0.1971
     24  CA       -15.0430  -13.3870   34.0600 C.3    11  ASP11       0.1709
     25  C        -16.3640  -12.6230   34.0560 C.2    11  ASP11       0.2293
     26  O        -17.1670  -12.7630   33.1210 O.2    11  ASP11      -0.2864
     27  CB       -14.7300  -13.9300   32.6670 C.3    11  ASP11       0.1436
     28  CG       -14.6430  -12.8370   31.6170 C.2    11  ASP11       0.3671
     29  OD1      -13.9180  -11.8470   31.8470 O.co2  11  ASP11      -0.2456
     30  OD2      -15.3030  -12.9720   30.5640 O.co2  11  ASP11      -0.2456
     31  N        -18.4360  -13.2260   40.6210 N.3    14  THR14      -0.1218
     32  CA       -19.7480  -12.7700   41.0650 C.3    14  THR14       0.1862
     33  C        -19.9510  -13.0750   42.5430 C.2    14  THR14       0.2287
     34  O        -19.1320  -13.7340   43.1890 O.2    14  THR14      -0.2866
     35  CB       -20.8740  -13.4350   40.2620 C.3    14  THR14       0.1770
     36  OG1      -21.0660  -14.7760   40.7330 O.3    14  THR14      -0.2211
     37  CG2      -20.5430  -13.4680   38.7780 C.3    14  THR14       0.0375
     38  N        -19.8590  -16.7720   43.0450 N.3    17  HIS17      -0.1241
     39  CA       -18.5110  -17.2590   43.3160 C.3    17  HIS17       0.1621
     40  C        -18.0820  -16.9360   44.7410 C.2    17  HIS17       0.2264
     41  O        -17.4700  -17.7730   45.4150 O.2    17  HIS17      -0.2867
     42  CB       -17.5150  -16.6580   42.3240 C.3    17  HIS17       0.0745
     43  CG       -17.8080  -16.9730   40.8890 C.ar   17  HIS17       0.0817
     44  ND1      -17.9230  -15.9980   39.9230 N.ar   17  HIS17      -0.2268
     45  CD2      -17.9800  -18.1550   40.2520 C.ar   17  HIS17       0.1154
     46  CE1      -18.1670  -16.5630   38.7540 C.ar   17  HIS17       0.1986
     47  NE2      -18.2080  -17.8720   38.9260 N.ar   17  HIS17      -0.2212
     48  N        -12.7860  -19.0520   25.5150 N.3    41  LYS41      -0.1245
     49  CA       -14.0290  -18.3770   25.8620 C.3    41  LYS41       0.1561
     50  C        -13.9960  -16.8830   25.5670 C.2    41  LYS41       0.2260
     51  O        -15.0100  -16.2070   25.7760 O.2    41  LYS41      -0.2867
     52  CB       -14.3470  -18.5940   27.3450 C.3    41  LYS41       0.0271
     53  CG       -14.4430  -20.0490   27.7550 C.3    41  LYS41       0.0035
     54  CD       -14.8030  -20.1820   29.2250 C.3    41  LYS41       0.0206
     55  CE       -14.9830  -21.6410   29.6150 C.3    41  LYS41       0.1093
     56  NZ       -15.4270  -21.7970   31.0280 N.3    41  LYS41      -0.1314
     57  N        -16.2830  -27.0450   43.0740 N.3    87  ARG87      -0.1245
     58  CA       -17.0830  -26.3960   42.0440 C.3    87  ARG87       0.1563
     59  C        -18.4760  -26.1780   42.6080 C.2    87  ARG87       0.2260
     60  O        -18.9920  -26.9950   43.3750 O.2    87  ARG87      -0.2867
     61  CB       -17.1860  -27.2070   40.7390 C.3    87  ARG87       0.0307
     62  CG       -15.8510  -27.6180   40.1220 C.3    87  ARG87       0.0489
     63  CD       -15.2250  -26.5980   39.1630 C.3    87  ARG87       0.2205
     64  NE       -15.9750  -26.4820   37.9180 N.pl3  87  ARG87      -0.0865
     65  CZ       -15.5740  -25.7880   36.8570 C.cat  87  ARG87       0.5346
     66  NH1      -14.4480  -25.0850   36.8970 N.pl3  87  ARG87       0.1354
     67  NH2      -16.3270  -25.7600   35.7680 N.pl3  87  ARG87       0.1354
     68  N        -25.0910  -25.2200   39.7290 N.3    90  ARG90      -0.1245
     69  CA       -26.2250  -24.3180   39.5660 C.3    90  ARG90       0.1563
     70  C        -27.4240  -25.0110   38.9370 C.2    90  ARG90       0.2260
     71  O        -28.4720  -25.1320   39.5800 O.2    90  ARG90      -0.2867
     72  CB       -25.7930  -23.1120   38.7270 C.3    90  ARG90       0.0307
     73  CG       -26.5990  -21.8680   38.9410 C.3    90  ARG90       0.0489
     74  CD       -25.9750  -20.7180   38.1790 C.3    90  ARG90       0.2205
     75  NE       -25.4290  -21.1460   36.8950 N.pl3  90  ARG90      -0.0865
     76  CZ       -24.1820  -20.9130   36.4990 C.cat  90  ARG90       0.5346
     77  NH1      -23.3500  -20.2380   37.2820 N.pl3  90  ARG90       0.1354
     78  NH2      -23.7700  -21.3420   35.3150 N.pl3  90  ARG90       0.1354
     79  N        -25.0180  -27.2890   34.0960 N.3    94  ASP94      -0.1239
     80  CA       -23.8050  -27.2970   34.9040 C.3    94  ASP94       0.1674
     81  C        -23.4490  -28.7160   35.3330 C.2    94  ASP94       0.2266
     82  O        -22.3660  -29.2180   35.0140 O.2    94  ASP94      -0.2867
     83  CB       -23.9890  -26.3920   36.1220 C.3    94  ASP94       0.1410
     84  CG       -24.2870  -24.9580   35.7390 C.2    94  ASP94       0.3668
     85  OD1      -23.3470  -24.2410   35.3360 O.co2  94  ASP94      -0.2456
     86  OD2      -25.4660  -24.5540   35.8230 O.co2  94  ASP94      -0.2456
     87  N        -27.9110  -16.8390   38.6470 N.3   126  ILE126     -0.1231
     88  CA       -27.0400  -15.8760   37.9920 C.3   126  ILE126      0.1692
     89  C        -25.7630  -16.5710   37.5370 C.2   126  ILE126      0.2593
     90  O        -25.4010  -17.6550   38.0020 O.2   126  ILE126     -0.2718
     91  CB       -26.7040  -14.6720   38.8960 C.3   126  ILE126      0.0266
     92  CG1      -25.9030  -15.1190   40.1200 C.3   126  ILE126      0.0019
     93  CG2      -27.9790  -13.9540   39.3080 C.3   126  ILE126      0.0020
     94  CD1      -24.7890  -14.1650   40.4980 C.3   126  ILE126      0.0001
     95  N        -25.0850  -15.9240   36.5970 N.am  127  SER127     -0.1938
     96  CA       -23.7970  -16.3670   36.0920 C.3   127  SER127      0.2055
     97  C        -23.0480  -15.1350   35.6130 C.2   127  SER127      0.2644
     98  O        -23.6280  -14.0560   35.4620 O.2   127  SER127     -0.2714
     99  CB       -23.9500  -17.3830   34.9550 C.3   127  SER127      0.2130
    100  OG       -24.6320  -16.8010   33.8540 O.3   127  SER127     -0.2179
    101  N        -21.7450  -15.3030   35.3770 N.am  128  SER128     -0.1935
    102  CA       -20.9680  -14.2210   34.7830 C.3   128  SER128      0.2055
    103  C        -21.5550  -13.8140   33.4400 C.2   128  SER128      0.2643
    104  O        -21.6790  -12.6200   33.1410 O.2   128  SER128     -0.2714
    105  CB       -19.5100  -14.6480   34.6160 C.3   128  SER128      0.2130
    106  OG       -18.8590  -14.7610   35.8680 O.3   128  SER128     -0.2179
    107  N        -21.9340  -14.8020   32.6250 N.am  129  SER129     -0.1949
    108  CA       -22.5070  -14.5270   31.3110 C.3   129  SER129      0.1924
    109  C        -23.7760  -13.6910   31.4210 C.2   129  SER129      0.2314
    110  O        -23.9260  -12.6750   30.7330 O.2   129  SER129     -0.2863
    111  CB       -22.7890  -15.8450   30.5890 C.3   129  SER129      0.2116
    112  OG       -23.6260  -15.6460   29.4650 O.3   129  SER129     -0.2180
@<TRIPOS>BOND
     1    48    49    1
     2    50    51    2
     3    50    49    1
     4    49    52    1
     5    52    53    1
     6    53    54    1
     7    54    55    1
     8   112   111    1
     9    55    56    1
    10    30    28   ar
    11   111   108    1
    12   110   109    2
    13   108   109    1
    14   108   107    1
    15    28    29   ar
    16    28    27    1
    17    11     9    1
    18    10     9    1
    19   107   103   am
    20    27    24    1
    21    26    25    2
    22   104   103    2
    23     9     6    1
    24   103   102    1
    25   100    99    1
    26    25    24    1
    27    24    23    1
    28    79    80    1
    29     6     7    1
    30     6     5    1
    31   105   102    1
    32   105   106    1
    33   102   101    1
    34    80    81    1
    35    80    83    1
    36    99    96    1
    37     8     7    2
    38    82    81    2
    39    23    14   am
    40     7    12   am
    41    78    76    1
    42    85    84   ar
    43     5     3   am
    44   101    97   am
    45    98    97    2
    46    97    96    1
    47    84    86   ar
    48    84    83    1
    49    67    65    1
    50    14    15    2
    51    14    13    1
    52    12    13    1
    53    96    95    1
    54     3     4    2
    55     3     2    1
    56    76    75    2
    57    76    77    1
    58    95    89   am
    59    65    66    1
    60    65    64    2
    61    13    16    1
    62    75    74    1
    63     2     1    1
    64    89    88    1
    65    89    90    2
    66    64    63    1
    67    88    87    1
    68    88    91    1
    69    16    17    1
    70    74    73    1
    71    72    73    1
    72    72    69    1
    73    46    47   ar
    74    46    44   ar
    75    37    35    1
    76    91    93    1
    77    91    92    1
    78    47    45   ar
    79    70    69    1
    80    70    71    2
    81    19    17   ar
    82    19    21   ar
    83    17    18   ar
    84    63    62    1
    85    69    68    1
    86    21    22   ar
    87    18    20   ar
    88    44    43   ar
    89    92    94    1
    90    62    61    1
    91    45    43   ar
    92    35    36    1
    93    35    32    1
    94    31    32    1
    95    22    20   ar
    96    61    58    1
    97    43    42    1
    98    32    33    1
    99    58    59    1
   100    58    57    1
   101    42    39    1
   102    33    34    2
   103    59    60    2
   104    38    39    1
   105    39    40    1
   106    40    41    2
