@<TRIPOS>MOLECULE
tmp/6b7bA00.pdb
 99 92 0 0 0
SMALL
GASTEIGER

@<TRIPOS>ATOM
      1  N        -39.8660   25.6070   55.4640 N.3     8  PRO8       -0.2102
      2  CA       -40.5570   26.8410   55.8460 C.3     8  PRO8        0.1504
      3  C        -41.2550   27.5110   54.6800 C.2     8  PRO8        0.2576
      4  O        -40.8930   27.3220   53.5150 O.2     8  PRO8       -0.2718
      5  CB       -39.4200   27.7080   56.3840 C.3     8  PRO8        0.0282
      6  CG       -38.2690   27.3280   55.4980 C.3     8  PRO8        0.0208
      7  CD       -38.4530   25.8570   55.1460 C.3     8  PRO8        0.0893
      8  N        -42.2610   28.3050   55.0050 N.am    9  GLY9       -0.1943
      9  CA       -43.0240   29.0170   54.0040 C.3     9  GLY9        0.2014
     10  C        -44.1910   29.7060   54.6710 C.2     9  GLY9        0.2639
     11  O        -44.4200   29.5710   55.8770 O.2     9  GLY9       -0.2714
     12  N        -44.9210   30.4640   53.8630 N.am   10  THR10      -0.1950
     13  CA       -46.1140   31.1330   54.3580 C.3    10  THR10       0.1897
     14  C        -47.3500   30.2500   54.2680 C.2    10  THR10       0.2313
     15  O        -48.2510   30.3790   55.1070 O.2    10  THR10      -0.2863
     16  CB       -46.3430   32.4410   53.5960 C.3    10  THR10       0.1794
     17  OG1      -46.4770   32.1680   52.1960 O.3    10  THR10      -0.2208
     18  CG2      -45.1670   33.3870   53.8130 C.3    10  THR10       0.0378
     19  N        -44.7370   30.6750   58.5860 N.3    37  ALA37      -0.1245
     20  CA       -44.3780   32.0090   59.0530 C.3    37  ALA37       0.1562
     21  C        -45.6030   32.8210   59.4630 C.2    37  ALA37       0.2260
     22  O        -46.6370   32.8110   58.7890 O.2    37  ALA37      -0.2867
     23  CB       -43.6040   32.7620   57.9770 C.3    37  ALA37       0.0290
     24  N        -44.0480   30.0320   63.3060 N.3    67  PHE67      -0.1241
     25  CA       -42.8750   30.7340   63.8030 C.3    67  PHE67       0.1605
     26  C        -42.9160   32.1710   63.3070 C.2    67  PHE67       0.2264
     27  O        -43.4620   32.4600   62.2390 O.2    67  PHE67      -0.2867
     28  CB       -41.5640   30.0550   63.3730 C.3    67  PHE67       0.0534
     29  CG       -41.2030   30.2620   61.9230 C.ar   67  PHE67      -0.0203
     30  CD1      -41.8390   29.5510   60.9160 C.ar   67  PHE67      -0.0042
     31  CD2      -40.2120   31.1670   61.5740 C.ar   67  PHE67      -0.0042
     32  CE1      -41.4940   29.7440   59.5850 C.ar   67  PHE67      -0.0003
     33  CE2      -39.8630   31.3660   60.2490 C.ar   67  PHE67      -0.0003
     34  CZ       -40.5050   30.6540   59.2530 C.ar   67  PHE67      -0.0000
     35  N        -36.7040   35.0670   62.4820 N.3    70  LEU70      -0.1231
     36  CA       -35.9980   34.7980   61.2410 C.3    70  LEU70       0.1693
     37  C        -35.9670   33.2920   61.0390 C.2    70  LEU70       0.2591
     38  O        -35.7950   32.5350   61.9980 O.2    70  LEU70      -0.2718
     39  CB       -34.5720   35.3440   61.3220 C.3    70  LEU70       0.0284
     40  CG       -33.5630   35.1480   60.1920 C.3    70  LEU70       0.0019
     41  CD1      -33.7880   36.1580   59.0680 C.3    70  LEU70       0.0001
     42  CD2      -32.1440   35.2170   60.7330 C.3    70  LEU70       0.0001
     43  N        -36.1800   32.8500   59.7970 N.am   71  MET71      -0.1979
     44  CA       -36.2830   31.4150   59.5470 C.3    71  MET71       0.1605
     45  C        -35.0590   30.6820   60.0830 C.2    71  MET71       0.2287
     46  O        -35.1800   29.6450   60.7440 O.2    71  MET71      -0.2864
     47  CB       -36.4660   31.1470   58.0530 C.3    71  MET71       0.0413
     48  CG       -36.7770   29.6940   57.7220 C.3    71  MET71       0.0598
     49  SD       -35.3170   28.6420   57.6200 S.3    71  MET71      -0.1393
     50  CE       -34.4020   29.5090   56.3540 C.3    71  MET71       0.0692
     51  N        -32.5830   22.2460   55.4020 N.3    83  LEU83      -0.1245
     52  CA       -33.5650   23.2270   54.9610 C.3    83  LEU83       0.1561
     53  C        -34.1380   22.7780   53.6270 C.2    83  LEU83       0.2260
     54  O        -33.4050   22.6620   52.6390 O.2    83  LEU83      -0.2867
     55  CB       -32.9190   24.6060   54.8280 C.3    83  LEU83       0.0270
     56  CG       -33.7030   25.7550   54.1870 C.3    83  LEU83       0.0019
     57  CD1      -35.0750   25.9290   54.7770 C.3    83  LEU83       0.0001
     58  CD2      -32.9000   27.0340   54.3050 C.3    83  LEU83       0.0001
     59  N        -36.3070   23.3230   50.3640 N.3    85  ARG85      -0.1245
     60  CA       -36.9080   24.2770   49.4460 C.3    85  ARG85       0.1563
     61  C        -37.3610   23.5380   48.2000 C.2    85  ARG85       0.2260
     62  O        -36.6710   22.6440   47.7010 O.2    85  ARG85      -0.2867
     63  CB       -35.9270   25.4030   49.0860 C.3    85  ARG85       0.0307
     64  CG       -35.5080   26.2680   50.2830 C.3    85  ARG85       0.0489
     65  CD       -36.7020   26.9830   50.8960 C.3    85  ARG85       0.2205
     66  NE       -37.1100   28.1630   50.1370 N.pl3  85  ARG85      -0.0865
     67  CZ       -38.1510   28.9290   50.4520 C.cat  85  ARG85       0.5346
     68  NH1      -38.9000   28.6380   51.5090 N.pl3  85  ARG85       0.1354
     69  NH2      -38.4490   29.9880   49.7110 N.pl3  85  ARG85       0.1354
     70  N        -33.7760   31.6940   45.1300 N.3    96  GLU96      -0.1245
     71  CA       -33.4290   30.7250   46.1730 C.3    96  GLU96       0.1567
     72  C        -31.9210   30.6420   46.3940 C.2    96  GLU96       0.2260
     73  O        -31.4660   30.4280   47.5250 O.2    96  GLU96      -0.2867
     74  CB       -34.0100   29.3460   45.8500 C.3    96  GLU96       0.0388
     75  CG       -35.5240   29.2460   45.9060 C.3    96  GLU96       0.1160
     76  CD       -36.0790   29.4010   47.3080 C.2    96  GLU96       0.3649
     77  OE1      -35.3680   29.0900   48.2760 O.co2  96  GLU96      -0.2457
     78  OE2      -37.2350   29.8460   47.4380 O.co2  96  GLU96      -0.2457
     79  N        -31.0130   33.4460   48.6910 N.3    99  LEU99      -0.1231
     80  CA       -31.4200   33.1420   50.0550 C.3    99  LEU99       0.1693
     81  C        -30.5580   32.0520   50.6510 C.2    99  LEU99       0.2591
     82  O        -30.2700   32.0700   51.8520 O.2    99  LEU99      -0.2718
     83  CB       -32.8750   32.7130   50.0740 C.3    99  LEU99       0.0284
     84  CG       -33.8640   33.7740   49.6080 C.3    99  LEU99       0.0019
     85  CD1      -35.2730   33.2350   49.7530 C.3    99  LEU99       0.0001
     86  CD2      -33.6790   35.0770   50.3770 C.3    99  LEU99       0.0001
     87  N        -30.1710   31.0690   49.8340 N.am  100  ALA100     -0.1980
     88  CA       -29.3460   29.9780   50.3360 C.3   100  ALA100      0.1597
     89  C        -27.9840   30.4800   50.8040 C.2   100  ALA100      0.2287
     90  O        -27.4720   30.0280   51.8340 O.2   100  ALA100     -0.2864
     91  CB       -29.2050   28.9040   49.2570 C.3   100  ALA100      0.0319
     92  N        -28.6300   32.3160   54.1060 N.3   103  ASN103     -0.1240
     93  CA       -28.8720   31.3570   55.1790 C.3   103  ASN103      0.1653
     94  C        -27.6010   30.6210   55.5870 C.2   103  ASN103      0.2266
     95  O        -27.4300   30.2910   56.7660 O.2   103  ASN103     -0.2867
     96  CB       -29.9590   30.3680   54.7610 C.3   103  ASN103      0.1155
     97  CG       -31.3500   30.9550   54.8820 C.2   103  ASN103      0.2627
     98  OD1      -31.5970   31.8220   55.7210 O.2   103  ASN103     -0.2716
     99  ND2      -32.2630   30.5000   54.0340 N.am  103  ASN103     -0.0877
@<TRIPOS>BOND
     1    70    71    1
     2    74    75    1
     3    74    71    1
     4    75    76    1
     5    71    72    1
     6    72    73    2
     7    76    78   ar
     8    76    77   ar
     9    62    61    2
    10    61    60    1
    11    79    80    1
    12    63    60    1
    13    63    64    1
    14    91    88    1
    15    60    59    1
    16    84    85    1
    17    84    83    1
    18    84    86    1
    19    69    67    1
    20    87    88    1
    21    87    81   am
    22    80    83    1
    23    80    81    1
    24    66    67    2
    25    66    65    1
    26    64    65    1
    27    88    89    1
    28    67    68    1
    29    81    82    2
    30    89    90    2
    31    17    16    1
    32    54    53    2
    33     4     3    2
    34    16    18    1
    35    16    13    1
    36    53    52    1
    37    12    13    1
    38    12    10   am
    39     9    10    1
    40     9     8    1
    41    99    97   am
    42    92    93    1
    43    56    58    1
    44    56    57    1
    45    56    55    1
    46    14    13    1
    47    14    15    2
    48    10    11    2
    49     3     8   am
    50     3     2    1
    51    96    97    1
    52    96    93    1
    53    55    52    1
    54    97    98    2
    55    52    51    1
    56     7     1    1
    57     7     6    1
    58    93    94    1
    59     1     2    1
    60     6     5    1
    61    94    95    2
    62     2     5    1
    63    50    49    1
    64    49    48    1
    65    48    47    1
    66    23    20    1
    67    47    44    1
    68    19    20    1
    69    22    21    2
    70    20    21    1
    71    41    40    1
    72    34    32   ar
    73    34    33   ar
    74    44    43    1
    75    44    45    1
    76    32    30   ar
    77    43    37   am
    78    45    46    2
    79    40    42    1
    80    40    39    1
    81    33    31   ar
    82    30    29   ar
    83    37    36    1
    84    37    38    2
    85    36    39    1
    86    36    35    1
    87    31    29   ar
    88    29    28    1
    89    27    26    2
    90    24    25    1
    91    26    25    1
    92    28    25    1
