@<TRIPOS>MOLECULE
tmp/6b7cB00.pdb
 140 133 0 0 0
SMALL
GASTEIGER

@<TRIPOS>ATOM
      1  N         23.7170  123.5150  176.1950 N.3     7  PRO7       -0.2102
      2  CA        23.1790  123.9120  174.8940 C.3     7  PRO7        0.1504
      3  C         22.6460  122.7420  174.0930 C.2     7  PRO7        0.2576
      4  O         23.0770  121.5990  174.2610 O.2     7  PRO7       -0.2718
      5  CB        24.3970  124.5220  174.2060 C.3     7  PRO7        0.0282
      6  CG        25.5380  123.6840  174.7330 C.3     7  PRO7        0.0208
      7  CD        25.1720  123.2820  176.1430 C.3     7  PRO7        0.0893
      8  N         21.7160  123.0360  173.1980 N.am    8  GLY8       -0.1943
      9  CA        21.1310  122.0000  172.3730 C.3     8  GLY8        0.2014
     10  C         20.0370  122.6090  171.5330 C.2     8  GLY8        0.2639
     11  O         19.7300  123.7970  171.6470 O.2     8  GLY8       -0.2714
     12  N         19.4270  121.7660  170.7060 N.am    9  THR9       -0.1950
     13  CA        18.2890  122.2010  169.9030 C.3     9  THR9        0.1897
     14  C         16.9540  121.9850  170.6130 C.2     9  THR9        0.2313
     15  O         16.0120  122.7520  170.3780 O.2     9  THR9       -0.2863
     16  CB        18.3310  121.4770  168.5510 C.3     9  THR9        0.1794
     17  OG1       19.5350  121.8690  167.8670 O.3     9  THR9       -0.2208
     18  CG2       17.1450  121.8330  167.6590 C.3     9  THR9        0.0378
     19  N         19.4140  126.5290  170.8770 N.3    36  ALA36      -0.1245
     20  CA        19.8720  127.0940  169.6200 C.3    36  ALA36       0.1562
     21  C         18.7300  127.1570  168.6180 C.2    36  ALA36       0.2260
     22  O         17.9550  126.2040  168.4870 O.2    36  ALA36      -0.2867
     23  CB        21.0180  126.2690  169.0450 C.3    36  ALA36       0.0290
     24  N         18.8010  126.8570  165.4960 N.3    38  SER38      -0.1217
     25  CA        19.0220  125.6980  164.6380 C.3    38  SER38       0.1889
     26  C         18.1880  125.6720  163.3450 C.2    38  SER38       0.2288
     27  O         17.5870  124.6480  163.0220 O.2    38  SER38      -0.2866
     28  CB        18.7570  124.4260  165.4320 C.3    38  SER38       0.2089
     29  OG        19.4280  124.3950  166.6870 O.3    38  SER38      -0.2183
     30  N         19.2070  125.2540  160.3690 N.3    40  SER40      -0.1202
     31  CA        19.7670  124.2120  159.5150 C.3    40  SER40       0.2020
     32  C         19.1500  122.8440  159.7790 C.2    40  SER40       0.2618
     33  O         19.2090  121.9770  158.9020 O.2    40  SER40      -0.2717
     34  CB        21.2880  124.1460  159.6740 C.3    40  SER40       0.2103
     35  OG        21.6520  123.6470  160.9520 O.3    40  SER40      -0.2182
     36  N         18.5790  122.6230  160.9580 N.am   41  LYS41      -0.1979
     37  CA        17.9700  121.3470  161.3030 C.3    41  LYS41       0.1596
     38  C         16.4710  121.3160  161.0480 C.2    41  LYS41       0.2287
     39  O         15.8340  120.2970  161.3400 O.2    41  LYS41      -0.2864
     40  CB        18.2170  121.0230  162.7830 C.3    41  LYS41       0.0298
     41  CG        19.6790  120.9220  163.1910 C.3    41  LYS41       0.0038
     42  CD        19.8210  120.4320  164.6270 C.3    41  LYS41       0.0206
     43  CE        21.2820  120.1850  164.9730 C.3    41  LYS41       0.1093
     44  NZ        21.4460  119.5700  166.3200 N.3    41  LYS41      -0.1314
     45  N         19.1910  131.2020  171.5790 N.3    69  PHE69      -0.1227
     46  CA        20.3410  131.8870  171.0000 C.3    69  PHE69       0.1736
     47  C         20.6040  131.4260  169.5770 C.2    69  PHE69       0.2596
     48  O         20.2260  130.3170  169.1840 O.2    69  PHE69      -0.2718
     49  CB        21.6020  131.7020  171.8620 C.3    69  PHE69       0.0547
     50  CG        22.2520  130.3410  171.7390 C.ar   69  PHE69      -0.0202
     51  CD1       21.6870  129.2310  172.3640 C.ar   69  PHE69      -0.0042
     52  CD2       23.4360  130.1790  171.0420 C.ar   69  PHE69      -0.0042
     53  CE1       22.2870  127.9740  172.2730 C.ar   69  PHE69      -0.0003
     54  CE2       24.0420  128.9220  170.9400 C.ar   69  PHE69      -0.0003
     55  CZ        23.4650  127.8240  171.5510 C.ar   69  PHE69      -0.0000
     56  N         21.2250  132.3150  168.7960 N.am   70  SER70      -0.1938
     57  CA        21.6680  131.9960  167.4480 C.3    70  SER70       0.2055
     58  C         23.1760  132.1560  167.3010 C.2    70  SER70       0.2643
     59  O         23.7020  131.9600  166.2010 O.2    70  SER70      -0.2714
     60  CB        20.9650  132.8830  166.4100 C.3    70  SER70       0.2130
     61  OG        21.2830  134.2500  166.6410 O.3    70  SER70      -0.2179
     62  N         23.8820  132.4890  168.3770 N.am   71  ASP71      -0.1957
     63  CA        25.3030  132.8040  168.3160 C.3    71  ASP71       0.1840
     64  C         26.1490  131.5360  168.1850 C.2    71  ASP71       0.2622
     65  O         25.6880  130.4150  168.4190 O.2    71  ASP71      -0.2715
     66  CB        25.7450  133.5510  169.5760 C.3    71  ASP71       0.1450
     67  CG        25.1420  134.9460  169.6780 C.2    71  ASP71       0.3671
     68  OD1       24.5860  135.4300  168.6760 O.co2  71  ASP71      -0.2456
     69  OD2       25.2290  135.5460  170.7610 O.co2  71  ASP71      -0.2456
     70  N         27.4130  131.7350  167.8180 N.am   72  LEU72      -0.1963
     71  CA        28.4450  130.7390  168.0810 C.3    72  LEU72       0.1728
     72  C         28.3820  130.3150  169.5440 C.2    72  LEU72       0.2616
     73  O         28.3170  131.1590  170.4430 O.2    72  LEU72      -0.2715
     74  CB        29.8200  131.3240  167.7600 C.3    72  LEU72       0.0311
     75  CG        31.0090  130.3730  167.8680 C.3    72  LEU72       0.0022
     76  CD1       31.0260  129.4070  166.6760 C.3    72  LEU72       0.0001
     77  CD2       32.3000  131.1920  167.9440 C.3    72  LEU72       0.0001
     78  N         28.3950  129.0030  169.7900 N.am   73  MET73      -0.1977
     79  CA        28.1400  128.6080  171.1690 C.3    73  MET73       0.1605
     80  C         29.2630  129.0530  172.1200 C.2    73  MET73       0.2287
     81  O         28.9550  129.3660  173.2820 O.2    73  MET73      -0.2864
     82  CB        27.8220  127.1020  171.2740 C.3    73  MET73       0.0413
     83  CG        28.9620  126.1100  171.2370 C.3    73  MET73       0.0598
     84  SD        28.3040  124.4110  171.3870 S.3    73  MET73      -0.1393
     85  CE        27.8950  124.0110  169.6820 C.3    73  MET73       0.0692
     86  N         27.3460  118.6410  178.2150 N.3    87  ARG87      -0.1245
     87  CA        26.7840  117.8140  177.1510 C.3    87  ARG87       0.1563
     88  C         26.4330  116.4470  177.7200 C.2    87  ARG87       0.2260
     89  O         27.1570  115.9140  178.5590 O.2    87  ARG87      -0.2867
     90  CB        27.7590  117.6410  175.9790 C.3    87  ARG87       0.0307
     91  CG        28.2780  118.9410  175.3620 C.3    87  ARG87       0.0489
     92  CD        27.2790  119.6140  174.4200 C.3    87  ARG87       0.2205
     93  NE        27.0600  118.8570  173.1880 N.pl3  87  ARG87      -0.0865
     94  CZ        26.0920  119.1100  172.3100 C.cat  87  ARG87       0.5346
     95  NH1       25.2460  120.1130  172.5160 N.pl3  87  ARG87       0.1354
     96  NH2       25.9750  118.3670  171.2100 N.pl3  87  ARG87       0.1354
     97  N         31.4520  112.8460  167.8100 N.3    97  TYR97      -0.1241
     98  CA        31.1070  114.2120  167.4420 C.3    97  TYR97       0.1605
     99  C         31.3580  115.1820  168.5920 C.2    97  TYR97       0.2264
    100  O         31.8580  116.2900  168.3730 O.2    97  TYR97      -0.2867
    101  CB        29.6460  114.2870  166.9980 C.3    97  TYR97       0.0534
    102  CG        29.2530  115.6630  166.5180 C.ar   97  TYR97      -0.0201
    103  CD1       29.9890  116.3090  165.5300 C.ar   97  TYR97      -0.0009
    104  CD2       28.1590  116.3230  167.0570 C.ar   97  TYR97      -0.0009
    105  CE1       29.6400  117.5700  165.0850 C.ar   97  TYR97       0.0417
    106  CE2       27.7990  117.5860  166.6160 C.ar   97  TYR97       0.0417
    107  CZ        28.5480  118.2070  165.6320 C.ar   97  TYR97       0.1957
    108  OH        28.2080  119.4640  165.1820 O.3    97  TYR97      -0.2866
    109  N         33.5920  118.6530  168.6760 N.3   101  LEU101     -0.1245
    110  CA        33.0510  119.9410  169.0920 C.3   101  LEU101      0.1561
    111  C         33.8120  120.4870  170.2890 C.2   101  LEU101      0.2260
    112  O         34.0710  121.6920  170.3780 O.2   101  LEU101     -0.2867
    113  CB        31.5660  119.7970  169.4440 C.3   101  LEU101      0.0270
    114  CG        30.5530  119.6930  168.3140 C.3   101  LEU101      0.0019
    115  CD1       29.1630  119.6940  168.9230 C.3   101  LEU101      0.0001
    116  CD2       30.7160  120.8430  167.3310 C.3   101  LEU101      0.0001
    117  N         37.0960  121.9080  169.1590 N.3   104  MET104     -0.1230
    118  CA        36.8910  123.1930  168.5040 C.3   104  MET104      0.1702
    119  C         36.5580  124.2790  169.5260 C.2   104  MET104      0.2592
    120  O         37.1010  125.3890  169.4700 O.2   104  MET104     -0.2718
    121  CB        35.8000  123.0740  167.4340 C.3   104  MET104      0.0401
    122  CG        35.5430  124.3670  166.6560 C.3   104  MET104      0.0596
    123  SD        37.0160  124.9680  165.7770 S.3   104  MET104     -0.1393
    124  CE        37.0180  123.8530  164.3620 C.3   104  MET104      0.0692
    125  N         35.6670  123.9750  170.4770 N.am  105  ASN105     -0.1974
    126  CA        35.3040  124.9620  171.4940 C.3   105  ASN105      0.1688
    127  C         36.5030  125.3550  172.3460 C.2   105  ASN105      0.2292
    128  O         36.6030  126.5060  172.7960 O.2   105  ASN105     -0.2864
    129  CB        34.1780  124.4170  172.3710 C.3   105  ASN105      0.1181
    130  CG        32.8270  124.6070  171.7510 C.2   105  ASN105      0.2629
    131  OD1       32.5940  125.5880  171.0240 O.2   105  ASN105     -0.2716
    132  ND2       31.9250  123.6660  171.9960 N.am  105  ASN105     -0.0877
    133  N         38.3410  127.9770  170.4730 N.3   108  LEU108     -0.1245
    134  CA        37.6290  129.2530  170.4500 C.3   108  LEU108      0.1561
    135  C         37.5740  129.9190  171.8250 C.2   108  LEU108      0.2260
    136  O         37.5130  131.1490  171.9130 O.2   108  LEU108     -0.2867
    137  CB        36.2120  129.0320  169.9050 C.3   108  LEU108      0.0270
    138  CG        36.1420  128.5220  168.4570 C.3   108  LEU108      0.0019
    139  CD1       34.7870  127.9120  168.1430 C.3   108  LEU108      0.0001
    140  CD2       36.4460  129.6740  167.4930 C.3   108  LEU108      0.0001
@<TRIPOS>BOND
     1    33    32    2
     2    31    34    1
     3    31    32    1
     4    31    30    1
     5    34    35    1
     6    32    36   am
     7    36    37    1
     8    38    37    1
     9    38    39    2
    10    37    40    1
    11    40    41    1
    12    27    26    2
    13    41    42    1
    14    26    25    1
    15   124   123    1
    16    42    43    1
    17    25    28    1
    18    25    24    1
    19    43    44    1
    20   105   103   ar
    21   105   107   ar
    22   108   107    1
    23    28    29    1
    24   103   102   ar
    25   107   106   ar
    26   123   122    1
    27    59    58    2
    28    60    61    1
    29    60    57    1
    30   102   101    1
    31   102   104   ar
    32   106   104   ar
    33   122   121    1
    34    76    75    1
    35   101    98    1
    36    58    57    1
    37    58    62   am
    38   116   114    1
    39   121   118    1
    40    98    97    1
    41    98    99    1
    42    57    56    1
    43   140   138    1
    44    18    16    1
    45    74    75    1
    46    74    71    1
    47    70    71    1
    48    70    64   am
    49    17    16    1
    50    75    77    1
    51    71    72    1
    52   139   138    1
    53    64    63    1
    54    64    65    2
    55   114   115    1
    56   114   113    1
    57    63    62    1
    58    63    66    1
    59   100    99    2
    60   138   137    1
    61    22    21    2
    62   118   117    1
    63   118   119    1
    64    16    13    1
    65    21    20    1
    66   109   110    1
    67    68    67   ar
    68    56    47   am
    69    23    20    1
    70   110   113    1
    71   110   111    1
    72    48    47    2
    73   120   119    2
    74   119   125   am
    75    72    78   am
    76    72    73    2
    77    66    67    1
    78    47    46    1
    79    20    19    1
    80    67    69   ar
    81    85    84    1
    82    78    79    1
    83    13    14    1
    84    13    12    1
    85   137   134    1
    86   111   112    2
    87    15    14    2
    88   134   133    1
    89   134   135    1
    90   125   126    1
    91    12    10   am
    92    54    52   ar
    93    54    55   ar
    94    46    45    1
    95    46    49    1
    96   131   130    2
    97    52    50   ar
    98    79    82    1
    99    79    80    1
   100    96    94    1
   101    83    82    1
   102    83    84    1
   103   126   127    1
   104   126   129    1
   105    10    11    2
   106    10     9    1
   107    55    53   ar
   108    50    49    1
   109    50    51   ar
   110   130   132   am
   111   130   129    1
   112   135   136    2
   113    80    81    2
   114    53    51   ar
   115    94    95    1
   116    94    93    2
   117   127   128    2
   118     9     8    1
   119    93    92    1
   120     8     3   am
   121     3     4    2
   122     3     2    1
   123     5     6    1
   124     5     2    1
   125    92    91    1
   126     6     7    1
   127     2     1    1
   128    91    90    1
   129    90    87    1
   130     7     1    1
   131    87    88    1
   132    87    86    1
   133    88    89    2
