@<TRIPOS>MOLECULE
tmp/6b7dA00.pdb
 115 112 0 0 0
SMALL
GASTEIGER

@<TRIPOS>ATOM
      1  N       -104.5670   45.0090  188.9350 N.3    10  THR10      -0.1218
      2  CA      -103.9380   46.2250  189.4310 C.3    10  THR10       0.1862
      3  C       -104.8430   47.4410  189.2840 C.2    10  THR10       0.2287
      4  O       -104.7610   48.3600  190.1110 O.2    10  THR10      -0.2866
      5  CB      -102.6030   46.4680  188.7220 C.3    10  THR10       0.1770
      6  OG1     -102.8100   46.5130  187.3030 O.3    10  THR10      -0.2211
      7  CG2     -101.5920   45.3600  189.0890 C.3    10  THR10       0.0375
      8  N       -104.4950   44.8700  193.5030 N.3    37  ALA37      -0.1231
      9  CA      -103.1530   44.4650  193.8830 C.3    37  ALA37       0.1694
     10  C       -102.3250   45.6670  194.3220 C.2    37  ALA37       0.2592
     11  O       -102.2430   46.6740  193.6110 O.2    37  ALA37      -0.2718
     12  CB      -102.4830   43.7700  192.7020 C.3    37  ALA37       0.0304
     13  N       -101.6870   45.5380  195.4890 N.am   38  ALA38      -0.1966
     14  CA      -100.8120   46.5890  196.0030 C.3    38  ALA38       0.1728
     15  C        -99.6110   46.8480  195.1030 C.2    38  ALA38       0.2614
     16  O        -99.1350   47.9860  195.0260 O.2    38  ALA38      -0.2715
     17  CB      -100.3270   46.2440  197.4130 C.3    38  ALA38       0.0334
     18  N        -99.0790   45.8210  194.4550 N.am   39  SER39      -0.1990
     19  CA       -97.8690   46.0390  193.6720 C.3    39  SER39       0.1715
     20  C        -98.1790   46.2930  192.2010 C.3    39  SER39       0.2086
     21  O        -99.2550   45.9370  191.6950 O.3    39  SER39      -0.2057
     22  CB       -96.9420   44.8230  193.8050 C.3    39  SER39       0.2076
     23  OG       -95.5830   45.1990  193.9810 O.3    39  SER39      -0.2184
     24  N        -97.2360   46.9300  191.4890 N.3    40  PRO40      -0.2409
     25  CA       -97.0590   47.3670  190.1040 C.3    40  PRO40       0.1249
     26  C        -98.2340   48.1680  189.5440 C.2    40  PRO40       0.2231
     27  O        -98.2930   48.3280  188.3210 O.2    40  PRO40      -0.2868
     28  CB       -96.8950   46.0850  189.3130 C.3    40  PRO40       0.0256
     29  CG       -96.2180   45.0880  190.2670 C.3    40  PRO40       0.0219
     30  CD       -96.8870   45.4180  191.6120 C.3    40  PRO40       0.1041
     31  N       -105.0310   44.1670  198.3510 N.3    67  PHE67      -0.1227
     32  CA      -104.3320   42.9890  198.8420 C.3    67  PHE67       0.1736
     33  C       -102.8960   43.0540  198.3500 C.2    67  PHE67       0.2596
     34  O       -102.6090   43.6800  197.3270 O.2    67  PHE67      -0.2718
     35  CB      -105.0170   41.6840  198.3980 C.3    67  PHE67       0.0547
     36  CG      -104.8070   41.3320  196.9460 C.ar   67  PHE67      -0.0202
     37  CD1     -105.5300   41.9610  195.9450 C.ar   67  PHE67      -0.0042
     38  CD2     -103.9120   40.3350  196.5930 C.ar   67  PHE67      -0.0042
     39  CE1     -105.3370   41.6230  194.6150 C.ar   67  PHE67      -0.0003
     40  CE2     -103.7220   39.9900  195.2710 C.ar   67  PHE67      -0.0003
     41  CZ      -104.4310   40.6370  194.2800 C.ar   67  PHE67      -0.0000
     42  N       -101.9910   42.4370  199.1180 N.am   68  SER68      -0.1938
     43  CA      -100.5720   42.4020  198.7800 C.3    68  SER68       0.2055
     44  C        -99.9870   40.9980  198.6780 C.2    68  SER68       0.2643
     45  O        -98.8610   40.8580  198.1850 O.2    68  SER68      -0.2714
     46  CB       -99.7550   43.2040  199.8050 C.3    68  SER68       0.2130
     47  OG       -99.9150   42.6630  201.1060 O.3    68  SER68      -0.2179
     48  N       -100.7040   39.9650  199.1070 N.am   69  ASP69      -0.1957
     49  CA      -100.2230   38.5980  199.0170 C.3    69  ASP69       0.1840
     50  C       -100.3550   38.0950  197.5830 C.2    69  ASP69       0.2622
     51  O       -100.9500   38.7470  196.7180 O.2    69  ASP69      -0.2715
     52  CB      -101.0020   37.7060  199.9810 C.3    69  ASP69       0.1450
     53  CG      -100.1830   36.5340  200.4980 C.2    69  ASP69       0.3671
     54  OD1      -99.1670   36.1730  199.8590 O.co2  69  ASP69      -0.2456
     55  OD2     -100.5560   35.9680  201.5520 O.co2  69  ASP69      -0.2456
     56  N        -99.7730   36.9250  197.3320 N.am   70  LEU70      -0.1963
     57  CA      -100.1230   36.1440  196.1560 C.3    70  LEU70       0.1728
     58  C       -101.6400   36.0790  196.0310 C.2    70  LEU70       0.2616
     59  O       -102.3360   35.8250  197.0190 O.2    70  LEU70      -0.2715
     60  CB       -99.5320   34.7400  196.2860 C.3    70  LEU70       0.0311
     61  CG       -99.5880   33.7620  195.1240 C.3    70  LEU70       0.0022
     62  CD1      -98.5950   34.1850  194.0500 C.3    70  LEU70       0.0001
     63  CD2      -99.2740   32.3810  195.6450 C.3    70  LEU70       0.0001
     64  N       -102.1510   36.3440  194.8230 N.am   71  MET71      -0.1977
     65  CA      -103.5950   36.3840  194.5970 C.3    71  MET71       0.1605
     66  C       -104.2810   35.1550  195.1730 C.2    71  MET71       0.2287
     67  O       -105.3050   35.2640  195.8600 O.2    71  MET71      -0.2864
     68  CB      -103.8890   36.4720  193.0960 C.3    71  MET71       0.0413
     69  CG      -105.3340   36.8160  192.7070 C.3    71  MET71       0.0598
     70  SD      -106.5200   35.4750  193.0090 S.3    71  MET71      -0.1393
     71  CE      -105.7570   34.0590  192.2270 C.3    71  MET71       0.0692
     72  N       -100.9900   33.5940  178.3370 N.3    95  TYR95      -0.1241
     73  CA      -100.6530   33.9030  179.7230 C.3    95  TYR95       0.1605
     74  C       -101.7910   33.5140  180.6610 C.2    95  TYR95       0.2264
     75  O       -101.5480   33.0210  181.7690 O.2    95  TYR95      -0.2867
     76  CB      -100.3090   35.3860  179.9010 C.3    95  TYR95       0.0534
     77  CG       -99.8730   35.6840  181.3230 C.ar   95  TYR95      -0.0201
     78  CD1      -98.7780   35.0280  181.8720 C.ar   95  TYR95      -0.0009
     79  CD2     -100.5720   36.5750  182.1280 C.ar   95  TYR95      -0.0009
     80  CE1      -98.3750   35.2630  183.1730 C.ar   95  TYR95       0.0417
     81  CE2     -100.1750   36.8200  183.4370 C.ar   95  TYR95       0.0417
     82  CZ       -99.0760   36.1600  183.9520 C.ar   95  TYR95       0.1957
     83  OH       -98.6810   36.4010  185.2500 O.3    95  TYR95      -0.2866
     84  N       -101.4070   31.1950  183.8690 N.3    99  LEU99      -0.1245
     85  CA      -101.8040   31.6930  185.1780 C.3    99  LEU99       0.1561
     86  C       -102.8700   30.8110  185.8120 C.2    99  LEU99       0.2260
     87  O       -102.8150   30.5220  187.0130 O.2    99  LEU99      -0.2867
     88  CB      -102.3030   33.1300  185.0330 C.3    99  LEU99       0.0270
     89  CG      -102.8700   33.8330  186.2600 C.3    99  LEU99       0.0019
     90  CD1     -101.8670   33.7920  187.3730 C.3    99  LEU99       0.0001
     91  CD2     -103.2040   35.2680  185.9170 C.3    99  LEU99       0.0001
     92  N       -101.4320   27.5150  186.9900 N.3   102  MET102     -0.1230
     93  CA      -100.6850   27.7680  188.2190 C.3   102  MET102      0.1702
     94  C       -101.6280   28.0080  189.3940 C.2   102  MET102      0.2592
     95  O       -101.4450   27.4410  190.4770 O.2   102  MET102     -0.2718
     96  CB       -99.7380   28.9520  188.0290 C.3   102  MET102      0.0401
     97  CG       -98.9180   29.2870  189.2710 C.3   102  MET102      0.0596
     98  SD       -97.8780   27.9370  189.8610 S.3   102  MET102     -0.1393
     99  CE       -96.6070   27.9100  188.6010 C.3   102  MET102      0.0692
    100  N       -102.6460   28.8520  189.1980 N.am  103  ASN103     -0.1974
    101  CA      -103.6030   29.1090  190.2710 C.3   103  ASN103      0.1688
    102  C       -104.3450   27.8450  190.6810 C.2   103  ASN103      0.2292
    103  O       -104.6780   27.6800  191.8600 O.2   103  ASN103     -0.2864
    104  CB      -104.5940   30.1980  189.8520 C.3   103  ASN103      0.1181
    105  CG      -104.0400   31.5950  190.0470 C.2   103  ASN103      0.2629
    106  OD1     -103.2720   31.8440  190.9780 O.2   103  ASN103     -0.2716
    107  ND2     -104.4250   32.5150  189.1690 N.am  103  ASN103     -0.0877
    108  N       -102.0210   26.0410  192.9480 N.3   106  LEU106     -0.1245
    109  CA      -101.9020   26.6880  194.2510 C.3   106  LEU106      0.1561
    110  C       -103.1620   26.5460  195.0900 C.2   106  LEU106      0.2260
    111  O       -103.0740   26.4070  196.3160 O.2   106  LEU106     -0.2867
    112  CB      -101.5800   28.1710  194.0710 C.3   106  LEU106      0.0270
    113  CG      -100.2700   28.5090  193.3650 C.3   106  LEU106      0.0019
    114  CD1     -100.2930   29.9380  192.8720 C.3   106  LEU106      0.0001
    115  CD2      -99.1000   28.2900  194.3040 C.3   106  LEU106      0.0001
@<TRIPOS>BOND
     1    72    73    1
     2    73    76    1
     3    73    74    1
     4    76    77    1
     5    74    75    2
     6    77    78   ar
     7    77    79   ar
     8    78    80   ar
     9    79    81   ar
    10    80    82   ar
    11    81    82   ar
    12    84    85    1
    13    82    83    1
    14    88    85    1
    15    88    89    1
    16    85    86    1
    17    86    87    2
    18    91    89    1
    19    89    90    1
    20    92    93    1
    21     6     5    1
    22    96    93    1
    23    96    97    1
    24    93    94    1
    25    27    26    2
    26    99    98    1
    27     5     7    1
    28     5     2    1
    29     1     2    1
    30   107   105   am
    31   100    94   am
    32   100   101    1
    33    97    98    1
    34     3     2    1
    35     3     4    2
    36    28    25    1
    37    28    29    1
    38    94    95    2
    39    26    25    1
    40   104   105    1
    41   104   101    1
    42   105   106    2
    43    25    24    1
    44    29    30    1
    45   101   102    1
    46   102   103    2
    47    24    30    1
    48    24    20    1
    49    30    20    1
    50    21    20    1
    51    20    19    1
    52    71    70    1
    53    12     9    1
    54    69    70    1
    55    69    68    1
    56   114   113    1
    57   108   109    1
    58    68    65    1
    59   113   112    1
    60   113   115    1
    61     8     9    1
    62    11    10    2
    63    19    22    1
    64    19    18    1
    65    22    23    1
    66     9    10    1
    67    62    61    1
    68   112   109    1
    69   109   110    1
    70    41    39   ar
    71    41    40   ar
    72    10    13   am
    73    18    15   am
    74    65    64    1
    75    65    66    1
    76    39    37   ar
    77    64    58   am
    78    16    15    2
    79   110   111    2
    80    15    14    1
    81    61    63    1
    82    61    60    1
    83    66    67    2
    84    40    38   ar
    85    13    14    1
    86    37    36   ar
    87    14    17    1
    88    58    57    1
    89    58    59    2
    90    57    60    1
    91    57    56    1
    92    38    36   ar
    93    51    50    2
    94    36    35    1
    95    34    33    2
    96    56    50   am
    97    50    49    1
    98    45    44    2
    99    33    32    1
   100    33    42   am
   101    31    32    1
   102    35    32    1
   103    44    43    1
   104    44    48   am
   105    43    42    1
   106    43    46    1
   107    49    48    1
   108    49    52    1
   109    46    47    1
   110    54    53   ar
   111    52    53    1
   112    53    55   ar
