@<TRIPOS>MOLECULE
tmp/6b7eB00.pdb
 136 127 0 0 0
SMALL
GASTEIGER

@<TRIPOS>ATOM
      1  N         11.3880  159.3770  312.0820 N.3     7  PRO7       -0.2102
      2  CA        11.0480  158.8210  310.7760 C.3     7  PRO7        0.1504
      3  C         12.2640  158.3310  310.0090 C.2     7  PRO7        0.2576
      4  O         13.3920  158.7840  310.2050 O.2     7  PRO7       -0.2718
      5  CB        10.3960  160.0160  310.0710 C.3     7  PRO7        0.0282
      6  CG        11.1110  161.2110  310.6550 C.3     7  PRO7        0.0208
      7  CD        11.6970  160.8140  311.9960 C.3     7  PRO7        0.0893
      8  N         12.0020  157.4020  309.1020 N.am    8  GLY8       -0.1943
      9  CA        13.0260  156.9140  308.2000 C.3     8  GLY8        0.2014
     10  C         12.4800  155.7520  307.3960 C.2     8  GLY8        0.2639
     11  O         11.3620  155.2850  307.6210 O.2     8  GLY8       -0.2714
     12  N         13.3000  155.2920  306.4440 N.am    9  THR9       -0.1950
     13  CA        12.9370  154.1580  305.5960 C.3     9  THR9        0.1897
     14  C         13.1570  152.8200  306.3020 C.2     9  THR9        0.2313
     15  O         12.4060  151.8600  306.0650 O.2     9  THR9       -0.2863
     16  CB        13.7400  154.2370  304.2970 C.3     9  THR9        0.1794
     17  OG1       13.3410  155.4120  303.5810 O.3     9  THR9       -0.2208
     18  CG2       13.5190  153.0150  303.4200 C.3     9  THR9        0.0378
     19  N          8.6400  155.2410  306.8090 N.3    36  ALA36      -0.1245
     20  CA         8.1900  155.7670  305.5250 C.3    36  ALA36       0.1562
     21  C          8.0830  154.6760  304.4650 C.2    36  ALA36       0.2260
     22  O          8.9430  153.8000  304.3620 O.2    36  ALA36      -0.2867
     23  CB         9.1210  156.8720  305.0240 C.3    36  ALA36       0.0290
     24  N          8.3630  154.9550  301.2130 N.3    38  SER38      -0.1217
     25  CA         9.4630  155.1920  300.2970 C.3    38  SER38       0.1889
     26  C          9.5090  154.2330  299.0930 C.2    38  SER38       0.2288
     27  O         10.5360  153.5830  298.8570 O.2    38  SER38      -0.2866
     28  CB        10.7840  155.1370  301.0510 C.3    38  SER38       0.2089
     29  OG        10.7860  156.0320  302.1370 O.3    38  SER38      -0.2183
     30  N         12.6300  154.5500  296.6440 N.3    41  LYS41      -0.1245
     31  CA        13.8880  153.9170  297.0220 C.3    41  LYS41       0.1561
     32  C         13.9190  152.4350  296.7090 C.2    41  LYS41       0.2260
     33  O         14.9510  151.7950  296.9450 O.2    41  LYS41      -0.2867
     34  CB        14.1490  154.0740  298.5270 C.3    41  LYS41       0.0271
     35  CG        14.4000  155.4910  298.9860 C.3    41  LYS41       0.0035
     36  CD        14.7820  155.4690  300.4570 C.3    41  LYS41       0.0206
     37  CE        15.0840  156.8540  300.9940 C.3    41  LYS41       0.1093
     38  NZ        13.9510  157.7930  300.8100 N.3    41  LYS41      -0.1314
     39  N          3.9500  154.7870  307.3840 N.3    69  PHE69      -0.1241
     40  CA         3.1900  155.8880  306.8040 C.3    69  PHE69       0.1605
     41  C          3.6510  156.1810  305.3870 C.2    69  PHE69       0.2264
     42  O          4.7930  155.9070  305.0190 O.2    69  PHE69      -0.2867
     43  CB         3.3000  157.1570  307.6610 C.3    69  PHE69       0.0534
     44  CG         4.6550  157.8330  307.5960 C.ar   69  PHE69      -0.0203
     45  CD1        5.7600  157.2710  308.2430 C.ar   69  PHE69      -0.0042
     46  CD2        4.8200  159.0460  306.9140 C.ar   69  PHE69      -0.0042
     47  CE1        7.0110  157.8800  308.2030 C.ar   69  PHE69      -0.0003
     48  CE2        6.0840  159.6820  306.8680 C.ar   69  PHE69      -0.0003
     49  CZ         7.1760  159.0940  307.5200 C.ar   69  PHE69      -0.0000
     50  N          2.3320  159.3440  304.1840 N.3    71  ASP71      -0.1225
     51  CA         2.0020  160.7610  304.1140 C.3    71  ASP71       0.1805
     52  C          3.2530  161.6290  303.9480 C.2    71  ASP71       0.2598
     53  O          4.3960  161.1930  304.1310 O.2    71  ASP71      -0.2718
     54  CB         1.2750  161.2110  305.3830 C.3    71  ASP71       0.1424
     55  CG        -0.1140  160.5620  305.5460 C.2    71  ASP71       0.3668
     56  OD1       -0.6520  159.9960  304.5680 O.co2  71  ASP71      -0.2456
     57  OD2       -0.6680  160.6430  306.6530 O.co2  71  ASP71      -0.2456
     58  N          3.0080  162.8950  303.6220 N.am   72  LEU72      -0.1966
     59  CA         4.0050  163.9240  303.8350 C.3    72  LEU72       0.1728
     60  C          4.4310  163.8940  305.3000 C.2    72  LEU72       0.2616
     61  O          3.5830  163.8320  306.2030 O.2    72  LEU72      -0.2715
     62  CB         3.4180  165.2860  303.4840 C.3    72  LEU72       0.0311
     63  CG         4.2740  166.5330  303.6780 C.3    72  LEU72       0.0022
     64  CD1        5.2790  166.6330  302.5400 C.3    72  LEU72       0.0001
     65  CD2        3.3550  167.7560  303.7010 C.3    72  LEU72       0.0001
     66  N          5.7510  163.9240  305.5350 N.am   73  MET73      -0.1977
     67  CA         6.2900  163.8990  306.9000 C.3    73  MET73       0.1605
     68  C          5.5870  164.8910  307.8290 C.2    73  MET73       0.2287
     69  O          5.1770  164.5460  308.9450 O.2    73  MET73      -0.2864
     70  CB         7.7880  164.2220  306.8810 C.3    73  MET73       0.0413
     71  CG         8.3960  164.3390  308.2670 C.3    73  MET73       0.0598
     72  SD         8.6180  162.6700  308.8660 S.3    73  MET73      -0.1393
     73  CE         7.4330  162.6210  310.1840 C.3    73  MET73       0.0692
     74  N         11.0600  166.0510  316.0050 N.3    85  LEU85      -0.1245
     75  CA        11.4080  165.1240  314.9400 C.3    85  LEU85       0.1561
     76  C         12.8770  164.7200  315.1070 C.2    85  LEU85       0.2260
     77  O         13.7750  165.5600  315.0130 O.2    85  LEU85      -0.2867
     78  CB        11.1290  165.7580  313.5910 C.3    85  LEU85       0.0270
     79  CG        11.1440  164.9000  312.3190 C.3    85  LEU85       0.0019
     80  CD1       10.6280  165.7290  311.1590 C.3    85  LEU85       0.0001
     81  CD2       12.5220  164.3410  311.9660 C.3    85  LEU85       0.0001
     82  N         16.3520  162.7860  314.1090 N.3    87  ARG87      -0.1245
     83  CA        17.1890  162.2400  313.0500 C.3    87  ARG87       0.1563
     84  C         18.5600  161.8990  313.6260 C.2    87  ARG87       0.2260
     85  O         19.0590  162.5710  314.5270 O.2    87  ARG87      -0.2867
     86  CB        17.3120  163.2320  311.8880 C.3    87  ARG87       0.0307
     87  CG        15.9760  163.5170  311.1940 C.3    87  ARG87       0.0489
     88  CD        15.4360  162.2980  310.4480 C.3    87  ARG87       0.2205
     89  NE        16.1480  162.1960  309.1800 N.pl3  87  ARG87      -0.0865
     90  CZ        16.0890  161.1850  308.3150 C.cat  87  ARG87       0.5346
     91  NH1       15.3120  160.1230  308.5260 N.pl3  87  ARG87       0.1354
     92  NH2       16.8130  161.2620  307.2000 N.pl3  87  ARG87       0.1354
     93  N         22.1440  166.7860  303.6030 N.3    97  TYR97      -0.1241
     94  CA        20.7820  166.4150  303.2390 C.3    97  TYR97       0.1605
     95  C         19.8190  166.6720  304.3870 C.2    97  TYR97       0.2264
     96  O         18.7170  167.1810  304.1600 O.2    97  TYR97      -0.2867
     97  CB        20.7190  164.9460  302.7820 C.3    97  TYR97       0.0534
     98  CG        19.3180  164.5160  302.3750 C.ar   97  TYR97      -0.0201
     99  CD1       18.6520  165.1800  301.3420 C.ar   97  TYR97      -0.0009
    100  CD2       18.6870  163.4310  302.9720 C.ar   97  TYR97      -0.0009
    101  CE1       17.3770  164.8020  300.9430 C.ar   97  TYR97       0.0417
    102  CE2       17.4130  163.0300  302.5720 C.ar   97  TYR97       0.0417
    103  CZ        16.7630  163.7240  301.5600 C.ar   97  TYR97       0.1957
    104  OH        15.5000  163.3600  301.1420 O.3    97  TYR97      -0.2866
    105  N         16.2260  168.6800  304.5660 N.3   101  LEU101     -0.1245
    106  CA        15.0080  168.0620  305.0650 C.3   101  LEU101      0.1561
    107  C         14.4180  168.8750  306.2070 C.2   101  LEU101      0.2260
    108  O         13.2250  169.2010  306.1990 O.2   101  LEU101     -0.2867
    109  CB        15.3140  166.6380  305.5240 C.3   101  LEU101      0.0270
    110  CG        14.3800  165.5260  305.0800 C.3   101  LEU101      0.0019
    111  CD1       14.1750  165.6250  303.5900 C.3   101  LEU101      0.0001
    112  CD2       15.0060  164.1920  305.4430 C.3   101  LEU101      0.0001
    113  N         12.9920  172.0700  305.0980 N.3   104  MET104     -0.1230
    114  CA        11.7160  171.8420  304.4170 C.3   104  MET104      0.1702
    115  C         10.6180  171.5130  305.4270 C.2   104  MET104      0.2592
    116  O          9.5380  172.1200  305.3990 O.2   104  MET104     -0.2718
    117  CB        11.8350  170.7320  303.3750 C.3   104  MET104      0.0401
    118  CG        10.5320  170.5500  302.5650 C.3   104  MET104      0.0596
    119  SD        10.0260  172.0540  301.6560 S.3   104  MET104     -0.1393
    120  CE        11.2560  172.0340  300.3660 C.3   104  MET104      0.0692
    121  N         10.8940  170.5920  306.3660 N.am  105  ASN105     -0.1974
    122  CA         9.8750  170.2320  307.3590 C.3   105  ASN105      0.1688
    123  C          9.4670  171.4200  308.2300 C.2   105  ASN105      0.2292
    124  O          8.3020  171.5150  308.6530 O.2   105  ASN105     -0.2864
    125  CB        10.3740  169.1050  308.2490 C.3   105  ASN105      0.1181
    126  CG        10.4510  167.7800  307.5040 C.2   105  ASN105      0.2629
    127  OD1        9.6420  167.5060  306.6190 O.2   105  ASN105     -0.2716
    128  ND2       11.4240  166.9560  307.8630 N.am  105  ASN105     -0.0877
    129  N          6.9950  173.5940  306.3600 N.3   108  LEU108     -0.1245
    130  CA         5.6770  172.9780  306.3010 C.3   108  LEU108      0.1561
    131  C          5.0130  172.8660  307.6720 C.2   108  LEU108      0.2260
    132  O          3.7790  172.7810  307.7400 O.2   108  LEU108     -0.2867
    133  CB         5.7890  171.6010  305.6600 C.3   108  LEU108      0.0270
    134  CG         6.2990  171.6920  304.2180 C.3   108  LEU108      0.0019
    135  CD1        6.7320  170.3420  303.6630 C.3   108  LEU108      0.0001
    136  CD2        5.2230  172.3300  303.3320 C.3   108  LEU108      0.0001
@<TRIPOS>BOND
     1    30    31    1
     2    32    33    2
     3    32    31    1
     4    31    34    1
     5    34    35    1
     6    27    26    2
     7    35    36    1
     8    26    25    1
     9    25    28    1
    10    25    24    1
    11   120   119    1
    12    36    37    1
    13    38    37    1
    14   101    99   ar
    15   101   103   ar
    16    28    29    1
    17   104   103    1
    18    99    98   ar
    19   103   102   ar
    20   119   118    1
    21    98    97    1
    22    98   100   ar
    23    64    63    1
    24   118   117    1
    25   102   100   ar
    26    97    94    1
    27    94    93    1
    28    94    95    1
    29   136   134    1
    30   117   114    1
    31    18    16    1
    32    62    63    1
    33    62    59    1
    34    17    16    1
    35   111   110    1
    36    58    59    1
    37    58    52   am
    38   135   134    1
    39    63    65    1
    40    59    60    1
    41    52    51    1
    42    52    53    2
    43    51    50    1
    44    51    54    1
    45    96    95    2
    46   134   133    1
    47    16    13    1
    48    22    21    2
    49   114   113    1
    50   114   115    1
    51    21    20    1
    52   105   106    1
    53    56    55   ar
    54    42    41    2
    55    23    20    1
    56   106   109    1
    57   106   107    1
    58   110   112    1
    59   110   109    1
    60    60    66   am
    61    60    61    2
    62    54    55    1
    63    41    40    1
    64   116   115    2
    65   115   121   am
    66    20    19    1
    67    66    67    1
    68    55    57   ar
    69    13    14    1
    70    13    12    1
    71   133   130    1
    72    15    14    2
    73   108   107    2
    74   130   129    1
    75   130   131    1
    76   121   122    1
    77    12    10   am
    78   127   126    2
    79    40    39    1
    80    40    43    1
    81    48    46   ar
    82    48    49   ar
    83    70    67    1
    84    70    71    1
    85    67    68    1
    86    46    44   ar
    87    92    90    1
    88   122   123    1
    89   122   125    1
    90    10    11    2
    91    10     9    1
    92   126   128   am
    93   126   125    1
    94    49    47   ar
    95    44    43    1
    96    44    45   ar
    97   131   132    2
    98    68    69    2
    99     9     8    1
   100    47    45   ar
   101   123   124    2
   102    71    72    1
   103    90    91    1
   104    90    89    2
   105    72    73    1
   106     8     3   am
   107    89    88    1
   108     3     4    2
   109     3     2    1
   110     5     6    1
   111     5     2    1
   112    88    87    1
   113     6     7    1
   114     2     1    1
   115    80    79    1
   116    87    86    1
   117    86    83    1
   118    81    79    1
   119     7     1    1
   120    79    78    1
   121    83    84    1
   122    83    82    1
   123    78    75    1
   124    84    85    2
   125    75    76    1
   126    75    74    1
   127    77    76    2
