@<TRIPOS>MOLECULE
tmp/6b7fA00.pdb
 102 96 0 0 0
SMALL
GASTEIGER

@<TRIPOS>ATOM
      1  N         40.0900  110.2980  191.2970 N.3     7  PRO7       -0.2116
      2  CA        40.7650  109.0620  191.6840 C.3     7  PRO7        0.1372
      3  C         41.4240  108.3730  190.4990 C.2     7  PRO7        0.2244
      4  O         41.0540  108.5700  189.3390 O.2     7  PRO7       -0.2868
      5  CB        39.6130  108.2060  192.2200 C.3     7  PRO7        0.0268
      6  CG        38.4680  108.6030  191.3780 C.3     7  PRO7        0.0207
      7  CD        38.6560  110.0760  191.0480 C.3     7  PRO7        0.0892
      8  N         44.7290  105.3700  194.2240 N.3    36  ALA36      -0.1245
      9  CA        44.2820  104.0650  194.6550 C.3    36  ALA36       0.1562
     10  C         45.4630  103.1140  194.6340 C.2    36  ALA36       0.2260
     11  O         46.2590  103.1140  193.6910 O.2    36  ALA36      -0.2867
     12  CB        43.1770  103.5480  193.7460 C.3    36  ALA36       0.0290
     13  N         44.4180  105.8620  199.0700 N.3    69  PHE69      -0.1241
     14  CA        43.2710  105.1610  199.6160 C.3    69  PHE69       0.1605
     15  C         43.2810  103.7340  199.1020 C.2    69  PHE69       0.2264
     16  O         43.6890  103.4640  197.9700 O.2    69  PHE69      -0.2867
     17  CB        41.9400  105.8550  199.2710 C.3    69  PHE69       0.0534
     18  CG        41.4670  105.6520  197.8410 C.ar   69  PHE69      -0.0203
     19  CD1       42.0120  106.3720  196.7890 C.ar   69  PHE69      -0.0042
     20  CD2       40.4500  104.7470  197.5650 C.ar   69  PHE69      -0.0042
     21  CE1       41.5570  106.1840  195.4940 C.ar   69  PHE69      -0.0003
     22  CE2       40.0000  104.5540  196.2760 C.ar   69  PHE69      -0.0003
     23  CZ        40.5510  105.2730  195.2420 C.ar   69  PHE69      -0.0000
     24  N         40.3040  101.8710  200.0750 N.3    71  ASP71      -0.1225
     25  CA        38.9070  101.5050  200.1790 C.3    71  ASP71       0.1805
     26  C         38.3010  101.4200  198.7820 C.2    71  ASP71       0.2598
     27  O         38.9480  101.6800  197.7650 O.2    71  ASP71      -0.2718
     28  CB        38.1580  102.5120  201.0520 C.3    71  ASP71       0.1424
     29  CG        37.0000  101.8820  201.8180 C.2    71  ASP71       0.3668
     30  OD1       36.6850  100.6960  201.5910 O.co2  71  ASP71      -0.2456
     31  OD2       36.4090  102.5850  202.6620 O.co2  71  ASP71      -0.2456
     32  N         37.0400  101.0330  198.7360 N.am   72  LEU72      -0.1966
     33  CA        36.2980  101.1560  197.5000 C.3    72  LEU72       0.1728
     34  C         36.0870  102.6320  197.2400 C.2    72  LEU72       0.2616
     35  O         35.7890  103.3850  198.1630 O.2    72  LEU72      -0.2715
     36  CB        34.9660  100.4290  197.6190 C.3    72  LEU72       0.0311
     37  CG        34.0200  100.4310  196.4290 C.3    72  LEU72       0.0022
     38  CD1       34.4550   99.4330  195.3620 C.3    72  LEU72       0.0001
     39  CD2       32.6440  100.0970  196.9500 C.3    72  LEU72       0.0001
     40  N         36.2850  103.0480  195.9870 N.am   73  MET73      -0.1977
     41  CA        36.4060  104.4730  195.6920 C.3    73  MET73       0.1605
     42  C         35.1800  105.2360  196.1950 C.2    73  MET73       0.2287
     43  O         35.2990  106.3320  196.7520 O.2    73  MET73      -0.2864
     44  CB        36.6310  104.6670  194.1840 C.3    73  MET73       0.0413
     45  CG        37.2760  105.9830  193.7850 C.3    73  MET73       0.0598
     46  SD        36.0710  107.3130  193.8380 S.3    73  MET73      -0.1393
     47  CE        34.7000  106.4950  193.0230 C.3    73  MET73       0.0692
     48  N         36.5950  112.4140  186.2810 N.3    87  ARG87      -0.1245
     49  CA        37.1730  111.4070  185.4080 C.3    87  ARG87       0.1563
     50  C         37.6210  112.1090  184.1380 C.2    87  ARG87       0.2260
     51  O         36.9490  113.0260  183.6510 O.2    87  ARG87      -0.2867
     52  CB        36.1540  110.3180  185.0640 C.3    87  ARG87       0.0307
     53  CG        35.6950  109.5050  186.2540 C.3    87  ARG87       0.0489
     54  CD        36.8770  108.7950  186.8440 C.3    87  ARG87       0.2205
     55  NE        37.1080  107.5090  186.2130 N.pl3  87  ARG87      -0.0865
     56  CZ        38.1930  106.7740  186.4180 C.cat  87  ARG87       0.5346
     57  NH1       39.1390  107.2120  187.2360 N.pl3  87  ARG87       0.1354
     58  NH2       38.3350  105.6080  185.8080 N.pl3  87  ARG87       0.1354
     59  N         33.8920  102.1200  179.2590 N.3    97  TYR97      -0.1241
     60  CA        34.1710  101.6180  180.5990 C.3    97  TYR97       0.1605
     61  C         33.8020  102.6530  181.6520 C.2    97  TYR97       0.2264
     62  O         33.2580  102.3040  182.7090 O.2    97  TYR97      -0.2867
     63  CB        35.6380  101.2120  180.7360 C.3    97  TYR97       0.0534
     64  CG        35.9930  100.7590  182.1350 C.ar   97  TYR97      -0.0201
     65  CD1       35.3680   99.6570  182.7060 C.ar   97  TYR97      -0.0009
     66  CD2       36.9460  101.4330  182.8850 C.ar   97  TYR97      -0.0009
     67  CE1       35.6770   99.2420  183.9850 C.ar   97  TYR97       0.0417
     68  CE2       37.2650  101.0220  184.1670 C.ar   97  TYR97       0.0417
     69  CZ        36.6250   99.9240  184.7120 C.ar   97  TYR97       0.1957
     70  OH        36.9290   99.5020  185.9890 O.3    97  TYR97      -0.2866
     71  N         31.3260  102.2300  184.8890 N.3   101  LEU101     -0.1245
     72  CA        31.8890  102.6060  186.1760 C.3   101  LEU101      0.1561
     73  C         31.0370  103.6610  186.8660 C.2   101  LEU101      0.2260
     74  O         30.7290  103.5420  188.0580 O.2   101  LEU101     -0.2867
     75  CB        33.3150  103.1120  185.9840 C.3   101  LEU101      0.0270
     76  CG        33.9730  103.4610  187.3120 C.3   101  LEU101      0.0019
     77  CD1       34.2220  102.1830  188.1030 C.3   101  LEU101      0.0001
     78  CD2       35.2550  104.2460  187.0950 C.3   101  LEU101      0.0001
     79  N         27.7880  102.3750  188.1770 N.3   104  MET104     -0.1230
     80  CA        28.0420  101.6150  189.3950 C.3   104  MET104      0.1702
     81  C         28.2150  102.5390  190.5870 C.2   104  MET104      0.2592
     82  O         27.6220  102.3160  191.6480 O.2   104  MET104     -0.2718
     83  CB        29.2890  100.7500  189.2180 C.3   104  MET104      0.0401
     84  CG        29.5840   99.8080  190.3750 C.3   104  MET104      0.0596
     85  SD        28.1640   98.8590  190.9360 S.3   104  MET104     -0.1393
     86  CE        28.2200   97.4910  189.7850 C.3   104  MET104      0.0692
     87  N         28.9970  103.6030  190.4200 N.am  105  ASN105     -0.1974
     88  CA        29.2170  104.5350  191.5140 C.3   105  ASN105      0.1688
     89  C         27.9400  105.2650  191.8930 C.2   105  ASN105      0.2292
     90  O         27.7490  105.6120  193.0640 O.2   105  ASN105     -0.2864
     91  CB        30.3100  105.5260  191.1280 C.3   105  ASN105      0.1181
     92  CG        31.7090  104.9320  191.2450 C.2   105  ASN105      0.2629
     93  OD1       31.9540  104.0280  192.0460 O.2   105  ASN105     -0.2716
     94  ND2       32.6260  105.4190  190.4200 N.am  105  ASN105     -0.0877
     95  N         26.0640  102.9620  194.0710 N.3   108  LEU108     -0.1245
     96  CA        26.6720  102.8600  195.3890 C.3   108  LEU108      0.1561
     97  C         26.6020  104.1640  196.1690 C.2   108  LEU108      0.2260
     98  O         26.5440  104.1350  197.4040 O.2   108  LEU108     -0.2867
     99  CB        28.1280  102.4260  195.2680 C.3   108  LEU108      0.0270
    100  CG        28.3750  101.0760  194.6150 C.3   108  LEU108      0.0019
    101  CD1       29.8330  100.9410  194.2270 C.3   108  LEU108      0.0001
    102  CD2       27.9600   99.9620  195.5530 C.3   108  LEU108      0.0001
@<TRIPOS>BOND
     1    59    60    1
     2    60    63    1
     3    60    61    1
     4    63    64    1
     5    61    62    2
     6    64    65   ar
     7    64    66   ar
     8    65    67   ar
     9    66    68   ar
    10    51    50    2
    11    67    69   ar
    12    50    49    1
    13    68    69   ar
    14    69    70    1
    15    71    72    1
    16    52    49    1
    17    52    53    1
    18    49    48    1
    19    58    56    1
    20    75    72    1
    21    75    76    1
    22    72    73    1
    23    55    56    2
    24    55    54    1
    25    53    54    1
    26    56    57    1
    27    73    74    2
    28    78    76    1
    29    76    77    1
    30    79    80    1
    31    83    80    1
    32    83    84    1
    33     4     3    2
    34    80    81    1
    35    86    85    1
    36    84    85    1
    37    87    81   am
    38    87    88    1
    39    94    92   am
    40     3     2    1
    41    81    82    2
    42     7     1    1
    43     7     6    1
    44    91    92    1
    45    91    88    1
    46    92    93    2
    47     1     2    1
    48     6     5    1
    49    88    89    1
    50     2     5    1
    51    89    90    2
    52    47    46    1
    53    11    10    2
    54    12     9    1
    55    45    46    1
    56    45    44    1
    57    95    96    1
    58    44    41    1
    59     8     9    1
    60   101   100    1
    61   100    99    1
    62   100   102    1
    63    10     9    1
    64    23    21   ar
    65    23    22   ar
    66    99    96    1
    67    38    37    1
    68    96    97    1
    69    21    19   ar
    70    41    40    1
    71    41    42    1
    72    40    34   am
    73    97    98    2
    74    42    43    2
    75    22    20   ar
    76    37    39    1
    77    37    36    1
    78    19    18   ar
    79    34    33    1
    80    34    35    2
    81    33    36    1
    82    33    32    1
    83    20    18   ar
    84    27    26    2
    85    18    17    1
    86    16    15    2
    87    32    26   am
    88    26    25    1
    89    13    14    1
    90    15    14    1
    91    17    14    1
    92    24    25    1
    93    25    28    1
    94    28    29    1
    95    30    29   ar
    96    29    31   ar
