@<TRIPOS>MOLECULE
tmp/6b7fB00.pdb
 142 134 0 0 0
SMALL
GASTEIGER

@<TRIPOS>ATOM
      1  N         23.9710  124.2210  176.9430 N.3     6  PRO6       -0.2102
      2  CA        23.4110  124.6460  175.6570 C.3     6  PRO6        0.1504
      3  C         22.8800  123.4650  174.8770 C.2     6  PRO6        0.2576
      4  O         23.2830  122.3240  175.1280 O.2     6  PRO6       -0.2718
      5  CB        24.6070  125.2800  174.9560 C.3     6  PRO6        0.0282
      6  CG        25.7590  124.4360  175.4370 C.3     6  PRO6        0.0208
      7  CD        25.4230  124.0190  176.8660 C.3     6  PRO6        0.0893
      8  N         21.9800  123.7260  173.9430 N.am    7  GLY7       -0.1943
      9  CA        21.4310  122.6660  173.1320 C.3     7  GLY7        0.2014
     10  C         20.3210  123.2100  172.2630 C.2     7  GLY7        0.2639
     11  O         19.9340  124.3790  172.3590 O.2     7  GLY7       -0.2714
     12  N         19.8210  122.3300  171.3960 N.am    8  THR8       -0.1950
     13  CA        18.7130  122.6820  170.5080 C.3     8  THR8        0.1897
     14  C         17.3810  122.5500  171.2310 C.2     8  THR8        0.2313
     15  O         16.4720  123.3490  170.9970 O.2     8  THR8       -0.2863
     16  CB        18.7730  121.8290  169.2310 C.3     8  THR8        0.1794
     17  OG1       20.0130  122.0960  168.5520 O.3     8  THR8       -0.2208
     18  CG2       17.6220  122.1430  168.2710 C.3     8  THR8        0.0378
     19  N         19.8540  127.0230  171.5940 N.3    35  ALA35      -0.1245
     20  CA        20.4460  127.5160  170.3590 C.3    35  ALA35       0.1562
     21  C         19.3580  127.5720  169.2940 C.2    35  ALA35       0.2260
     22  O         18.5030  126.6830  169.2060 O.2    35  ALA35      -0.2867
     23  CB        21.6010  126.6290  169.9180 C.3    35  ALA35       0.0290
     24  N         19.6650  127.2560  166.1260 N.3    37  SER37      -0.1217
     25  CA        19.9840  126.1190  165.2670 C.3    37  SER37       0.1889
     26  C         19.0610  126.0250  164.0190 C.2    37  SER37       0.2288
     27  O         18.4120  125.0170  163.8310 O.2    37  SER37      -0.2866
     28  CB        19.9350  124.8210  166.0620 C.3    37  SER37       0.2089
     29  OG        21.0190  124.7210  166.9740 O.3    37  SER37      -0.2183
     30  N         19.1500  123.0580  161.5050 N.3    40  LYS40      -0.1245
     31  CA        18.5030  121.8090  161.8970 C.3    40  LYS40       0.1561
     32  C         17.0220  121.7610  161.5550 C.2    40  LYS40       0.2260
     33  O         16.3940  120.7180  161.7710 O.2    40  LYS40      -0.2867
     34  CB        18.6510  121.5750  163.4050 C.3    40  LYS40       0.0271
     35  CG        19.8700  120.7790  163.7330 C.3    40  LYS40       0.0035
     36  CD        20.2100  120.8620  165.1860 C.3    40  LYS40       0.0206
     37  CE        21.6080  120.3510  165.3810 C.3    40  LYS40       0.1093
     38  NZ        21.9050  120.2070  166.8210 N.3    40  LYS40      -0.1314
     39  N         19.4380  131.8410  172.1720 N.3    68  PHE68      -0.1227
     40  CA        20.5750  132.5450  171.5990 C.3    68  PHE68       0.1736
     41  C         20.8610  132.0160  170.2030 C.2    68  PHE68       0.2596
     42  O         20.6270  130.8420  169.9050 O.2    68  PHE68      -0.2718
     43  CB        21.8140  132.4180  172.4950 C.3    68  PHE68       0.0547
     44  CG        22.4880  131.0690  172.4440 C.ar   68  PHE68      -0.0202
     45  CD1       21.9310  129.9720  173.0940 C.ar   68  PHE68      -0.0042
     46  CD2       23.7110  130.9140  171.8050 C.ar   68  PHE68      -0.0042
     47  CE1       22.5530  128.7270  173.0720 C.ar   68  PHE68      -0.0003
     48  CE2       24.3520  129.6730  171.7800 C.ar   68  PHE68      -0.0003
     49  CZ        23.7650  128.5720  172.4180 C.ar   68  PHE68      -0.0000
     50  N         21.3730  132.9040  169.3540 N.am   69  SER69      -0.1938
     51  CA        21.8090  132.5480  168.0110 C.3    69  SER69       0.2055
     52  C         23.2820  132.8610  167.8130 C.2    69  SER69       0.2643
     53  O         23.7960  132.7300  166.6970 O.2    69  SER69      -0.2714
     54  CB        20.9610  133.2630  166.9550 C.3    69  SER69       0.2130
     55  OG        20.9450  134.6590  167.1840 O.3    69  SER69      -0.2179
     56  N         23.9700  133.2690  168.8700 N.am   70  ASP70      -0.1957
     57  CA        25.3760  133.6340  168.8010 C.3    70  ASP70       0.1840
     58  C         26.2900  132.4230  168.6460 C.2    70  ASP70       0.2622
     59  O         25.8780  131.2580  168.6590 O.2    70  ASP70      -0.2715
     60  CB        25.8030  134.3620  170.0700 C.3    70  ASP70       0.1450
     61  CG        25.1600  135.7030  170.2140 C.2    70  ASP70       0.3671
     62  OD1       24.4890  136.1440  169.2590 O.co2  70  ASP70      -0.2456
     63  OD2       25.3400  136.3260  171.2780 O.co2  70  ASP70      -0.2456
     64  N         27.5700  132.7400  168.5260 N.am   71  LEU71      -0.1963
     65  CA        28.6110  131.7490  168.6840 C.3    71  LEU71       0.1728
     66  C         28.6160  131.3270  170.1440 C.2    71  LEU71       0.2616
     67  O         28.5120  132.1690  171.0350 O.2    71  LEU71      -0.2715
     68  CB        29.9620  132.3570  168.3070 C.3    71  LEU71       0.0311
     69  CG        31.2040  131.4690  168.3500 C.3    71  LEU71       0.0022
     70  CD1       31.2720  130.6250  167.0880 C.3    71  LEU71       0.0001
     71  CD2       32.4860  132.2760  168.5770 C.3    71  LEU71       0.0001
     72  N         28.7030  130.0190  170.3900 N.am   72  MET72      -0.1977
     73  CA        28.6440  129.5130  171.7600 C.3    72  MET72       0.1605
     74  C         29.6620  130.2060  172.6570 C.2    72  MET72       0.2287
     75  O         29.3410  130.6100  173.7810 O.2    72  MET72      -0.2864
     76  CB        28.8870  128.0030  171.7710 C.3    72  MET72       0.0413
     77  CG        28.9590  127.4060  173.1660 C.3    72  MET72       0.0598
     78  SD        27.2800  127.1170  173.7450 S.3    72  MET72      -0.1393
     79  CE        27.0900  128.3330  175.0400 C.3    72  MET72       0.0692
     80  N         30.8500  124.7650  180.5860 N.3    84  LEU84      -0.1245
     81  CA        29.8870  124.3530  179.5720 C.3    84  LEU84       0.1561
     82  C         29.4660  122.9180  179.8710 C.2    84  LEU84       0.2260
     83  O         30.3160  122.0160  179.9200 O.2    84  LEU84      -0.2867
     84  CB        30.4930  124.4490  178.1840 C.3    84  LEU84       0.0270
     85  CG        29.5960  125.0170  177.0840 C.3    84  LEU84       0.0019
     86  CD1       29.1160  126.4100  177.4650 C.3    84  LEU84       0.0001
     87  CD2       30.3660  125.0410  175.7800 C.3    84  LEU84       0.0001
     88  N         27.3680  119.4870  178.9400 N.3    86  ARG86      -0.1245
     89  CA        26.8220  118.6670  177.8710 C.3    86  ARG86       0.1563
     90  C         26.5400  117.2930  178.4550 C.2    86  ARG86       0.2260
     91  O         27.2930  116.8000  179.3150 O.2    86  ARG86      -0.2867
     92  CB        27.8000  118.5540  176.6930 C.3    86  ARG86       0.0307
     93  CG        28.0050  119.8720  175.9550 C.3    86  ARG86       0.0489
     94  CD        26.7460  120.3120  175.2050 C.3    86  ARG86       0.2205
     95  NE        26.7650  119.7920  173.8430 N.pl3  86  ARG86      -0.0865
     96  CZ        25.7420  119.8280  172.9950 C.cat  86  ARG86       0.5346
     97  NH1       24.5810  120.3480  173.3610 N.pl3  86  ARG86       0.1354
     98  NH2       25.8790  119.3280  171.7740 N.pl3  86  ARG86       0.1354
     99  N         31.5380  113.6390  168.5210 N.3    96  TYR96      -0.1241
    100  CA        31.1710  114.9710  168.0760 C.3    96  TYR96       0.1605
    101  C         31.3340  115.9750  169.2020 C.2    96  TYR96       0.2264
    102  O         31.8120  117.0870  168.9680 O.2    96  TYR96      -0.2867
    103  CB        29.7210  114.9760  167.5750 C.3    96  TYR96       0.0534
    104  CG        29.2100  116.3450  167.1760 C.ar   96  TYR96      -0.0201
    105  CD1       29.8090  117.0600  166.1540 C.ar   96  TYR96      -0.0009
    106  CD2       28.1340  116.9260  167.8320 C.ar   96  TYR96      -0.0009
    107  CE1       29.3450  118.3090  165.7830 C.ar   96  TYR96       0.0417
    108  CE2       27.6590  118.1760  167.4690 C.ar   96  TYR96       0.0417
    109  CZ        28.2670  118.8620  166.4470 C.ar   96  TYR96       0.1957
    110  OH        27.8100  120.1070  166.0780 O.3    96  TYR96      -0.2866
    111  N         33.5050  119.4760  169.2580 N.3   100  LEU100     -0.1245
    112  CA        32.8840  120.6930  169.7620 C.3   100  LEU100      0.1561
    113  C         33.7110  121.3090  170.8880 C.2   100  LEU100      0.2260
    114  O         34.1060  122.4870  170.8160 O.2   100  LEU100     -0.2867
    115  CB        31.4790  120.3890  170.2720 C.3   100  LEU100      0.0270
    116  CG        30.3840  121.2190  169.6340 C.3   100  LEU100      0.0019
    117  CD1       30.4010  121.0080  168.1290 C.3   100  LEU100      0.0001
    118  CD2       29.0680  120.7990  170.2380 C.3   100  LEU100      0.0001
    119  N         36.8360  122.8120  169.8580 N.3   103  MET103     -0.1230
    120  CA        36.5830  124.0600  169.1450 C.3   103  MET103      0.1702
    121  C         36.2550  125.1760  170.1220 C.2   103  MET103      0.2592
    122  O         36.8000  126.2830  170.0210 O.2   103  MET103     -0.2718
    123  CB        35.4480  123.8780  168.1410 C.3   103  MET103      0.0401
    124  CG        35.2160  125.0670  167.2130 C.3   103  MET103      0.0596
    125  SD        36.7050  125.7400  166.4460 S.3   103  MET103     -0.1393
    126  CE        36.9040  124.6200  165.0650 C.3   103  MET103      0.0692
    127  N         35.3920  124.8890  171.0950 N.am  104  ASN104     -0.1974
    128  CA        35.0500  125.8840  172.0980 C.3   104  ASN104      0.1688
    129  C         36.2560  126.2360  172.9580 C.2   104  ASN104      0.2292
    130  O         36.3850  127.3840  173.4000 O.2   104  ASN104     -0.2864
    131  CB        33.8990  125.3660  172.9570 C.3   104  ASN104      0.1181
    132  CG        32.5570  125.4810  172.2630 C.2   104  ASN104      0.2629
    133  OD1       32.3580  126.3490  171.4160 O.2   104  ASN104     -0.2716
    134  ND2       31.6300  124.5910  172.6070 N.am  104  ASN104     -0.0877
    135  N         38.2780  128.7440  170.9950 N.3   107  LEU107     -0.1245
    136  CA        37.6610  130.0610  170.9360 C.3   107  LEU107      0.1561
    137  C         37.6240  130.7470  172.2950 C.2   107  LEU107      0.2260
    138  O         37.6630  131.9790  172.3630 O.2   107  LEU107     -0.2867
    139  CB        36.2530  129.9360  170.3560 C.3   107  LEU107      0.0270
    140  CG        36.2590  129.3520  168.9420 C.3   107  LEU107      0.0019
    141  CD1       34.8820  128.8770  168.5260 C.3   107  LEU107      0.0001
    142  CD2       36.8020  130.3820  167.9590 C.3   107  LEU107      0.0001
@<TRIPOS>BOND
     1    30    31    1
     2    32    33    2
     3    32    31    1
     4    31    34    1
     5    34    35    1
     6    35    36    1
     7    27    26    2
     8    26    25    1
     9   126   125    1
    10    36    37    1
    11    25    28    1
    12    25    24    1
    13    37    38    1
    14   107   105   ar
    15   107   109   ar
    16    28    29    1
    17   110   109    1
    18   105   104   ar
    19   125   124    1
    20   109   108   ar
    21    53    52    2
    22    54    55    1
    23    54    51    1
    24    70    69    1
    25   104   103    1
    26   104   106   ar
    27   124   123    1
    28   108   106   ar
    29   103   100    1
    30    52    51    1
    31    52    56   am
    32   142   140    1
    33    51    50    1
    34   100    99    1
    35   100   101    1
    36   117   116    1
    37   123   120    1
    38    18    16    1
    39    68    69    1
    40    68    65    1
    41    69    71    1
    42    64    58   am
    43    64    65    1
    44   141   140    1
    45    17    16    1
    46    58    59    2
    47    58    57    1
    48    65    66    1
    49    57    56    1
    50    57    60    1
    51   140   139    1
    52   102   101    2
    53   120   119    1
    54   120   121    1
    55    22    21    2
    56    16    13    1
    57   111   112    1
    58    62    61   ar
    59    21    20    1
    60    50    41   am
    61   116   118    1
    62   116   115    1
    63   112   115    1
    64   112   113    1
    65    42    41    2
    66    23    20    1
    67   122   121    2
    68    60    61    1
    69   121   127   am
    70    66    72   am
    71    66    67    2
    72    41    40    1
    73    61    63   ar
    74   139   136    1
    75    20    19    1
    76    72    73    1
    77    13    14    1
    78    13    12    1
    79   114   113    2
    80   136   135    1
    81   136   137    1
    82    15    14    2
    83   127   128    1
    84    12    10   am
    85   133   132    2
    86    40    39    1
    87    40    43    1
    88    73    76    1
    89    73    74    1
    90    76    77    1
    91    98    96    1
    92    48    46   ar
    93    48    49   ar
    94    46    44   ar
    95   128   131    1
    96   128   129    1
    97    10    11    2
    98    10     9    1
    99   132   134   am
   100   132   131    1
   101   137   138    2
   102    49    47   ar
   103    44    43    1
   104    44    45   ar
   105    74    75    2
   106   129   130    2
   107    96    97    1
   108    96    95    2
   109    47    45   ar
   110     9     8    1
   111    77    78    1
   112    78    79    1
   113    95    94    1
   114     8     3   am
   115     3     4    2
   116     3     2    1
   117     5     6    1
   118     5     2    1
   119    94    93    1
   120     6     7    1
   121     2     1    1
   122    87    85    1
   123    93    92    1
   124    92    89    1
   125     7     1    1
   126    85    86    1
   127    85    84    1
   128    89    90    1
   129    89    88    1
   130    84    81    1
   131    90    91    2
   132    81    82    1
   133    81    80    1
   134    82    83    2
