@<TRIPOS>MOLECULE
tmp/6b7oA00.pdb
 239 229 0 0 0
SMALL
GASTEIGER

@<TRIPOS>ATOM
      1  N         52.5830   67.4390   27.1400 N.3    52  LEU52      -0.1231
      2  CA        53.7980   67.8500   27.8320 C.3    52  LEU52       0.1693
      3  C         54.5020   69.0700   27.2240 C.2    52  LEU52       0.2591
      4  O         54.7490   69.1140   26.0040 O.2    52  LEU52      -0.2718
      5  CB        54.7280   66.6670   27.7630 C.3    52  LEU52       0.0284
      6  CG        55.9860   66.6300   28.5800 C.3    52  LEU52       0.0019
      7  CD1       55.6270   66.6870   30.0710 C.3    52  LEU52       0.0001
      8  CD2       56.7600   65.3540   28.1950 C.3    52  LEU52       0.0001
      9  N         54.8550   70.0280   28.0970 N.am   53  GLN53      -0.1979
     10  CA        55.7800   71.1630   27.7760 C.3    53  GLN53       0.1601
     11  C         55.3970   71.8470   26.4370 C.2    53  GLN53       0.2287
     12  O         56.2040   72.0660   25.5800 O.2    53  GLN53      -0.2864
     13  CB        57.2010   70.6430   27.8110 C.3    53  GLN53       0.0394
     14  CG        57.6500   70.3270   29.2290 C.3    53  GLN53       0.0908
     15  CD        58.8190   69.3540   29.3470 C.2    53  GLN53       0.2608
     16  OE1       58.9500   68.3410   28.6410 O.2    53  GLN53      -0.2717
     17  NE2       59.6300   69.6270   30.3180 N.am   53  GLN53      -0.0878
     18  N         61.0010   72.7780   24.0250 N.3    67  ILE67      -0.1231
     19  CA        61.9790   71.6690   24.0210 C.3    67  ILE67       0.1692
     20  C         62.4400   71.3730   22.5710 C.2    67  ILE67       0.2591
     21  O         63.4620   70.7550   22.3680 O.2    67  ILE67      -0.2718
     22  CB        61.3720   70.4060   24.6170 C.3    67  ILE67       0.0266
     23  CG1       60.6200   70.6960   25.9090 C.3    67  ILE67       0.0019
     24  CG2       62.4480   69.3160   24.8330 C.3    67  ILE67       0.0020
     25  CD1       61.4900   71.3260   27.0220 C.3    67  ILE67       0.0001
     26  N         61.6770   71.8220   21.5620 N.am   68  ALA68      -0.1980
     27  CA        61.9100   71.4690   20.1770 C.3    68  ALA68       0.1597
     28  C         61.7800   72.6770   19.2610 C.2    68  ALA68       0.2287
     29  O         61.1330   72.6110   18.1910 O.2    68  ALA68      -0.2864
     30  CB        60.8900   70.3980   19.7220 C.3    68  ALA68       0.0319
     31  N         67.0720   74.7480   19.9830 N.3    72  HIS72      -0.1241
     32  CA        67.3530   73.3500   19.6730 C.3    72  HIS72       0.1621
     33  C         67.7820   73.1240   18.2340 C.2    72  HIS72       0.2264
     34  O         68.8150   72.5330   17.9320 O.2    72  HIS72      -0.2867
     35  CB        66.1460   72.4690   19.9930 C.3    72  HIS72       0.0745
     36  CG        66.1810   71.1750   19.2490 C.ar   72  HIS72       0.0817
     37  ND1       67.0750   70.1720   19.5650 N.ar   72  HIS72      -0.2268
     38  CD2       65.5710   70.7740   18.1040 C.ar   72  HIS72       0.1154
     39  CE1       66.9820   69.1900   18.6840 C.ar   72  HIS72       0.1986
     40  NE2       66.0890   69.5290   17.7830 N.ar   72  HIS72      -0.2212
     41  N         64.2850   68.9470   10.6400 N.3   120  PHE120     -0.1227
     42  CA        64.2920   67.6300   11.2380 C.3   120  PHE120      0.1736
     43  C         63.1500   67.3930   12.2580 C.2   120  PHE120      0.2595
     44  O         62.5490   66.3200   12.2120 O.2   120  PHE120     -0.2718
     45  CB        65.6860   67.3530   11.8450 C.3   120  PHE120      0.0547
     46  CG        65.9980   65.8880   12.0520 C.ar  120  PHE120     -0.0202
     47  CD1       66.0020   65.0020   10.9760 C.ar  120  PHE120     -0.0042
     48  CD2       66.2990   65.4010   13.3220 C.ar  120  PHE120     -0.0042
     49  CE1       66.2750   63.6260   11.1700 C.ar  120  PHE120     -0.0003
     50  CE2       66.6230   64.0450   13.5130 C.ar  120  PHE120     -0.0003
     51  CZ        66.5810   63.1640   12.4410 C.ar  120  PHE120     -0.0000
     52  N         62.8700   68.3480   13.1680 N.am  121  VAL121     -0.1980
     53  CA        61.6910   68.3060   14.0360 C.3   121  VAL121      0.1595
     54  C         60.5990   69.3340   13.7460 C.2   121  VAL121      0.2287
     55  O         59.6540   69.5090   14.5280 O.2   121  VAL121     -0.2864
     56  CB        62.0980   68.3590   15.5280 C.3   121  VAL121      0.0276
     57  CG1       62.8850   67.1170   15.8610 C.3   121  VAL121      0.0022
     58  CG2       62.9070   69.6200   15.8870 C.3   121  VAL121      0.0022
     59  N         56.8250   68.2820   13.9770 N.3   124  ARG124     -0.1245
     60  CA        56.1650   67.8670   15.2120 C.3   124  ARG124      0.1563
     61  C         54.8600   68.6490   15.4400 C.2   124  ARG124      0.2260
     62  O         54.8100   69.9010   15.2340 O.2   124  ARG124     -0.2867
     63  CB        57.0870   68.2050   16.4620 C.3   124  ARG124      0.0307
     64  CG        58.2210   67.2230   16.7840 C.3   124  ARG124      0.0489
     65  CD        58.8570   67.5560   18.1440 C.3   124  ARG124      0.2205
     66  NE        59.6930   66.4440   18.6190 N.pl3 124  ARG124     -0.0865
     67  CZ        59.2100   65.3080   19.1480 C.cat 124  ARG124      0.5346
     68  NH1       60.0430   64.3430   19.5230 N.pl3 124  ARG124      0.1354
     69  NH2       57.8990   65.1080   19.3100 N.pl3 124  ARG124      0.1354
     70  N         54.9990   67.0930   21.8420 N.3   127  GLU127     -0.1245
     71  CA        56.1770   66.4300   22.4140 C.3   127  GLU127      0.1567
     72  C         56.0680   64.8980   22.3690 C.2   127  GLU127      0.2260
     73  O         57.0520   64.2240   22.7290 O.2   127  GLU127     -0.2867
     74  CB        56.4680   66.8990   23.8630 C.3   127  GLU127      0.0388
     75  CG        57.0680   68.3070   23.9510 C.3   127  GLU127      0.1160
     76  CD        58.3930   68.4300   23.2290 C.2   127  GLU127      0.3649
     77  OE1       59.2850   67.5560   23.4810 O.co2 127  GLU127     -0.2457
     78  OE2       58.5460   69.4080   22.3930 O.co2 127  GLU127     -0.2457
     79  N         56.5950   61.2660   21.4230 N.3   129  SER129     -0.1217
     80  CA        57.8390   60.7120   20.8260 C.3   129  SER129      0.1889
     81  C         57.8870   59.1960   20.8050 C.2   129  SER129      0.2288
     82  O         58.9180   58.6010   20.4690 O.2   129  SER129     -0.2866
     83  CB        59.0490   61.2760   21.6050 C.3   129  SER129      0.2089
     84  OG        59.1550   62.6580   21.4420 O.3   129  SER129     -0.2183
     85  N         56.5940   59.8170   16.5050 N.3   134  TYR134     -0.1241
     86  CA        57.8800   60.0810   15.9320 C.3   134  TYR134      0.1605
     87  C         57.8400   59.9240   14.3820 C.2   134  TYR134      0.2264
     88  O         58.2940   60.8010   13.6510 O.2   134  TYR134     -0.2867
     89  CB        58.9620   59.2010   16.5300 C.3   134  TYR134      0.0534
     90  CG        60.3600   59.3610   15.8950 C.ar  134  TYR134     -0.0201
     91  CD1       60.7400   58.6580   14.7700 C.ar  134  TYR134     -0.0009
     92  CD2       61.3070   60.2560   16.4480 C.ar  134  TYR134     -0.0009
     93  CE1       61.9880   58.8650   14.1550 C.ar  134  TYR134      0.0417
     94  CE2       62.5860   60.3800   15.8940 C.ar  134  TYR134      0.0417
     95  CZ        62.9290   59.6960   14.7720 C.ar  134  TYR134      0.1957
     96  OH        64.1970   59.9020   14.2030 O.3   134  TYR134     -0.2866
     97  N         58.2610   63.0630   11.6690 N.3   138  HIS138     -0.1241
     98  CA        59.3750   63.0670   10.7280 C.3   138  HIS138      0.1621
     99  C         58.9250   63.0580    9.2830 C.2   138  HIS138      0.2264
    100  O         59.5280   63.7370    8.4410 O.2   138  HIS138     -0.2867
    101  CB        60.4120   61.9900   11.1060 C.3   138  HIS138      0.0745
    102  CG        61.3350   62.4400   12.1870 C.ar  138  HIS138      0.0817
    103  ND1       62.5310   63.0620   11.9250 N.ar  138  HIS138     -0.2268
    104  CD2       61.1810   62.4710   13.5430 C.ar  138  HIS138      0.1154
    105  CE1       63.1230   63.4080   13.0740 C.ar  138  HIS138      0.1986
    106  NE2       62.3170   63.0700   14.0740 N.ar  138  HIS138     -0.2212
    107  N         63.4130   59.4540    8.1960 N.3   171  ASP171     -0.1239
    108  CA        63.9010   58.3410    9.0470 C.3   171  ASP171      0.1674
    109  C         62.8710   57.1830    9.1470 C.2   171  ASP171      0.2266
    110  O         62.2190   56.9710   10.1860 O.2   171  ASP171     -0.2867
    111  CB        64.2700   58.8750   10.4260 C.3   171  ASP171      0.1410
    112  CG        64.8780   57.7840   11.3390 C.2   171  ASP171      0.3668
    113  OD1       65.3460   56.7550   10.7900 O.co2 171  ASP171     -0.2456
    114  OD2       64.8250   57.9560   12.5960 O.co2 171  ASP171     -0.2456
    115  N         70.6890   54.4300   11.0630 N.3   177  PHE177     -0.1241
    116  CA        71.1710   55.8440   11.2530 C.3   177  PHE177      0.1605
    117  C         72.3320   56.1840   10.3250 C.2   177  PHE177      0.2264
    118  O         72.5300   57.3660    9.9830 O.2   177  PHE177     -0.2867
    119  CB        71.6910   56.0800   12.6650 C.3   177  PHE177      0.0534
    120  CG        70.6530   55.9720   13.7890 C.ar  177  PHE177     -0.0203
    121  CD1       69.3630   56.4840   13.6440 C.ar  177  PHE177     -0.0042
    122  CD2       70.9920   55.3860   14.9670 C.ar  177  PHE177     -0.0042
    123  CE1       68.4420   56.4080   14.6660 C.ar  177  PHE177     -0.0003
    124  CE2       70.0690   55.2810   16.0250 C.ar  177  PHE177     -0.0003
    125  CZ        68.8020   55.8150   15.8740 C.ar  177  PHE177     -0.0000
    126  N         73.8570   60.2840    8.7020 N.3   184  TYR184     -0.1241
    127  CA        74.4510   59.9620   10.0120 C.3   184  TYR184      0.1605
    128  C         74.7460   61.2280   10.8060 C.2   184  TYR184      0.2264
    129  O         74.4850   61.3260   12.0150 O.2   184  TYR184     -0.2867
    130  CB        75.6940   59.1100    9.8100 C.3   184  TYR184      0.0534
    131  CG        76.2050   58.3730   11.0560 C.ar  184  TYR184     -0.0201
    132  CD1       75.3090   57.8840   12.0230 C.ar  184  TYR184     -0.0009
    133  CD2       77.5800   58.1410   11.2720 C.ar  184  TYR184     -0.0009
    134  CE1       75.7600   57.2220   13.1450 C.ar  184  TYR184      0.0417
    135  CE2       78.0180   57.4120   12.3640 C.ar  184  TYR184      0.0417
    136  CZ        77.0940   56.9700   13.2860 C.ar  184  TYR184      0.1957
    137  OH        77.4710   56.2570   14.4060 O.3   184  TYR184     -0.2866
    138  N         71.6740   62.6470   12.2640 N.3   187  HIS187     -0.1226
    139  CA        71.2480   61.8970   13.4680 C.3   187  HIS187      0.1752
    140  C         72.1290   62.1850   14.6960 C.2   187  HIS187      0.2595
    141  O         71.6670   62.3670   15.8590 O.2   187  HIS187     -0.2718
    142  CB        71.2230   60.3940   13.2060 C.3   187  HIS187      0.0759
    143  CG        70.0100   59.9140   12.4380 C.ar  187  HIS187      0.0818
    144  ND1       68.7190   59.9860   12.9410 N.ar  187  HIS187     -0.2268
    145  CD2       69.8960   59.3020   11.2300 C.ar  187  HIS187      0.1154
    146  CE1       67.8640   59.4940   12.0480 C.ar  187  HIS187      0.1986
    147  NE2       68.5480   59.0780   10.9990 N.ar  187  HIS187     -0.2212
    148  N         73.4120   62.1890   14.4490 N.am  188  LEU188     -0.1980
    149  CA        74.4000   62.4790   15.5320 C.3   188  LEU188      0.1596
    150  C         74.2570   63.8900   16.1050 C.2   188  LEU188      0.2287
    151  O         74.3990   64.0700   17.3390 O.2   188  LEU188     -0.2864
    152  CB        75.8130   62.2770   14.9780 C.3   188  LEU188      0.0297
    153  CG        76.2330   60.8170   14.7430 C.3   188  LEU188      0.0022
    154  CD1       77.5600   60.8650   14.0210 C.3   188  LEU188      0.0001
    155  CD2       76.3160   59.9000   15.9750 C.3   188  LEU188      0.0001
    156  N         71.5490   65.7140   16.2340 N.3   190  HIS190     -0.1226
    157  CA        70.3420   65.5950   17.0210 C.3   190  HIS190      0.1752
    158  C         70.6060   64.8770   18.3400 C.2   190  HIS190      0.2592
    159  O         70.1100   65.3250   19.4010 O.2   190  HIS190     -0.2718
    160  CB        69.2950   64.9340   16.1380 C.3   190  HIS190      0.0759
    161  CG        67.9470   64.8230   16.7600 C.ar  190  HIS190      0.0818
    162  ND1       67.0170   65.8530   16.7690 N.ar  190  HIS190     -0.2268
    163  CD2       67.3470   63.7560   17.3460 C.ar  190  HIS190      0.1154
    164  CE1       65.8940   65.4040   17.3020 C.ar  190  HIS190      0.1986
    165  NE2       66.0840   64.1560   17.7030 N.ar  190  HIS190     -0.2212
    166  N         71.3800   63.7900   18.2930 N.am  191  MET191     -0.2032
    167  CA        71.7410   63.0410   19.4440 C.3   191  MET191      0.1291
    168  C         72.4210   63.8760   20.5500 C.3   191  MET191      0.2036
    169  O         72.0610   63.7540   21.7870 O.3   191  MET191     -0.2185
    170  CB        72.6820   61.8920   19.0660 C.3   191  MET191      0.0360
    171  CG        73.0480   60.9790   20.2450 C.3   191  MET191      0.0594
    172  SD        74.3430   59.8240   19.8310 S.3   191  MET191     -0.1393
    173  CE        75.7600   60.9270   19.7530 C.3   191  MET191      0.0692
    174  N         70.2000   66.0350   22.7830 N.3   194  LEU194     -0.1245
    175  CA        69.3740   65.3190   23.7760 C.3   194  LEU194      0.1561
    176  C         69.8700   65.5140   25.2340 C.2   194  LEU194      0.2260
    177  O         69.0910   65.3370   26.1860 O.2   194  LEU194     -0.2867
    178  CB        69.3640   63.8420   23.4910 C.3   194  LEU194      0.0270
    179  CG        68.6510   63.4220   22.2000 C.3   194  LEU194      0.0019
    180  CD1       68.9290   61.8910   22.0320 C.3   194  LEU194      0.0001
    181  CD2       67.1680   63.6140   22.1940 C.3   194  LEU194      0.0001
    182  N         70.0400   68.0290   26.6810 N.3   196  ARG196     -0.1231
    183  CA        69.1220   69.0420   27.2890 C.3   196  ARG196      0.1694
    184  C         67.9790   68.5190   28.0630 C.2   196  ARG196      0.2592
    185  O         67.4370   69.2510   28.9110 O.2   196  ARG196     -0.2718
    186  CB        68.6170   70.0430   26.2210 C.3   196  ARG196      0.0321
    187  CG        67.4430   69.5440   25.4080 C.3   196  ARG196      0.0489
    188  CD        67.1490   70.3780   24.1210 C.3   196  ARG196      0.2205
    189  NE        65.9980   69.8440   23.3580 N.pl3 196  ARG196     -0.0865
    190  CZ        66.0730   68.7840   22.5320 C.cat 196  ARG196      0.5346
    191  NH1       67.2090   68.0810   22.4190 N.pl3 196  ARG196      0.1354
    192  NH2       65.0220   68.4230   21.8100 N.pl3 196  ARG196      0.1354
    193  N         67.5600   67.2810   27.7900 N.am  197  CYS197     -0.1956
    194  CA        66.3110   66.7920   28.3020 C.3   197  CYS197      0.1843
    195  C         66.3600   65.3300   28.6700 C.2   197  CYS197      0.2625
    196  O         65.2950   64.7540   28.8400 O.2   197  CYS197     -0.2714
    197  CB        65.1690   67.0250   27.2770 C.3   197  CYS197      0.0997
    198  SG        65.4490   66.2710   25.6330 S.3   197  CYS197     -0.0797
    199  N         67.5640   64.7400   28.8520 N.am  198  LYS198     -0.1977
    200  CA        67.6930   63.3290   29.2120 C.3   198  LYS198      0.1596
    201  C         68.4820   63.2050   30.5020 C.2   198  LYS198      0.2287
    202  O         69.2720   64.0730   30.8060 O.2   198  LYS198     -0.2864
    203  CB        68.3480   62.4640   28.0870 C.3   198  LYS198      0.0298
    204  CG        67.5580   62.4590   26.7570 C.3   198  LYS198      0.0038
    205  CD        66.2810   61.6460   26.8490 C.3   198  LYS198      0.0206
    206  CE        65.5840   61.5890   25.5120 C.3   198  LYS198      0.1093
    207  NZ        64.2920   60.8850   25.4590 N.3   198  LYS198     -0.1314
    208  N         72.5190   49.2950   24.3750 N.3   211  VAL211     -0.1231
    209  CA        72.5570   50.6570   23.7580 C.3   211  VAL211      0.1692
    210  C         73.7870   51.4080   24.3380 C.2   211  VAL211      0.2593
    211  O         74.0010   51.3180   25.5140 O.2   211  VAL211     -0.2718
    212  CB        71.2780   51.4090   24.1930 C.3   211  VAL211      0.0266
    213  CG1       71.2920   52.8930   23.8140 C.3   211  VAL211      0.0020
    214  CG2       70.0440   50.7240   23.6310 C.3   211  VAL211      0.0020
    215  N         74.5830   52.1310   23.5530 N.am  212  SER212     -0.1938
    216  CA        75.7080   52.9440   24.0940 C.3   212  SER212      0.2055
    217  C         75.1510   54.2490   24.5560 C.2   212  SER212      0.2644
    218  O         74.2770   54.7990   23.9420 O.2   212  SER212     -0.2714
    219  CB        76.7280   53.3630   23.0090 C.3   212  SER212      0.2130
    220  OG        77.1890   52.2620   22.3350 O.3   212  SER212     -0.2179
    221  N         75.6820   54.8490   25.5570 N.am  213  GLY213     -0.1939
    222  CA        75.1930   56.2010   25.7560 C.3   213  GLY213      0.2014
    223  C         75.5350   57.2250   24.6470 C.2   213  GLY213      0.2638
    224  O         76.2880   56.9620   23.7040 O.2   213  GLY213     -0.2714
    225  N         75.0320   58.4430   24.8360 N.am  214  ILE214     -0.1977
    226  CA        75.3300   59.5900   23.9400 C.3   214  ILE214      0.1596
    227  C         76.8170   59.9410   24.0020 C.2   214  ILE214      0.2287
    228  O         77.5140   60.0430   22.9630 O.2   214  ILE214     -0.2864
    229  CB        74.4380   60.8070   24.3510 C.3   214  ILE214      0.0276
    230  CG1       72.9730   60.5380   24.0930 C.3   214  ILE214      0.0022
    231  CG2       74.8960   62.1130   23.7200 C.3   214  ILE214      0.0022
    232  CD1       72.0980   61.5150   24.8280 C.3   214  ILE214      0.0001
    233  N         79.1510   57.1860   22.6520 N.3   217  THR217     -0.1218
    234  CA        79.0730   57.2000   21.2250 C.3   217  THR217      0.1862
    235  C         80.0130   58.2410   20.6380 C.2   217  THR217      0.2287
    236  O         80.7070   57.9460   19.6850 O.2   217  THR217     -0.2866
    237  CB        77.6140   57.4090   20.7800 C.3   217  THR217      0.1770
    238  OG1       76.8760   56.2480   21.1740 O.3   217  THR217     -0.2211
    239  CG2       77.5320   57.5800   19.2710 C.3   217  THR217      0.0375
@<TRIPOS>BOND
     1   107   108    1
     2   100    99    2
     3   126   127    1
     4   108   109    1
     5   108   111    1
     6   109   110    2
     7    99    98    1
     8   130   127    1
     9   130   131    1
    10   118   117    2
    11   127   128    1
    12   117   116    1
    13   111   112    1
    14    41    42    1
    15    98   101    1
    16    98    97    1
    17   113   112   ar
    18   128   129    2
    19    47    49   ar
    20    47    46   ar
    21   147   145   ar
    22   147   146   ar
    23   131   133   ar
    24   131   132   ar
    25   115   116    1
    26   101   102    1
    27    49    51   ar
    28   145   143   ar
    29    42    45    1
    30    42    43    1
    31   116   119    1
    32   133   135   ar
    33   112   114   ar
    34    45    46    1
    35   103   102   ar
    36   103   105   ar
    37   132   134   ar
    38   146   144   ar
    39    46    48   ar
    40   102   104   ar
    41    44    43    2
    42    43    52   am
    43   138   139    1
    44   135   136   ar
    45   143   144   ar
    46   143   142    1
    47    51    50   ar
    48   119   120    1
    49   105   106   ar
    50   134   136   ar
    51    52    53    1
    52   142   139    1
    53   136   137    1
    54    48    50   ar
    55   139   140    1
    56   104   106   ar
    57   121   120   ar
    58   121   123   ar
    59    88    87    2
    60    54    53    1
    61    54    55    2
    62   120   122   ar
    63    59    60    1
    64   154   153    1
    65    53    56    1
    66    93    91   ar
    67    93    95   ar
    68    96    95    1
    69    87    86    1
    70   148   140   am
    71   148   149    1
    72   123   125   ar
    73   140   141    2
    74   153   152    1
    75   153   155    1
    76    91    90   ar
    77    95    94   ar
    78   122   124   ar
    79   152   149    1
    80    60    61    1
    81    60    63    1
    82    62    61    2
    83    56    57    1
    84    56    58    1
    85   149   150    1
    86   125   124   ar
    87    94    92   ar
    88    90    92   ar
    89    90    89    1
    90    86    85    1
    91    86    89    1
    92   150   151    2
    93   160   161    1
    94   160   157    1
    95   156   157    1
    96    63    64    1
    97   161   162   ar
    98   161   163   ar
    99   162   164   ar
   100    64    65    1
   101   157   158    1
   102   164   165   ar
   103   163   165   ar
   104    40    38   ar
   105    40    39   ar
   106    34    33    2
   107    38    36   ar
   108    65    66    1
   109    29    28    2
   110    33    32    1
   111   166   158   am
   112   166   167    1
   113   158   159    2
   114    66    67    2
   115    39    37   ar
   116   170   167    1
   117   170   171    1
   118    67    69    1
   119    67    68    1
   120    36    37   ar
   121    36    35    1
   122    28    27    1
   123   239   237    1
   124   167   168    1
   125    32    31    1
   126    32    35    1
   127   236   235    2
   128    30    27    1
   129   173   172    1
   130   172   171    1
   131    27    26    1
   132    82    81    2
   133   168   169    1
   134   235   234    1
   135   237   238    1
   136   237   234    1
   137    81    80    1
   138    80    79    1
   139    80    83    1
   140   234   233    1
   141    84    83    1
   142    26    20   am
   143   192   190    1
   144    70    71    1
   145   180   179    1
   146   181   179    1
   147   179   178    1
   148   220   219    1
   149    21    20    2
   150    72    71    1
   151    72    73    2
   152    78    76   ar
   153    71    74    1
   154   191   190    1
   155   190   189    2
   156    20    19    1
   157   174   175    1
   158   228   227    2
   159   219   216    1
   160    76    77   ar
   161    76    75    1
   162   189   188    1
   163   178   175    1
   164   215   216    1
   165   215   210   am
   166   214   212    1
   167   224   223    2
   168   231   229    1
   169   209   212    1
   170   209   210    1
   171   209   208    1
   172   175   176    1
   173   213   212    1
   174    74    75    1
   175   226   227    1
   176   226   229    1
   177   226   225    1
   178   218   217    2
   179    19    18    1
   180    19    22    1
   181   230   229    1
   182   230   232    1
   183   216   217    1
   184   188   187    1
   185   210   211    2
   186   217   221   am
   187    22    24    1
   188    22    23    1
   189   223   225   am
   190   223   222    1
   191   176   177    2
   192   187   186    1
   193   207   206    1
   194   206   205    1
   195   221   222    1
   196    12    11    2
   197   198   197    1
   198    23    25    1
   199     4     3    2
   200   186   183    1
   201    11    10    1
   202   182   183    1
   203   204   205    1
   204   204   203    1
   205     1     2    1
   206     3     2    1
   207     3     9   am
   208   197   194    1
   209   183   184    1
   210     5     2    1
   211     5     6    1
   212    10    13    1
   213    10     9    1
   214   193   184   am
   215   193   194    1
   216    13    14    1
   217   184   185    2
   218   203   200    1
   219     8     6    1
   220   194   195    1
   221     6     7    1
   222    16    15    2
   223   195   196    2
   224   195   199   am
   225   199   200    1
   226   200   201    1
   227    14    15    1
   228    15    17   am
   229   201   202    2
