@<TRIPOS>MOLECULE
tmp/6b81B00.pdb
 120 112 0 0 0
SMALL
GASTEIGER

@<TRIPOS>ATOM
      1  N          6.5250  -12.5580   10.4150 N.3     2  LEU2       -0.1245
      2  CA         7.3300  -11.8970   11.4330 C.3     2  LEU2        0.1561
      3  C          8.2240  -12.8880   12.1780 C.2     2  LEU2        0.2260
      4  O          9.2980  -12.5250   12.6630 O.2     2  LEU2       -0.2867
      5  CB         6.4250  -11.1680   12.4250 C.3     2  LEU2        0.0270
      6  CG         7.1150  -10.2860   13.4590 C.3     2  LEU2        0.0019
      7  CD1        7.6650   -9.0400   12.7900 C.3     2  LEU2        0.0001
      8  CD2        6.1330   -9.9320   14.5650 C.3     2  LEU2        0.0001
      9  N         11.2900  -13.9140    9.8230 N.3     5  LEU5       -0.1231
     10  CA        12.0760  -12.6930    9.7400 C.3     5  LEU5        0.1693
     11  C         12.7960  -12.4250   11.0550 C.2     5  LEU5        0.2592
     12  O         13.9770  -12.1320   11.0570 O.2     5  LEU5       -0.2718
     13  CB        11.1860  -11.5070    9.3780 C.3     5  LEU5        0.0284
     14  CG        11.7980  -10.1150    9.4790 C.3     5  LEU5        0.0019
     15  CD1       12.9480   -9.9710    8.4850 C.3     5  LEU5        0.0001
     16  CD2       10.7160   -9.0780    9.2270 C.3     5  LEU5        0.0001
     17  N         12.0820  -12.5320   12.1730 N.am    6  GLY6       -0.1957
     18  CA        12.7040  -12.3090   13.4720 C.3     6  GLY6        0.1869
     19  C         13.8090  -13.3120   13.7540 C.2     6  GLY6        0.2309
     20  O         14.8940  -12.9580   14.2370 O.2     6  GLY6       -0.2863
     21  N         16.9990  -12.6600   11.7910 N.3     9  ILE9       -0.1245
     22  CA        17.7140  -11.5270   12.3660 C.3     9  ILE9        0.1561
     23  C         18.4450  -11.9610   13.6410 C.2     9  ILE9        0.2260
     24  O         19.6060  -11.6080   13.8440 O.2     9  ILE9       -0.2867
     25  CB        16.7600  -10.3570   12.6630 C.3     9  ILE9        0.0252
     26  CG1       16.1530   -9.8400   11.3600 C.3     9  ILE9        0.0019
     27  CG2       17.4910   -9.2340   13.4070 C.3     9  ILE9        0.0019
     28  CD1       15.0950   -8.7340   11.5420 C.3     9  ILE9        0.0001
     29  N         15.4720   -9.6700   17.9990 N.3    17  PRO17      -0.2102
     30  CA        15.1470   -8.8780   16.8110 C.3    17  PRO17       0.1504
     31  C         14.0800   -7.8320   17.0860 C.2    17  PRO17       0.2575
     32  O         14.1300   -6.7340   16.5300 O.2    17  PRO17      -0.2718
     33  CB        14.6510   -9.9320   15.8150 C.3    17  PRO17       0.0282
     34  CG        14.0760  -11.0050   16.6730 C.3    17  PRO17       0.0208
     35  CD        14.9180  -11.0350   17.9280 C.3    17  PRO17       0.0893
     36  N         13.1110   -8.1650   17.9290 N.am   18  ALA18      -0.1980
     37  CA        12.0160   -7.2430   18.1780 C.3    18  ALA18       0.1597
     38  C         12.4760   -6.0810   19.0620 C.2    18  ALA18       0.2287
     39  O         12.0590   -4.9410   18.8680 O.2    18  ALA18      -0.2864
     40  CB        10.8450   -7.9710   18.8110 C.3    18  ALA18       0.0319
     41  N         15.0840   -3.9720   16.6750 N.3    21  TYR21      -0.1227
     42  CA        14.6170   -3.4950   15.3740 C.3    21  TYR21       0.1736
     43  C         13.1060   -3.3020   15.2190 C.2    21  TYR21       0.2596
     44  O         12.6460   -2.8820   14.1590 O.2    21  TYR21      -0.2718
     45  CB        15.1100   -4.4510   14.2840 C.3    21  TYR21       0.0548
     46  CG        16.6040   -4.6550   14.3260 C.ar   21  TYR21      -0.0200
     47  CD1       17.4710   -3.6500   13.9060 C.ar   21  TYR21      -0.0009
     48  CD2       17.1520   -5.8410   14.8020 C.ar   21  TYR21      -0.0009
     49  CE1       18.8400   -3.8220   13.9540 C.ar   21  TYR21       0.0417
     50  CE2       18.5280   -6.0250   14.8570 C.ar   21  TYR21       0.0417
     51  CZ        19.3630   -5.0140   14.4280 C.ar   21  TYR21       0.1957
     52  OH        20.7250   -5.1800   14.4800 O.3    21  TYR21      -0.2866
     53  N         12.3410   -3.5850   16.2660 N.am   22  GLY22      -0.1957
     54  CA        10.8920   -3.5160   16.1940 C.3    22  GLY22       0.1869
     55  C         10.3320   -2.1280   15.9310 C.2    22  GLY22       0.2309
     56  O          9.2630   -1.9850   15.3260 O.2    22  GLY22      -0.2863
     57  N         12.6470    3.2990    9.4060 N.3    27  ASN27      -0.1240
     58  CA        12.3310    2.2240    8.4740 C.3    27  ASN27       0.1653
     59  C         12.1780    0.8440    9.0970 C.2    27  ASN27       0.2266
     60  O         11.5910   -0.0420    8.4790 O.2    27  ASN27      -0.2867
     61  CB        13.3980    2.1590    7.3790 C.3    27  ASN27       0.1155
     62  CG        13.3990    3.3890    6.4940 C.2    27  ASN27       0.2627
     63  OD1       12.6400    3.4710    5.5290 O.2    27  ASN27      -0.2716
     64  ND2       14.2530    4.3550    6.8190 N.am   27  ASN27      -0.0877
     65  N         10.7250   -2.0520   11.4540 N.3    29  GLY29      -0.1225
     66  CA         9.5650   -2.4590   12.2210 C.3    29  GLY29       0.1811
     67  C          8.2740   -1.7830   11.8110 C.2    29  GLY29       0.2280
     68  O          7.9510   -1.6820   10.6240 O.2    29  GLY29      -0.2866
     69  N         16.5580   -1.7710    6.5500 N.3    44  CYS44      -0.1235
     70  CA        15.1140   -1.9220    6.6480 C.3    44  CYS44       0.1677
     71  C         14.3900   -1.2110    5.5040 C.2    44  CYS44       0.2270
     72  O         13.3550   -1.6830    5.0300 O.2    44  CYS44      -0.2867
     73  CB        14.6220   -1.4000    7.9980 C.3    44  CYS44       0.0956
     74  SG        15.3220   -2.3050    9.4220 S.3    44  CYS44      -0.0801
     75  N         14.6370   -3.5360    2.6590 N.3    47  HIS47      -0.1226
     76  CA        13.7570   -4.6650    2.9610 C.3    47  HIS47       0.1752
     77  C         12.3010   -4.3650    2.6110 C.2    47  HIS47       0.2595
     78  O         11.6270   -5.1710    1.9710 O.2    47  HIS47      -0.2718
     79  CB        13.8770   -5.0420    4.4430 C.3    47  HIS47       0.0759
     80  CG        13.1150   -6.2780    4.8260 C.ar   47  HIS47       0.0818
     81  ND1       12.1120   -6.2700    5.7670 N.ar   47  HIS47      -0.2268
     82  CD2       13.2230   -7.5580    4.3950 C.ar   47  HIS47       0.1154
     83  CE1       11.6290   -7.4950    5.9030 C.ar   47  HIS47       0.1986
     84  NE2       12.2840   -8.2930    5.0880 N.ar   47  HIS47      -0.2212
     85  N         11.8160   -3.1990    3.0220 N.am   48  LYS48      -0.1980
     86  CA        10.4250   -2.8480    2.7540 C.3    48  LYS48       0.1596
     87  C         10.1720   -2.6070    1.2610 C.2    48  LYS48       0.2287
     88  O          9.0720   -2.8520    0.7700 O.2    48  LYS48      -0.2864
     89  CB        10.0150   -1.6330    3.5900 C.3    48  LYS48       0.0298
     90  CG         9.8630   -2.0040    5.0570 C.3    48  LYS48       0.0038
     91  CD         9.3730   -0.8700    5.9280 C.3    48  LYS48       0.0206
     92  CE         9.0690   -1.4110    7.3240 C.3    48  LYS48       0.1093
     93  NZ         8.7370   -0.3440    8.2960 N.3    48  LYS48      -0.1314
     94  N          9.7390   -6.0370   -0.2610 N.3    51  TYR51      -0.1241
     95  CA         8.4020   -6.5710   -0.0350 C.3    51  TYR51       0.1605
     96  C          7.4160   -6.1260   -1.1120 C.2    51  TYR51       0.2264
     97  O          6.4280   -6.8090   -1.3800 O.2    51  TYR51      -0.2867
     98  CB         7.8870   -6.1490    1.3400 C.3    51  TYR51       0.0534
     99  CG         8.2860   -7.0680    2.4750 C.ar   51  TYR51      -0.0201
    100  CD1        9.2330   -8.0720    2.2970 C.ar   51  TYR51      -0.0009
    101  CD2        7.7000   -6.9380    3.7250 C.ar   51  TYR51      -0.0009
    102  CE1        9.5870   -8.9140    3.3450 C.ar   51  TYR51       0.0417
    103  CE2        8.0420   -7.7730    4.7730 C.ar   51  TYR51       0.0417
    104  CZ         8.9820   -8.7610    4.5790 C.ar   51  TYR51       0.1957
    105  OH         9.3130   -9.5840    5.6280 O.3    51  TYR51      -0.2866
    106  N         17.9350   -8.8490    4.6720 N.3    92  VAL92      -0.1245
    107  CA        17.8990   -7.8200    5.7000 C.3    92  VAL92       0.1561
    108  C         18.5910   -8.3450    6.9660 C.2    92  VAL92       0.2260
    109  O         19.2680   -7.5860    7.6560 O.2    92  VAL92      -0.2867
    110  CB        16.4550   -7.3270    6.0010 C.3    92  VAL92       0.0252
    111  CG1       15.6750   -8.3370    6.8220 C.3    92  VAL92       0.0019
    112  CG2       16.4910   -5.9750    6.7110 C.3    92  VAL92       0.0019
    113  N         21.6500   -6.2570    8.5130 N.3    96  LEU96      -0.1245
    114  CA        21.6370   -5.7820    9.8880 C.3    96  LEU96       0.1561
    115  C         22.8790   -6.2570   10.6480 C.2    96  LEU96       0.2260
    116  O         23.4830   -5.4900   11.4060 O.2    96  LEU96      -0.2867
    117  CB        20.3560   -6.2370   10.5890 C.3    96  LEU96       0.0270
    118  CG        19.0660   -5.5750   10.1000 C.3    96  LEU96       0.0019
    119  CD1       17.8570   -6.2410   10.7280 C.3    96  LEU96       0.0001
    120  CD2       19.0620   -4.0790   10.4090 C.3    96  LEU96       0.0001
@<TRIPOS>BOND
     1    97    96    2
     2    96    95    1
     3    94    95    1
     4    95    98    1
     5    88    87    2
     6    87    86    1
     7    98    99    1
     8    78    77    2
     9   100    99   ar
    10   100   102   ar
    11    99   101   ar
    12    77    76    1
    13    77    85   am
    14    75    76    1
    15    86    85    1
    16    86    89    1
    17    76    79    1
    18   102   104   ar
    19    89    90    1
    20   101   103   ar
    21    82    80   ar
    22    82    84   ar
    23    79    80    1
    24   104   103   ar
    25   104   105    1
    26   106   107    1
    27    80    81   ar
    28    72    71    2
    29    90    91    1
    30    84    83   ar
    31    71    70    1
    32    63    62    2
    33   107   110    1
    34   107   108    1
    35    81    83   ar
    36    91    92    1
    37   110   112    1
    38   110   111    1
    39    62    64   am
    40    62    61    1
    41    69    70    1
    42    70    73    1
    43   108   109    2
    44    92    93    1
    45    61    58    1
    46    73    74    1
    47    58    59    1
    48    58    57    1
    49    60    59    2
    50    15    14    1
    51   113   114    1
    52    16    14    1
    53    13    14    1
    54    13    10    1
    55    10     9    1
    56    10    11    1
    57   114   117    1
    58   114   115    1
    59   118   120    1
    60   118   117    1
    61   118   119    1
    62     1     2    1
    63    68    67    2
    64   115   116    2
    65    11    12    2
    66    11    17   am
    67    26    28    1
    68    26    25    1
    69     2     3    1
    70     2     5    1
    71    65    66    1
    72    21    22    1
    73    67    66    1
    74    17    18    1
    75     3     4    2
    76    22    25    1
    77    22    23    1
    78     5     6    1
    79    25    27    1
    80     7     6    1
    81     6     8    1
    82    18    19    1
    83    23    24    2
    84    19    20    2
    85    47    49   ar
    86    47    46   ar
    87    49    51   ar
    88    44    43    2
    89    45    46    1
    90    45    42    1
    91    46    48   ar
    92    51    52    1
    93    51    50   ar
    94    48    50   ar
    95    43    42    1
    96    43    53   am
    97    56    55    2
    98    42    41    1
    99    33    34    1
   100    33    30    1
   101    55    54    1
   102    54    53    1
   103    32    31    2
   104    34    35    1
   105    30    31    1
   106    30    29    1
   107    31    36   am
   108    35    29    1
   109    36    37    1
   110    37    40    1
   111    37    38    1
   112    39    38    2
