@<TRIPOS>MOLECULE
tmp/6b82B01.pdb
 154 143 0 0 0
SMALL
GASTEIGER

@<TRIPOS>ATOM
      1  N         47.5520  -25.6910  -39.0030 N.3    80  LEU80      -0.1245
      2  CA        46.9780  -24.3750  -38.7400 C.3    80  LEU80       0.1561
      3  C         47.7420  -23.3170  -39.4700 C.2    80  LEU80       0.2260
      4  O         47.1250  -22.4270  -39.9840 O.2    80  LEU80      -0.2867
      5  CB        46.9350  -24.0330  -37.2360 C.3    80  LEU80       0.0270
      6  CG        46.4430  -22.6190  -36.8630 C.3    80  LEU80       0.0019
      7  CD1       44.9390  -22.4580  -37.0490 C.3    80  LEU80       0.0001
      8  CD2       46.8010  -22.2670  -35.4360 C.3    80  LEU80       0.0001
      9  N         53.5340  -16.4300  -34.0780 N.3    88  ALA88      -0.1231
     10  CA        53.5590  -17.4910  -33.0490 C.3    88  ALA88       0.1694
     11  C         53.7360  -18.7520  -33.8260 C.2    88  ALA88       0.2592
     12  O         53.4570  -18.7750  -35.0260 O.2    88  ALA88      -0.2718
     13  CB        52.2460  -17.5860  -32.3290 C.3    88  ALA88       0.0304
     14  N         54.2100  -19.8030  -33.1930 N.am   89  PHE89      -0.1976
     15  CA        54.5420  -21.0390  -33.9600 C.3    89  PHE89       0.1639
     16  C         55.5600  -20.9180  -35.0990 C.2    89  PHE89       0.2290
     17  O         55.8410  -21.9070  -35.7240 O.2    89  PHE89      -0.2864
     18  CB        53.2860  -21.7330  -34.5130 C.3    89  PHE89       0.0560
     19  CG        52.1720  -21.8340  -33.5190 C.ar   89  PHE89      -0.0200
     20  CD1       52.2950  -22.6400  -32.3770 C.ar   89  PHE89      -0.0042
     21  CD2       50.9960  -21.1360  -33.7160 C.ar   89  PHE89      -0.0042
     22  CE1       51.2660  -22.7270  -31.4600 C.ar   89  PHE89      -0.0003
     23  CE2       49.9460  -21.2420  -32.8090 C.ar   89  PHE89      -0.0003
     24  CZ        50.0840  -22.0360  -31.6800 C.ar   89  PHE89      -0.0000
     25  N         33.6360  -22.2940  -37.3710 N.3   176  TYR176     -0.1227
     26  CA        34.9170  -22.9220  -37.7310 C.3   176  TYR176      0.1736
     27  C         36.0120  -22.5410  -36.7290 C.2   176  TYR176      0.2596
     28  O         36.7800  -23.4020  -36.3250 O.2   176  TYR176     -0.2718
     29  CB        35.3340  -22.6840  -39.2090 C.3   176  TYR176      0.0548
     30  CG        36.1410  -21.4300  -39.5320 C.ar  176  TYR176     -0.0200
     31  CD1       37.4780  -21.3130  -39.1660 C.ar  176  TYR176     -0.0009
     32  CD2       35.5760  -20.3760  -40.2530 C.ar  176  TYR176     -0.0009
     33  CE1       38.2170  -20.1620  -39.4630 C.ar  176  TYR176      0.0417
     34  CE2       36.3040  -19.2270  -40.5660 C.ar  176  TYR176      0.0417
     35  CZ        37.6260  -19.1200  -40.1730 C.ar  176  TYR176      0.1957
     36  OH        38.3450  -17.9810  -40.4860 O.3   176  TYR176     -0.2866
     37  N         36.0530  -21.2770  -36.3080 N.am  177  SER177     -0.1952
     38  CA        37.0360  -20.8210  -35.3260 C.3   177  SER177      0.1924
     39  C         36.9730  -21.6200  -34.0570 C.2   177  SER177      0.2314
     40  O         37.9950  -22.1330  -33.6150 O.2   177  SER177     -0.2863
     41  CB        36.8570  -19.3530  -34.9890 C.3   177  SER177      0.2116
     42  OG        37.1370  -18.6020  -36.1360 O.3   177  SER177     -0.2180
     43  N         38.4680  -24.8800  -34.4270 N.3   180  ILE180     -0.1231
     44  CA        39.9220  -24.8700  -34.4400 C.3   180  ILE180      0.1692
     45  C         40.4260  -24.7790  -33.0030 C.2   180  ILE180      0.2591
     46  O         41.2020  -25.6200  -32.5740 O.2   180  ILE180     -0.2718
     47  CB        40.4410  -23.7490  -35.3480 C.3   180  ILE180      0.0266
     48  CG1       40.1090  -24.1010  -36.8020 C.3   180  ILE180      0.0019
     49  CG2       41.9370  -23.5650  -35.2350 C.3   180  ILE180      0.0020
     50  CD1       40.3100  -22.9760  -37.7900 C.3   180  ILE180      0.0001
     51  N         39.9220  -23.8210  -32.2320 N.am  181  VAL181     -0.1980
     52  CA        40.3260  -23.6570  -30.8160 C.3   181  VAL181      0.1595
     53  C         40.1410  -24.9490  -30.0070 C.2   181  VAL181      0.2287
     54  O         40.9590  -25.2520  -29.1240 O.2   181  VAL181     -0.2864
     55  CB        39.5570  -22.5030  -30.0990 C.3   181  VAL181      0.0276
     56  CG1       39.9980  -22.3750  -28.6400 C.3   181  VAL181      0.0022
     57  CG2       39.7790  -21.1620  -30.7900 C.3   181  VAL181      0.0022
     58  N         43.2000  -27.6380  -31.7370 N.3   184  VAL184     -0.1245
     59  CA        44.5860  -27.3500  -32.1320 C.3   184  VAL184      0.1561
     60  C         45.5500  -27.7290  -31.0160 C.2   184  VAL184      0.2260
     61  O         45.8140  -28.9160  -30.8320 O.2   184  VAL184     -0.2867
     62  CB        44.8080  -25.9270  -32.6860 C.3   184  VAL184      0.0252
     63  CG1       46.2520  -25.7210  -33.1270 C.3   184  VAL184      0.0019
     64  CG2       43.9730  -25.7280  -33.9120 C.3   184  VAL184      0.0019
     65  N         38.4520  -21.7590  -43.6320 N.3   214  ARG214     -0.1245
     66  CA        39.2440  -20.5450  -43.3920 C.3   214  ARG214      0.1563
     67  C         40.0650  -20.2320  -44.6130 C.2   214  ARG214      0.2260
     68  O         40.0780  -19.0810  -45.0630 O.2   214  ARG214     -0.2867
     69  CB        40.1970  -20.7060  -42.2100 C.3   214  ARG214      0.0307
     70  CG        40.9750  -19.4370  -41.8990 C.3   214  ARG214      0.0489
     71  CD        42.3280  -19.7050  -41.2760 C.3   214  ARG214      0.2205
     72  NE        43.2080  -20.5030  -42.1200 N.pl3 214  ARG214     -0.0865
     73  CZ        44.3450  -21.0610  -41.6980 C.cat 214  ARG214      0.5346
     74  NH1       44.7630  -20.9010  -40.4400 N.pl3 214  ARG214      0.1354
     75  NH2       45.0750  -21.7940  -42.5420 N.pl3 214  ARG214      0.1354
     76  N         45.9060  -14.2300  -41.5250 N.3   270  GLY270     -0.1210
     77  CA        44.9690  -15.1660  -40.9080 C.3   270  GLY270      0.1956
     78  C         45.2240  -15.2130  -39.4260 C.2   270  GLY270      0.2611
     79  O         44.2930  -15.2150  -38.6140 O.2   270  GLY270     -0.2717
     80  N         46.5010  -15.2010  -39.0770 N.am  271  GLU271     -0.1979
     81  CA        46.8820  -15.2860  -37.6930 C.3   271  GLU271      0.1602
     82  C         46.3780  -14.0660  -36.9430 C.2   271  GLU271      0.2287
     83  O         45.6630  -14.2170  -35.9590 O.2   271  GLU271     -0.2864
     84  CB        48.3910  -15.4670  -37.5720 C.3   271  GLU271      0.0415
     85  CG        48.9280  -15.3590  -36.1650 C.3   271  GLU271      0.1163
     86  CD        49.8590  -16.4770  -35.8180 C.2   271  GLU271      0.3649
     87  OE1       49.3610  -17.6430  -35.8300 O.co2 271  GLU271     -0.2457
     88  OE2       51.0580  -16.1680  -35.5350 O.co2 271  GLU271     -0.2457
     89  N         42.6230  -14.3280  -36.3700 N.3   274  GLY274     -0.1210
     90  CA        42.2330  -15.2680  -35.3100 C.3   274  GLY274      0.1956
     91  C         42.5990  -14.8120  -33.8970 C.2   274  GLY274      0.2611
     92  O         41.8130  -14.9500  -32.9450 O.2   274  GLY274     -0.2717
     93  N         43.8060  -14.2700  -33.7670 N.am  275  ALA275     -0.1979
     94  CA        44.2490  -13.6530  -32.5440 C.3   275  ALA275      0.1597
     95  C         43.2990  -12.5620  -32.1510 C.2   275  ALA275      0.2287
     96  O         42.6760  -12.6470  -31.0990 O.2   275  ALA275     -0.2864
     97  CB        45.6300  -13.0790  -32.7300 C.3   275  ALA275      0.0319
     98  N         39.7540  -14.1860  -30.9400 N.3   278  GLU278     -0.1231
     99  CA        39.6930  -15.0980  -29.7960 C.3   278  GLU278      0.1699
    100  C         40.3020  -14.5680  -28.5160 C.2   278  GLU278      0.2592
    101  O         39.8490  -14.9160  -27.4430 O.2   278  GLU278     -0.2718
    102  CB        40.2840  -16.4780  -30.1150 C.3   278  GLU278      0.0402
    103  CG        39.4980  -17.6040  -29.4560 C.3   278  GLU278      0.1161
    104  CD        38.0530  -17.6810  -29.9670 C.2   278  GLU278      0.3649
    105  OE1       37.8250  -17.6840  -31.2100 O.co2 278  GLU278     -0.2457
    106  OE2       37.1270  -17.7130  -29.1250 O.co2 278  GLU278     -0.2457
    107  N         41.2970  -13.7060  -28.6110 N.am  279  THR279     -0.1953
    108  CA        41.9570  -13.1920  -27.4010 C.3   279  THR279      0.1897
    109  C         41.1900  -12.0280  -26.7930 C.2   279  THR279      0.2313
    110  O         40.9950  -11.9700  -25.5990 O.2   279  THR279     -0.2863
    111  CB        43.4220  -12.7650  -27.6560 C.3   279  THR279      0.1794
    112  OG1       43.4660  -11.5640  -28.4340 O.3   279  THR279     -0.2208
    113  CG2       44.1750  -13.8640  -28.3760 C.3   279  THR279      0.0378
    114  N         44.8130  -15.2840  -20.3980 N.3   339  VAL339     -0.1231
    115  CA        44.2470  -15.7450  -21.6550 C.3   339  VAL339      0.1692
    116  C         44.8970  -17.0570  -22.1230 C.2   339  VAL339      0.2592
    117  O         44.2360  -17.8680  -22.7370 O.2   339  VAL339     -0.2718
    118  CB        44.3220  -14.6520  -22.7350 C.3   339  VAL339      0.0266
    119  CG1       45.7330  -14.5010  -23.2980 C.3   339  VAL339      0.0020
    120  CG2       43.3090  -14.9260  -23.8340 C.3   339  VAL339      0.0020
    121  N         46.1780  -17.2520  -21.8160 N.am  340  SER340     -0.1952
    122  CA        46.8930  -18.4780  -22.1270 C.3   340  SER340      0.1924
    123  C         47.6030  -18.9270  -20.8670 C.2   340  SER340      0.2314
    124  O         48.7280  -18.5020  -20.6310 O.2   340  SER340     -0.2863
    125  CB        47.9190  -18.2230  -23.2200 C.3   340  SER340      0.2116
    126  OG        47.3270  -18.3550  -24.4850 O.3   340  SER340     -0.2180
    127  N         52.7600  -20.8100  -25.2250 N.3   344  ILE344     -0.1245
    128  CA        53.2820  -21.6320  -26.2930 C.3   344  ILE344      0.1561
    129  C         54.7070  -22.0140  -25.8440 C.2   344  ILE344      0.2260
    130  O         55.3700  -21.2430  -25.1220 O.2   344  ILE344     -0.2867
    131  CB        53.2600  -20.8920  -27.6390 C.3   344  ILE344      0.0252
    132  CG1       51.8230  -20.4910  -27.9950 C.3   344  ILE344      0.0019
    133  CG2       53.8110  -21.7750  -28.7410 C.3   344  ILE344      0.0019
    134  CD1       51.6750  -19.7230  -29.2930 C.3   344  ILE344      0.0001
    135  N         53.7950  -10.2450  -26.8050 N.3   415  CYS415     -0.1235
    136  CA        52.5810  -10.2070  -27.6070 C.3   415  CYS415      0.1677
    137  C         52.6600   -9.1440  -28.6950 C.2   415  CYS415      0.2270
    138  O         52.9950   -7.9990  -28.4400 O.2   415  CYS415     -0.2867
    139  CB        51.3830   -9.9430  -26.7130 C.3   415  CYS415      0.0956
    140  SG        49.8390   -9.7330  -27.5990 S.3   415  CYS415     -0.0801
    141  N         44.2900  -23.6290  -25.9860 N.3   455  VAL455     -0.1231
    142  CA        45.2630  -22.5890  -26.3690 C.3   455  VAL455      0.1692
    143  C         44.9220  -21.2370  -25.7130 C.2   455  VAL455      0.2591
    144  O         45.8090  -20.5000  -25.2970 O.2   455  VAL455     -0.2718
    145  CB        45.3030  -22.3380  -27.8850 C.3   455  VAL455      0.0266
    146  CG1       46.6390  -21.7080  -28.2550 C.3   455  VAL455      0.0020
    147  CG2       45.0720  -23.6230  -28.6700 C.3   455  VAL455      0.0020
    148  N         43.6260  -20.9350  -25.6580 N.am  456  VAL456     -0.1980
    149  CA        43.0840  -19.8400  -24.8810 C.3   456  VAL456      0.1595
    150  C         42.1170  -20.3960  -23.8350 C.2   456  VAL456      0.2287
    151  O         41.3990  -21.3830  -24.0980 O.2   456  VAL456     -0.2864
    152  CB        42.3850  -18.7750  -25.7550 C.3   456  VAL456      0.0276
    153  CG1       43.4270  -18.0120  -26.5550 C.3   456  VAL456      0.0022
    154  CG2       41.3320  -19.3760  -26.6890 C.3   456  VAL456      0.0022
@<TRIPOS>BOND
     1    68    67    2
     2    67    66    1
     3    65    66    1
     4    66    69    1
     5    75    73    1
     6    69    70    1
     7    72    73    2
     8    72    71    1
     9    70    71    1
    10    73    74    1
    11    76    77    1
    12    77    78    1
    13    34    32   ar
    14    34    35   ar
    15    36    35    1
    16    32    30   ar
    17    35    33   ar
    18     4     3    2
    19    30    29    1
    20    30    31   ar
    21     3     2    1
    22    33    31   ar
    23    78    80   am
    24    78    79    2
    25    29    26    1
    26    80    81    1
    27     1     2    1
    28     2     5    1
    29    50    48    1
    30    26    25    1
    31    26    27    1
    32    81    84    1
    33    81    82    1
    34    84    85    1
    35     5     6    1
    36     7     6    1
    37    82    83    2
    38     6     8    1
    39    48    47    1
    40    27    28    2
    41    27    37   am
    42    89    90    1
    43    37    38    1
    44    85    86    1
    45    42    41    1
    46    87    86   ar
    47    86    88   ar
    48    17    16    2
    49    47    49    1
    50    47    44    1
    51    38    41    1
    52    38    39    1
    53    90    91    1
    54    16    15    1
    55    12    11    2
    56    18    15    1
    57    18    19    1
    58    44    43    1
    59    44    45    1
    60     9    10    1
    61    39    40    2
    62    15    14    1
    63    64    62    1
    64    91    93   am
    65    91    92    2
    66    11    14   am
    67    11    10    1
    68    93    94    1
    69    21    19   ar
    70    21    23   ar
    71    19    20   ar
    72    63    62    1
    73    10    13    1
    74    45    46    2
    75    45    51   am
    76    23    24   ar
    77    97    94    1
    78    62    59    1
    79    94    95    1
    80    20    22   ar
    81    51    52    1
    82    95    96    2
    83    59    58    1
    84    59    60    1
    85    24    22   ar
    86   105   104   ar
    87    60    61    2
    88    98    99    1
    89    52    55    1
    90    52    53    1
    91    57    55    1
    92   102    99    1
    93   102   103    1
    94    55    56    1
    95    53    54    2
    96   104   103    1
    97   104   106   ar
    98    99   100    1
    99   134   132    1
   100   133   131    1
   101   137   138    2
   102   137   136    1
   103   147   145    1
   104   107   100   am
   105   107   108    1
   106   100   101    2
   107   112   111    1
   108   113   111    1
   109   146   145    1
   110   132   131    1
   111   145   142    1
   112   111   108    1
   113   131   128    1
   114   136   135    1
   115   136   139    1
   116   140   139    1
   117   108   109    1
   118   109   110    2
   119   154   152    1
   120   153   152    1
   121   142   141    1
   122   142   143    1
   123   128   129    1
   124   128   127    1
   125   129   130    2
   126   152   149    1
   127   143   148   am
   128   143   144    2
   129   148   149    1
   130   149   150    1
   131   126   125    1
   132   151   150    2
   133   120   118    1
   134   119   118    1
   135   125   122    1
   136   117   116    2
   137   118   115    1
   138   122   121    1
   139   122   123    1
   140   116   121   am
   141   116   115    1
   142   115   114    1
   143   123   124    2
