@<TRIPOS>MOLECULE
tmp/6b83A00.pdb
 114 108 0 0 0
SMALL
GASTEIGER

@<TRIPOS>ATOM
      1  N         13.3910    5.9240  -31.5360 N.3     2  LEU2       -0.1245
      2  CA        14.2640    5.2490  -30.5830 C.3     2  LEU2        0.1561
      3  C         14.9010    6.2260  -29.6000 C.2     2  LEU2        0.2260
      4  O         15.1100    5.8950  -28.4330 O.2     2  LEU2       -0.2867
      5  CB        15.3570    4.4730  -31.3210 C.3     2  LEU2        0.0270
      6  CG        15.2220    2.9500  -31.3630 C.3     2  LEU2        0.0019
      7  CD1       16.3300    2.3430  -32.2090 C.3     2  LEU2        0.0001
      8  CD2       15.2420    2.3740  -29.9560 C.3     2  LEU2        0.0001
      9  N         12.3830    7.2560  -26.8770 N.3     5  LEU5       -0.1231
     10  CA        12.1730    6.0900  -26.0280 C.3     5  LEU5        0.1693
     11  C         13.3300    5.9040  -25.0520 C.2     5  LEU5        0.2592
     12  O         13.1180    5.7140  -23.8540 O.2     5  LEU5       -0.2718
     13  CB        11.9990    4.8320  -26.8810 C.3     5  LEU5        0.0284
     14  CG        11.9020    3.5060  -26.1250 C.3     5  LEU5        0.0019
     15  CD1       10.7650    3.5470  -25.1210 C.3     5  LEU5        0.0001
     16  CD2       11.7240    2.3480  -27.0960 C.3     5  LEU5        0.0001
     17  N         14.5510    5.9630  -25.5750 N.am    6  GLY6       -0.1957
     18  CA        15.7400    5.8230  -24.7560 C.3     6  GLY6        0.1869
     19  C         15.8360    6.9050  -23.6990 C.2     6  GLY6        0.2309
     20  O         16.1850    6.6300  -22.5490 O.2     6  GLY6       -0.2863
     21  N         13.3000    6.2340  -20.8500 N.3     9  ILE9       -0.1245
     22  CA        13.7340    5.1570  -19.9700 C.3     9  ILE9        0.1561
     23  C         14.8250    5.6540  -19.0260 C.2     9  ILE9        0.2260
     24  O         14.8190    5.3350  -17.8360 O.2     9  ILE9       -0.2867
     25  CB        14.2310    3.9430  -20.7740 C.3     9  ILE9        0.0252
     26  CG1       13.0580    3.3000  -21.5170 C.3     9  ILE9        0.0019
     27  CG2       14.8850    2.9220  -19.8570 C.3     9  ILE9        0.0019
     28  CD1       13.4560    2.1660  -22.4370 C.3     9  ILE9        0.0001
     29  N         19.6890    2.9770  -20.8730 N.3    17  PRO17      -0.2102
     30  CA        18.6220    2.1720  -21.4850 C.3    17  PRO17       0.1504
     31  C         19.1150    1.0280  -22.3760 C.2    17  PRO17       0.2575
     32  O         18.6100   -0.0870  -22.2500 O.2    17  PRO17      -0.2718
     33  CB        17.8320    3.1990  -22.3070 C.3    17  PRO17       0.0282
     34  CG        18.7760    4.3120  -22.5500 C.3    17  PRO17       0.0208
     35  CD        19.6980    4.3630  -21.3700 C.3    17  PRO17       0.0893
     36  N         20.0740    1.2890  -23.2590 N.am   18  ALA18      -0.1980
     37  CA        20.5840    0.2410  -24.1370 C.3    18  ALA18       0.1597
     38  C         21.3270   -0.8200  -23.3310 C.2    18  ALA18       0.2287
     39  O         21.2430   -2.0120  -23.6220 O.2    18  ALA18      -0.2864
     40  CB        21.4890    0.8310  -25.2000 C.3    18  ALA18       0.0319
     41  N         18.4720   -2.7390  -21.0370 N.3    21  TYR21      -0.1227
     42  CA        17.2920   -3.3090  -21.6810 C.3    21  TYR21       0.1736
     43  C         17.4830   -3.6390  -23.1590 C.2    21  TYR21       0.2596
     44  O         16.5270   -4.0090  -23.8390 O.2    21  TYR21      -0.2718
     45  CB        16.1100   -2.3500  -21.5230 C.3    21  TYR21       0.0548
     46  CG        15.8310   -1.9740  -20.0860 C.ar   21  TYR21      -0.0200
     47  CD1       15.2800   -2.8930  -19.2040 C.ar   21  TYR21      -0.0009
     48  CD2       16.1250   -0.7020  -19.6100 C.ar   21  TYR21      -0.0009
     49  CE1       15.0280   -2.5570  -17.8890 C.ar   21  TYR21       0.0417
     50  CE2       15.8760   -0.3570  -18.2950 C.ar   21  TYR21       0.0417
     51  CZ        15.3260   -1.2880  -17.4400 C.ar   21  TYR21       0.1957
     52  OH        15.0740   -0.9530  -16.1300 O.3    21  TYR21      -0.2866
     53  N         18.7120   -3.5140  -23.6500 N.am   22  GLY22      -0.1957
     54  CA        19.0000   -3.7520  -25.0540 C.3    22  GLY22       0.1869
     55  C         18.6890   -5.1570  -25.5350 C.2    22  GLY22       0.2309
     56  O         18.2300   -5.3470  -26.6630 O.2    22  GLY22      -0.2863
     57  N         11.6410  -10.0580  -24.5160 N.3    27  ASN27      -0.1225
     58  CA        10.8320   -8.9900  -25.0950 C.3    27  ASN27       0.1785
     59  C         11.5000   -7.6180  -25.1750 C.2    27  ASN27       0.2597
     60  O         11.0790   -6.7750  -25.9640 O.2    27  ASN27      -0.2718
     61  CB         9.5240   -8.8590  -24.3110 C.3    27  ASN27       0.1169
     62  CG         8.6650  -10.1000  -24.4080 C.2    27  ASN27       0.2627
     63  OD1        7.8840  -10.2540  -25.3460 O.2    27  ASN27      -0.2716
     64  ND2        8.8070  -10.9980  -23.4400 N.am   27  ASN27      -0.0877
     65  N         12.5280   -7.3820  -24.3660 N.am   28  CYS28      -0.1956
     66  CA        13.1590   -6.0650  -24.3480 C.3    28  CYS28       0.1843
     67  C         14.1920   -5.8950  -25.4500 C.2    28  CYS28       0.2626
     68  O         15.0570   -6.7470  -25.6470 O.2    28  CYS28      -0.2714
     69  CB        13.8040   -5.7940  -22.9880 C.3    28  CYS28       0.0997
     70  SG        12.6290   -5.7060  -21.6290 S.3    28  CYS28      -0.0797
     71  N         14.0870   -4.7820  -26.1690 N.am   29  GLY29      -0.1954
     72  CA        15.0380   -4.4520  -27.2100 C.3    29  GLY29       0.1869
     73  C         14.7860   -5.1800  -28.5130 C.2    29  GLY29       0.2309
     74  O         13.6400   -5.3660  -28.9230 O.2    29  GLY29      -0.2863
     75  N          8.1250   -4.8590  -21.5710 N.3    44  CYS44      -0.1235
     76  CA         8.5310   -4.7810  -22.9670 C.3    44  CYS44       0.1677
     77  C          7.5720   -5.5610  -23.8580 C.2    44  CYS44       0.2270
     78  O          7.3610   -5.2050  -25.0160 O.2    44  CYS44      -0.2867
     79  CB         9.9530   -5.3010  -23.1330 C.3    44  CYS44       0.0956
     80  SG        11.1920   -4.3800  -22.1840 S.3    44  CYS44      -0.0801
     81  N          4.7210   -3.3060  -24.2860 N.3    47  HIS47      -0.1226
     82  CA         5.1950   -2.2300  -25.1490 C.3    47  HIS47       0.1752
     83  C          5.0720   -2.5890  -26.6260 C.2    47  HIS47       0.2595
     84  O          4.5570   -1.8090  -27.4250 O.2    47  HIS47      -0.2718
     85  CB         6.6470   -1.8940  -24.8050 C.3    47  HIS47       0.0759
     86  CG         7.2040   -0.7380  -25.5700 C.ar   47  HIS47       0.0818
     87  ND1        8.3340   -0.8380  -26.3550 N.ar   47  HIS47      -0.2268
     88  CD2        6.7910    0.5500  -25.6730 C.ar   47  HIS47       0.1154
     89  CE1        8.5940    0.3340  -26.9030 C.ar   47  HIS47       0.1986
     90  NE2        7.6720    1.1930  -26.5050 N.ar   47  HIS47      -0.2212
     91  N          5.5370   -3.7810  -26.9810 N.am   48  LYS48      -0.1980
     92  CA         5.5040   -4.2210  -28.3690 C.3    48  LYS48       0.1596
     93  C          4.0800   -4.5160  -28.8370 C.2    48  LYS48       0.2287
     94  O          3.7750   -4.3800  -30.0200 O.2    48  LYS48      -0.2864
     95  CB         6.4030   -5.4430  -28.5570 C.3    48  LYS48       0.0298
     96  CG         7.8780   -5.0680  -28.6450 C.3    48  LYS48       0.0038
     97  CD         8.7960   -6.2770  -28.6700 C.3    48  LYS48       0.0206
     98  CE        10.2440   -5.8340  -28.8470 C.3    48  LYS48       0.1093
     99  NZ        11.2140   -6.9570  -28.7170 N.3    48  LYS48      -0.1314
    100  N          6.0520    2.1880  -21.1660 N.3    92  VAL92      -0.1245
    101  CA         7.0850    1.1870  -20.9260 C.3    92  VAL92       0.1561
    102  C          8.1850    1.7580  -20.0290 C.2    92  VAL92       0.2260
    103  O          8.7290    1.0440  -19.1910 O.2    92  VAL92      -0.2867
    104  CB         7.6940    0.6370  -22.2480 C.3    92  VAL92       0.0252
    105  CG1        8.5870    1.6630  -22.9310 C.3    92  VAL92       0.0019
    106  CG2        8.4670   -0.6500  -21.9790 C.3    92  VAL92       0.0019
    107  N          9.1220   -0.0670  -16.6230 N.3    96  LEU96      -0.1245
    108  CA        10.4780   -0.5130  -16.3210 C.3    96  LEU96       0.1561
    109  C         10.9440    0.0690  -14.9900 C.2    96  LEU96       0.2260
    110  O         11.5700   -0.6200  -14.1860 O.2    96  LEU96      -0.2867
    111  CB        11.4380   -0.1210  -17.4460 C.3    96  LEU96       0.0270
    112  CG        11.1970   -0.8170  -18.7900 C.3    96  LEU96       0.0019
    113  CD1       12.0990   -0.2350  -19.8690 C.3    96  LEU96       0.0001
    114  CD2       11.3960   -2.3220  -18.6730 C.3    96  LEU96       0.0001
@<TRIPOS>BOND
     1     7     6    1
     2     1     2    1
     3     6     5    1
     4     6     8    1
     5     5     2    1
     6     2     3    1
     7    94    93    2
     8     3     4    2
     9    74    73    2
    10    98    99    1
    11    98    97    1
    12    93    92    1
    13    97    96    1
    14    96    95    1
    15    95    92    1
    16    73    72    1
    17    92    91    1
    18    84    83    2
    19    72    71    1
    20    16    14    1
    21    91    83   am
    22    89    90   ar
    23    89    87   ar
    24    13    14    1
    25    13    10    1
    26     9    10    1
    27    56    55    2
    28    83    82    1
    29    90    88   ar
    30    87    86   ar
    31    71    67   am
    32    14    15    1
    33    10    11    1
    34    60    59    2
    35    88    86   ar
    36    68    67    2
    37    17    11   am
    38    17    18    1
    39    86    85    1
    40    55    54    1
    41    67    66    1
    42    63    62    2
    43    40    37    1
    44    59    58    1
    45    59    65   am
    46    82    85    1
    47    82    81    1
    48    58    57    1
    49    58    61    1
    50    54    53    1
    51    11    12    2
    52    78    77    2
    53    18    19    1
    54    62    61    1
    55    62    64   am
    56    65    66    1
    57    66    69    1
    58    37    38    1
    59    37    36    1
    60    77    76    1
    61    44    43    2
    62    19    20    2
    63    53    43   am
    64    39    38    2
    65    36    31   am
    66    43    42    1
    67    79    76    1
    68    79    80    1
    69    69    70    1
    70    76    75    1
    71   105   104    1
    72    34    33    1
    73    34    35    1
    74    28    26    1
    75    31    32    2
    76    31    30    1
    77    33    30    1
    78   104   106    1
    79   104   101    1
    80    80    70    1
    81    42    45    1
    82    42    41    1
    83    45    46    1
    84    26    25    1
    85    30    29    1
    86    35    29    1
    87   100   101    1
    88   101   102    1
    89    21    22    1
    90    25    22    1
    91    25    27    1
    92    46    48   ar
    93    46    47   ar
    94   102   103    2
    95    22    23    1
    96   113   112    1
    97    48    50   ar
    98    47    49   ar
    99    23    24    2
   100   112   114    1
   101   112   111    1
   102    50    51   ar
   103    49    51   ar
   104   111   108    1
   105    51    52    1
   106   107   108    1
   107   108   109    1
   108   109   110    2
