@<TRIPOS>MOLECULE
tmp/6b88B00.pdb
 94 97 0 0 0
SMALL
GASTEIGER

@<TRIPOS>ATOM
      1  N        -15.9860   41.4630  -28.7120 N.3    61  GLU61      -0.1245
      2  CA       -17.1710   42.1180  -29.1940 C.3    61  GLU61       0.1567
      3  C        -17.0650   43.6440  -29.3130 C.2    61  GLU61       0.2260
      4  O        -17.8470   44.2390  -29.9730 O.2    61  GLU61      -0.2867
      5  CB       -18.3640   41.7440  -28.3430 C.3    61  GLU61       0.0388
      6  CG       -19.3860   40.8760  -29.0370 C.3    61  GLU61       0.1160
      7  CD       -19.5310   39.4940  -28.4610 C.2    61  GLU61       0.3649
      8  OE1      -18.7190   38.6240  -28.7780 O.co2  61  GLU61      -0.2457
      9  OE2      -20.4900   39.2740  -27.7200 O.co2  61  GLU61      -0.2457
     10  N        -22.1230   30.4010  -26.2980 N.3   175  TYR175     -0.1227
     11  CA       -21.5040   30.4390  -27.6210 C.3   175  TYR175      0.1736
     12  C        -21.2590   28.9980  -28.0200 C.2   175  TYR175      0.2595
     13  O        -20.6730   28.2470  -27.2450 O.2   175  TYR175     -0.2718
     14  CB       -20.1890   31.2350  -27.5740 C.3   175  TYR175      0.0548
     15  CG       -19.1050   30.7800  -28.5490 C.ar  175  TYR175     -0.0200
     16  CD1      -19.1460   31.1590  -29.8850 C.ar  175  TYR175     -0.0009
     17  CD2      -18.0500   29.9700  -28.1340 C.ar  175  TYR175     -0.0009
     18  CE1      -18.1700   30.7390  -30.7860 C.ar  175  TYR175      0.0417
     19  CE2      -17.0720   29.5440  -29.0270 C.ar  175  TYR175      0.0417
     20  CZ       -17.1390   29.9300  -30.3490 C.ar  175  TYR175      0.1957
     21  OH       -16.1680   29.5050  -31.2330 O.3   175  TYR175     -0.2866
     22  N        -21.7550   28.5740  -29.1840 N.am  176  GLN176     -0.1965
     23  CA       -21.5450   27.1880  -29.6140 C.3   176  GLN176      0.1733
     24  C        -20.5230   27.1900  -30.7480 C.2   176  GLN176      0.2616
     25  O        -20.7790   27.7500  -31.8270 O.2   176  GLN176     -0.2715
     26  CB       -22.8470   26.5100  -30.0310 C.3   176  GLN176      0.0408
     27  CG       -22.7610   24.9940  -29.8780 C.3   176  GLN176      0.0908
     28  CD       -23.9320   24.2350  -30.4770 C.2   176  GLN176      0.2608
     29  OE1      -25.0780   24.6800  -30.4220 O.2   176  GLN176     -0.2717
     30  NE2      -23.6350   23.0740  -31.0370 N.am  176  GLN176     -0.0878
     31  N        -19.3520   26.5860  -30.4880 N.am  177  GLN177     -0.1964
     32  CA       -18.2780   26.4960  -31.4910 C.3   177  GLN177      0.1718
     33  C        -18.7000   25.5270  -32.6020 C.2   177  GLN177      0.2458
     34  O        -19.1460   24.4130  -32.2990 O.2   177  GLN177     -0.2730
     35  CB       -16.9670   26.0080  -30.8440 C.3   177  GLN177      0.0407
     36  CG       -15.8090   25.9750  -31.8390 C.3   177  GLN177      0.0908
     37  CD       -14.4950   25.4610  -31.2720 C.2   177  GLN177      0.2608
     38  OE1      -14.4570   24.8260  -30.2220 O.2   177  GLN177     -0.2717
     39  NE2      -13.4160   25.7340  -31.9900 N.am  177  GLN177     -0.0878
     40  N        -18.5820   25.9140  -33.8810 N.am  178  PRO178     -0.2727
     41  CA       -19.0000   25.0140  -34.9790 C.3   178  PRO178      0.1402
     42  C        -18.2740   23.6720  -34.9480 C.2   178  PRO178      0.2269
     43  O        -17.0530   23.6030  -34.7640 O.2   178  PRO178     -0.2865
     44  CB       -18.6590   25.8120  -36.2540 C.3   178  PRO178      0.0296
     45  CG       -17.7540   26.8990  -35.8350 C.3   178  PRO178      0.0237
     46  CD       -18.1150   27.2100  -34.4070 C.3   178  PRO178      0.0939
     47  N         -8.7330   27.1090  -30.6840 N.3   188  PRO188     -0.2116
     48  CA        -7.9050   27.1400  -31.9390 C.3   188  PRO188      0.1372
     49  C         -6.5580   27.8320  -31.7000 C.2   188  PRO188      0.2244
     50  O         -6.3820   28.4890  -30.6680 O.2   188  PRO188     -0.2868
     51  CB        -8.7920   27.9580  -32.9050 C.3   188  PRO188      0.0268
     52  CG       -10.1520   28.0560  -32.2630 C.3   188  PRO188      0.0207
     53  CD        -9.8850   28.0280  -30.7920 C.3   188  PRO188      0.0892
     54  N        -20.0260   32.5070  -23.2000 N.3   207  TYR207     -0.1227
     55  CA       -21.0640   33.3250  -23.8250 C.3   207  TYR207      0.1736
     56  C        -20.6020   34.0990  -25.0550 C.2   207  TYR207      0.2595
     57  O        -21.3910   34.2450  -26.0030 O.2   207  TYR207     -0.2718
     58  CB       -21.6740   34.3030  -22.7940 C.3   207  TYR207      0.0548
     59  CG       -22.3440   33.5530  -21.6480 C.ar  207  TYR207     -0.0200
     60  CD1      -23.6040   32.9830  -21.8070 C.ar  207  TYR207     -0.0009
     61  CD2      -21.7010   33.3810  -20.4270 C.ar  207  TYR207     -0.0009
     62  CE1      -24.2080   32.2680  -20.7740 C.ar  207  TYR207      0.0417
     63  CE2      -22.2990   32.6710  -19.3860 C.ar  207  TYR207      0.0417
     64  CZ       -23.5510   32.1180  -19.5700 C.ar  207  TYR207      0.1957
     65  OH       -24.1530   31.4110  -18.5470 O.3   207  TYR207     -0.2866
     66  N        -19.3620   34.6120  -25.1220 N.am  208  TRP208     -0.1962
     67  CA       -18.9340   35.3570  -26.3100 C.3   208  TRP208      0.1771
     68  C        -17.6810   34.7950  -26.9940 C.2   208  TRP208      0.2620
     69  O        -17.1610   35.4290  -27.9260 O.2   208  TRP208     -0.2715
     70  CB       -18.7720   36.8580  -25.9850 C.3   208  TRP208      0.0590
     71  CG       -18.2080   37.2720  -24.6630 C.ar  208  TRP208      0.0006
     72  CD1      -18.8710   37.9070  -23.6490 C.ar  208  TRP208      0.0946
     73  CD2      -16.8430   37.1670  -24.2440 C.ar  208  TRP208      0.0152
     74  NE1      -18.0070   38.1610  -22.6090 N.ar  208  TRP208     -0.2442
     75  CE2      -16.7530   37.7200  -22.9520 C.ar  208  TRP208      0.0810
     76  CE3      -15.6860   36.6410  -24.8320 C.ar  208  TRP208      0.0012
     77  CZ2      -15.5540   37.7580  -22.2350 C.ar  208  TRP208      0.0191
     78  CZ3      -14.4990   36.6670  -24.1150 C.ar  208  TRP208      0.0001
     79  CH2      -14.4430   37.2170  -22.8290 C.ar  208  TRP208      0.0015
     80  N        -17.2360   33.5810  -26.6340 N.am  209  GLY209     -0.1940
     81  CA       -16.1600   32.8760  -27.3470 C.3   209  GLY209      0.2014
     82  C        -14.7210   33.2540  -26.9830 C.2   209  GLY209      0.2638
     83  O        -14.4520   34.0390  -26.0750 O.2   209  GLY209     -0.2714
     84  N        -13.7790   32.6620  -27.7450 N.am  210  PHE210     -0.1973
     85  CA       -12.3170   32.7930  -27.5840 C.3   210  PHE210      0.1639
     86  C        -11.8230   34.2430  -27.7610 C.2   210  PHE210      0.2290
     87  O        -12.4650   35.0910  -28.3880 O.2   210  PHE210     -0.2864
     88  CB       -11.5810   31.8840  -28.5860 C.3   210  PHE210      0.0560
     89  CG       -12.1330   30.4720  -28.6530 C.ar  210  PHE210     -0.0200
     90  CD1      -11.8960   29.5680  -27.6250 C.ar  210  PHE210     -0.0042
     91  CD2      -12.8670   30.0450  -29.7500 C.ar  210  PHE210     -0.0042
     92  CE1      -12.4050   28.2750  -27.6790 C.ar  210  PHE210     -0.0003
     93  CE2      -13.3740   28.7520  -29.8100 C.ar  210  PHE210     -0.0003
     94  CZ       -13.1420   27.8680  -28.7740 C.ar  210  PHE210     -0.0000
@<TRIPOS>BOND
     1    44    45    1
     2    44    41    1
     3    45    46    1
     4    41    42    1
     5    41    40    1
     6    42    43    2
     7    46    40    1
     8    40    33   am
     9    51    52    1
    10    51    48    1
    11    33    34    2
    12    33    32    1
    13    52    53    1
    14    39    37   am
    15    48    49    1
    16    48    47    1
    17    36    37    1
    18    36    35    1
    19    25    24    2
    20    49    50    2
    21    32    35    1
    22    32    31    1
    23    37    38    2
    24    21    20    1
    25    30    28   am
    26    53    47    1
    27    18    20   ar
    28    18    16   ar
    29    24    31   am
    30    24    23    1
    31    28    29    2
    32    28    27    1
    33    20    19   ar
    34    26    27    1
    35    26    23    1
    36     4     3    2
    37    16    15   ar
    38    93    91   ar
    39    93    94   ar
    40    91    89   ar
    41    23    22    1
    42     3     2    1
    43     2     1    1
    44     2     5    1
    45    22    12   am
    46     6     7    1
    47     6     5    1
    48    19    17   ar
    49     8     7   ar
    50    94    92   ar
    51    89    88    1
    52    89    90   ar
    53    88    85    1
    54    15    17   ar
    55    15    14    1
    56     7     9   ar
    57    87    86    2
    58    12    11    1
    59    12    13    2
    60    69    68    2
    61    86    85    1
    62    84    85    1
    63    84    82   am
    64    92    90   ar
    65    11    14    1
    66    11    10    1
    67    81    82    1
    68    81    80    1
    69    68    80   am
    70    68    67    1
    71    82    83    2
    72    67    70    1
    73    67    66    1
    74    57    56    2
    75    70    71    1
    76    66    56   am
    77    56    55    1
    78    76    73   ar
    79    76    78   ar
    80    71    73   ar
    81    71    72   ar
    82    73    75   ar
    83    78    79   ar
    84    55    54    1
    85    55    58    1
    86    72    74   ar
    87    75    74   ar
    88    75    77   ar
    89    79    77   ar
    90    58    59    1
    91    60    59   ar
    92    60    62   ar
    93    59    61   ar
    94    62    64   ar
    95    61    63   ar
    96    64    63   ar
    97    64    65    1
