@<TRIPOS>MOLECULE
tmp/6b88B01.pdb
 145 145 0 0 0
SMALL
GASTEIGER

@<TRIPOS>ATOM
      1  N          0.5760   48.7330  -15.7450 N.3     6  GLU6       -0.1231
      2  CA        -0.5710   49.6430  -15.8660 C.3     6  GLU6        0.1684
      3  C         -1.6210   49.3810  -14.7880 C.2     6  GLU6        0.2434
      4  O         -1.9430   48.2160  -14.5140 O.2     6  GLU6       -0.2733
      5  CB        -1.2300   49.4820  -17.2530 C.3     6  GLU6        0.0402
      6  CG        -1.9620   50.7310  -17.7470 C.3     6  GLU6        0.1161
      7  CD        -3.0440   50.4590  -18.7890 C.2     6  GLU6        0.3649
      8  OE1       -2.7880   49.7210  -19.7620 O.co2   6  GLU6       -0.2457
      9  OE2       -4.1530   51.0210  -18.6300 O.co2   6  GLU6       -0.2457
     10  N         -2.2180   50.4230  -14.1940 N.am    7  PRO7       -0.2718
     11  CA        -3.2540   50.1930  -13.1780 C.3     7  PRO7        0.1535
     12  C         -4.6620   50.0470  -13.7480 C.2     7  PRO7        0.2599
     13  O         -5.0710   50.7300  -14.6940 O.2     7  PRO7       -0.2715
     14  CB        -3.1540   51.4490  -12.2940 C.3     7  PRO7        0.0310
     15  CG        -2.6100   52.5240  -13.1860 C.3     7  PRO7        0.0237
     16  CD        -1.9510   51.8670  -14.3810 C.3     7  PRO7        0.0939
     17  N         -5.4140   49.1140  -13.1580 N.am    8  PHE8       -0.1960
     18  CA        -6.8040   48.8940  -13.5370 C.3     8  PHE8        0.1771
     19  C         -7.6870   48.9030  -12.2960 C.2     8  PHE8        0.2619
     20  O         -7.2510   48.5350  -11.1990 O.2     8  PHE8       -0.2715
     21  CB        -6.9520   47.5770  -14.3460 C.3     8  PHE8        0.0574
     22  CG        -6.4340   47.6830  -15.7710 C.ar    8  PHE8       -0.0200
     23  CD1       -5.1010   47.4340  -16.0680 C.ar    8  PHE8       -0.0042
     24  CD2       -7.2840   48.0430  -16.8130 C.ar    8  PHE8       -0.0042
     25  CE1       -4.6240   47.5430  -17.3710 C.ar    8  PHE8       -0.0003
     26  CE2       -6.8120   48.1520  -18.1180 C.ar    8  PHE8       -0.0003
     27  CZ        -5.4820   47.9010  -18.3950 C.ar    8  PHE8       -0.0000
     28  N         -8.8960   49.4210  -12.4800 N.am    9  GLN9       -0.1963
     29  CA        -9.9730   49.4660  -11.4950 C.3     9  GLN9        0.1733
     30  C        -10.8560   48.2550  -11.7390 C.2     9  GLN9        0.2616
     31  O        -11.0910   47.9040  -12.8920 O.2     9  GLN9       -0.2715
     32  CB       -10.7770   50.7680  -11.6610 C.3     9  GLN9        0.0408
     33  CG       -12.0100   50.8920  -10.7710 C.3     9  GLN9        0.0908
     34  CD       -12.8120   52.1750  -10.9950 C.2     9  GLN9        0.2608
     35  OE1      -12.3420   53.1180  -11.6230 O.2     9  GLN9       -0.2717
     36  NE2      -14.0260   52.1910  -10.4700 N.am    9  GLN9       -0.0878
     37  N        -11.3270   47.5990  -10.6770 N.am   10  ILE10      -0.1964
     38  CA       -12.2370   46.4550  -10.8680 C.3    10  ILE10       0.1712
     39  C        -13.6630   46.9010  -10.4930 C.2    10  ILE10       0.2458
     40  O        -14.0140   46.9220   -9.3010 O.2    10  ILE10      -0.2730
     41  CB       -11.7610   45.2100  -10.0690 C.3    10  ILE10       0.0289
     42  CG1      -10.3150   44.7650  -10.4670 C.3    10  ILE10       0.0022
     43  CG2      -12.7580   44.0400  -10.1930 C.3    10  ILE10       0.0023
     44  CD1      -10.0330   44.4270  -11.9850 C.3    10  ILE10       0.0001
     45  N        -14.5100   47.3050  -11.4540 N.am   11  PRO11      -0.2716
     46  CA       -15.8660   47.7600  -11.1030 C.3    11  PRO11       0.1536
     47  C        -16.9420   46.6780  -11.0960 C.2    11  PRO11       0.2599
     48  O        -18.0880   46.9750  -10.7060 O.2    11  PRO11      -0.2715
     49  CB       -16.1580   48.8130  -12.2030 C.3    11  PRO11       0.0310
     50  CG       -15.3260   48.3850  -13.3880 C.3    11  PRO11       0.0237
     51  CD       -14.2670   47.4070  -12.9040 C.3    11  PRO11       0.0939
     52  N        -16.6090   45.4430  -11.4720 N.am   12  SER12      -0.1950
     53  CA       -17.5450   44.3290  -11.5770 C.3    12  SER12       0.1924
     54  C        -17.1560   43.1830  -10.6380 C.2    12  SER12       0.2314
     55  O        -16.0450   43.1210  -10.1010 O.2    12  SER12      -0.2863
     56  CB       -17.6110   43.8010  -13.0160 C.3    12  SER12       0.2116
     57  OG       -18.0680   44.8110  -13.8960 O.3    12  SER12      -0.2180
     58  N        -17.2810   39.7980  -11.5010 N.3    14  SER14      -0.1217
     59  CA       -16.9940   38.5760  -12.2480 C.3    14  SER14       0.1889
     60  C        -15.7800   37.7930  -11.7420 C.2    14  SER14       0.2288
     61  O        -15.7110   36.5850  -11.9950 O.2    14  SER14      -0.2866
     62  CB       -16.8260   38.9240  -13.7400 C.3    14  SER14       0.2089
     63  OG       -15.5030   39.3000  -14.0700 O.3    14  SER14      -0.2183
     64  N         -7.9800   47.7030   -6.9400 N.3    24  PHE24      -0.1241
     65  CA        -7.1130   48.3830   -7.8890 C.3    24  PHE24       0.1605
     66  C         -5.8820   47.5040   -8.0590 C.2    24  PHE24       0.2264
     67  O         -5.1440   47.2430   -7.0910 O.2    24  PHE24      -0.2867
     68  CB        -6.8290   49.8090   -7.4320 C.3    24  PHE24       0.0534
     69  CG        -8.0290   50.7130   -7.5810 C.ar   24  PHE24      -0.0203
     70  CD1       -9.0470   50.6930   -6.6350 C.ar   24  PHE24      -0.0042
     71  CD2       -8.1770   51.5330   -8.6900 C.ar   24  PHE24      -0.0042
     72  CE1      -10.1790   51.4840   -6.7860 C.ar   24  PHE24      -0.0003
     73  CE2       -9.3020   52.3360   -8.8360 C.ar   24  PHE24      -0.0003
     74  CZ       -10.3020   52.3100   -7.8830 C.ar   24  PHE24      -0.0000
     75  N         -5.8300   40.5270  -18.5130 N.3    56  VAL56      -0.1245
     76  CA        -6.5790   41.6850  -19.0310 C.3    56  VAL56       0.1561
     77  C         -6.4290   41.6760  -20.5580 C.2    56  VAL56       0.2260
     78  O         -5.3420   41.3860  -21.0800 O.2    56  VAL56      -0.2867
     79  CB        -6.0750   43.0010  -18.3910 C.3    56  VAL56       0.0252
     80  CG1       -6.6500   44.2470  -19.0830 C.3    56  VAL56       0.0019
     81  CG2       -6.4560   43.0760  -16.8960 C.3    56  VAL56       0.0019
     82  N        -12.9970   48.3920  -25.1000 N.3    65  LEU65      -0.1231
     83  CA       -13.1520   48.0160  -23.6970 C.3    65  LEU65       0.1693
     84  C        -12.1440   46.9360  -23.2890 C.2    65  LEU65       0.2592
     85  O        -11.8800   46.0110  -24.0560 O.2    65  LEU65      -0.2718
     86  CB       -14.5710   47.4920  -23.4710 C.3    65  LEU65       0.0284
     87  CG       -15.7420   48.3860  -23.0530 C.3    65  LEU65       0.0019
     88  CD1      -15.6970   49.7660  -23.6870 C.3    65  LEU65       0.0001
     89  CD2      -17.0760   47.7140  -23.3750 C.3    65  LEU65       0.0001
     90  N        -11.6190   47.0320  -22.0550 N.am   66  ASP66      -0.1960
     91  CA       -10.7660   46.0080  -21.4490 C.3    66  ASP66       0.1840
     92  C        -11.5960   45.1440  -20.5030 C.2    66  ASP66       0.2622
     93  O        -12.4490   45.6550  -19.7780 O.2    66  ASP66      -0.2715
     94  CB        -9.5970   46.6220  -20.6490 C.3    66  ASP66       0.1450
     95  CG        -8.6170   47.4050  -21.5110 C.2    66  ASP66       0.3671
     96  OD1       -8.4780   48.6280  -21.2760 O.co2  66  ASP66      -0.2456
     97  OD2       -7.9670   46.7990  -22.3850 O.co2  66  ASP66      -0.2456
     98  N        -11.3370   43.8350  -20.5120 N.am   67  TYR67      -0.1960
     99  CA       -12.0210   42.8710  -19.6550 C.3    67  TYR67       0.1771
    100  C        -10.9720   42.0680  -18.9080 C.2    67  TYR67       0.2619
    101  O         -9.8410   41.9200  -19.3830 O.2    67  TYR67      -0.2715
    102  CB       -12.8980   41.9260  -20.4590 C.3    67  TYR67       0.0574
    103  CG       -14.3330   42.3470  -20.6900 C.ar   67  TYR67      -0.0198
    104  CD1      -14.6400   43.4980  -21.4030 C.ar   67  TYR67      -0.0009
    105  CD2      -15.3820   41.5450  -20.2590 C.ar   67  TYR67      -0.0009
    106  CE1      -15.9610   43.8650  -21.6470 C.ar   67  TYR67       0.0417
    107  CE2      -16.7040   41.8990  -20.5010 C.ar   67  TYR67       0.0417
    108  CZ       -16.9860   43.0570  -21.1970 C.ar   67  TYR67       0.1957
    109  OH       -18.2990   43.4130  -21.4360 O.3    67  TYR67      -0.2866
    110  N        -11.3370   41.5430  -17.7350 N.am   68  ILE68      -0.1963
    111  CA       -10.4150   40.7260  -16.9470 C.3    68  ILE68       0.1727
    112  C        -11.0840   39.3960  -16.5900 C.2    68  ILE68       0.2616
    113  O        -12.2220   39.3750  -16.0700 O.2    68  ILE68      -0.2715
    114  CB        -9.8980   41.4720  -15.6910 C.3    68  ILE68       0.0290
    115  CG1       -8.8750   40.6190  -14.9340 C.3    68  ILE68       0.0022
    116  CG2      -11.0290   42.0160  -14.7890 C.3    68  ILE68       0.0023
    117  CD1       -7.9620   41.3790  -14.0300 C.3    68  ILE68       0.0001
    118  N        -10.3910   38.2860  -16.8900 N.am   69  LYS69      -0.1977
    119  CA       -10.8730   36.9250  -16.6300 C.3    69  LYS69       0.1596
    120  C         -9.6450   36.0530  -16.3310 C.2    69  LYS69       0.2287
    121  O         -8.4980   36.5400  -16.2960 O.2    69  LYS69      -0.2864
    122  CB       -11.6570   36.3420  -17.8050 C.3    69  LYS69       0.0298
    123  CG       -12.9870   37.0100  -18.2100 C.3    69  LYS69       0.0038
    124  CD       -13.9250   37.2840  -17.0340 C.3    69  LYS69       0.0206
    125  CE       -15.2600   37.8560  -17.5050 C.3    69  LYS69       0.1093
    126  NZ       -15.5780   39.3030  -17.1960 N.3    69  LYS69      -0.1314
    127  N        -19.8030   37.2340  -17.5310 N.3   203  ALA203     -0.1245
    128  CA       -20.0040   37.2320  -18.9810 C.3   203  ALA203      0.1562
    129  C        -18.6580   36.9120  -19.6160 C.2   203  ALA203      0.2260
    130  O        -17.8510   37.8070  -19.8500 O.2   203  ALA203     -0.2867
    131  CB       -20.5380   38.5850  -19.4530 C.3   203  ALA203      0.0290
    132  N         -2.7390   46.9550   -5.5000 N.3   224  TRP224     -0.1241
    133  CA        -1.9510   48.0200   -4.8750 C.3   224  TRP224      0.1605
    134  C         -2.7910   48.9480   -3.9960 C.2   224  TRP224      0.2264
    135  O         -2.2160   49.7390   -3.2360 O.2   224  TRP224     -0.2867
    136  CB        -1.1930   48.8190   -5.9660 C.3   224  TRP224      0.0550
    137  CG        -2.0550   49.5420   -6.9560 C.ar  224  TRP224      0.0003
    138  CD1       -2.5430   49.0540   -8.1370 C.ar  224  TRP224      0.0946
    139  CD2       -2.5100   50.8970   -6.8610 C.ar  224  TRP224      0.0152
    140  NE1       -3.2980   50.0170   -8.7680 N.ar  224  TRP224     -0.2442
    141  CE2       -3.2890   51.1580   -8.0060 C.ar  224  TRP224      0.0810
    142  CE3       -2.3420   51.9100   -5.9120 C.ar  224  TRP224      0.0012
    143  CZ2       -3.8970   52.3980   -8.2260 C.ar  224  TRP224      0.0191
    144  CZ3       -2.9540   53.1340   -6.1240 C.ar  224  TRP224      0.0001
    145  CH2       -3.7170   53.3690   -7.2780 C.ar  224  TRP224      0.0015
@<TRIPOS>BOND
     1    82    83    1
     2    85    84    2
     3    83    86    1
     4    83    84    1
     5    88    87    1
     6    86    87    1
     7    89    87    1
     8    84    90   am
     9    97    95   ar
    10    90    91    1
    11   106   104   ar
    12   106   108   ar
    13    95    96   ar
    14    95    94    1
    15    91    94    1
    16    91    92    1
    17   109   108    1
    18   104   103   ar
    19   108   107   ar
    20    78    77    2
    21   103   102    1
    22   103   105   ar
    23    77    76    1
    24    98    92   am
    25    98    99    1
    26    92    93    2
    27   107   105   ar
    28   102    99    1
    29   130   129    2
    30     8     7   ar
    31    99   100    1
    32   129   128    1
    33   131   128    1
    34   101   100    2
    35    80    79    1
    36    76    75    1
    37    76    79    1
    38   128   127    1
    39   100   110   am
    40     7     9   ar
    41     7     6    1
    42    27    26   ar
    43    27    25   ar
    44    79    81    1
    45   123   122    1
    46   123   124    1
    47    26    24   ar
    48   122   119    1
    49     6     5    1
    50   110   111    1
    51   125   126    1
    52   125   124    1
    53    25    23   ar
    54     5     2    1
    55   111   112    1
    56   111   114    1
    57   118   119    1
    58   118   112   am
    59    24    22   ar
    60   119   120    1
    61   112   113    2
    62   120   121    2
    63    23    22   ar
    64     2     1    1
    65     2     3    1
    66    22    21    1
    67   114   115    1
    68   114   116    1
    69   115   117    1
    70     3     4    2
    71     3    10   am
    72    13    12    2
    73    16    10    1
    74    16    15    1
    75    21    18    1
    76    10    11    1
    77    63    62    1
    78    57    56    1
    79    12    11    1
    80    12    17   am
    81    62    59    1
    82    18    17    1
    83    18    19    1
    84    50    51    1
    85    50    49    1
    86    15    14    1
    87    11    14    1
    88    56    53    1
    89    51    45    1
    90    31    30    2
    91    28    19   am
    92    28    29    1
    93    19    20    2
    94    59    60    1
    95    59    58    1
    96    49    46    1
    97    61    60    2
    98    44    42    1
    99    30    29    1
   100    30    37   am
   101    32    29    1
   102    32    33    1
   103    35    34    2
   104    53    52    1
   105    53    54    1
   106    52    47   am
   107    45    46    1
   108    45    39   am
   109    46    47    1
   110    47    48    2
   111    34    33    1
   112    34    36   am
   113    38    37    1
   114    38    39    1
   115    38    41    1
   116    54    55    2
   117    39    40    2
   118    42    41    1
   119    43    41    1
   120    73    71   ar
   121    73    74   ar
   122   140   138   ar
   123   140   141   ar
   124    71    69   ar
   125   143   141   ar
   126   143   145   ar
   127   138   137   ar
   128    66    65    1
   129    66    67    2
   130   141   139   ar
   131    65    68    1
   132    65    64    1
   133    74    72   ar
   134    69    68    1
   135    69    70   ar
   136   145   144   ar
   137   137   139   ar
   138   137   136    1
   139   139   142   ar
   140    72    70   ar
   141   144   142   ar
   142   136   133    1
   143   132   133    1
   144   133   134    1
   145   134   135    2
