@<TRIPOS>MOLECULE
tmp/6b89B02.pdb
 165 159 0 0 0
SMALL
GASTEIGER

@<TRIPOS>ATOM
      1  N        -11.4060    0.9940   40.6420 N.3    46  TYR46      -0.1241
      2  CA       -11.1580    0.6430   39.2470 C.3    46  TYR46       0.1605
      3  C        -10.1390   -0.4870   39.1480 C.2    46  TYR46       0.2264
      4  O        -10.2970   -1.4140   38.3420 O.2    46  TYR46      -0.2867
      5  CB       -10.6650    1.8680   38.4710 C.3    46  TYR46       0.0534
      6  CG       -11.7390    2.8280   37.9960 C.ar   46  TYR46      -0.0201
      7  CD1      -13.0750    2.4580   37.9550 C.ar   46  TYR46      -0.0009
      8  CD2      -11.4030    4.1100   37.5750 C.ar   46  TYR46      -0.0009
      9  CE1      -14.0540    3.3440   37.5040 C.ar   46  TYR46       0.0417
     10  CE2      -12.3700    4.9960   37.1250 C.ar   46  TYR46       0.0417
     11  CZ       -13.6910    4.6070   37.0960 C.ar   46  TYR46       0.1957
     12  OH       -14.6450    5.4860   36.6460 O.3    46  TYR46      -0.2866
     13  N        -11.0880   -2.2890   35.7780 N.3    51  ILE51      -0.1245
     14  CA       -11.4490   -1.3120   34.7590 C.3    51  ILE51       0.1561
     15  C        -10.2320   -0.5300   34.2700 C.2    51  ILE51       0.2260
     16  O        -10.2180   -0.0700   33.1240 O.2    51  ILE51      -0.2867
     17  CB       -12.5440   -0.3750   35.2950 C.3    51  ILE51       0.0252
     18  CG1      -13.8860   -1.1080   35.2870 C.3    51  ILE51       0.0019
     19  CG2      -12.6020    0.9180   34.4710 C.3    51  ILE51       0.0019
     20  CD1      -14.9610   -0.4480   36.1220 C.3    51  ILE51       0.0001
     21  N        -12.0560   -7.5960   33.5470 N.3    71  LEU71      -0.1231
     22  CA       -13.2520   -7.2220   34.2990 C.3    71  LEU71       0.1693
     23  C        -14.2860   -8.3470   34.3940 C.2    71  LEU71       0.2592
     24  O        -14.6890   -8.7430   35.4900 O.2    71  LEU71      -0.2718
     25  CB       -13.8700   -5.9750   33.6640 C.3    71  LEU71       0.0284
     26  CG       -15.2650   -5.5040   34.0780 C.3    71  LEU71       0.0019
     27  CD1      -15.4240   -5.4630   35.5790 C.3    71  LEU71       0.0001
     28  CD2      -15.5220   -4.1200   33.4960 C.3    71  LEU71       0.0001
     29  N        -14.7350   -8.8790   33.2560 N.am   72  HIS72      -0.1976
     30  CA       -15.8710   -9.7950   33.3080 C.3    72  HIS72       0.1656
     31  C        -15.4870  -11.1640   33.8660 C.2    72  HIS72       0.2291
     32  O        -16.3270  -11.8340   34.4740 O.2    72  HIS72      -0.2864
     33  CB       -16.5220   -9.9000   31.9260 C.3    72  HIS72       0.0771
     34  CG       -17.2530   -8.6490   31.5310 C.ar   72  HIS72       0.0820
     35  ND1      -16.7130   -7.7060   30.6800 N.ar   72  HIS72      -0.2267
     36  CD2      -18.4510   -8.1530   31.9310 C.ar   72  HIS72       0.1154
     37  CE1      -17.5590   -6.7000   30.5470 C.ar   72  HIS72       0.1986
     38  NE2      -18.6200   -6.9430   31.2990 N.ar   72  HIS72      -0.2212
     39  N        -15.5750  -10.5870   37.6190 N.3    75  ALA75      -0.1245
     40  CA       -16.9500  -10.5690   38.0940 C.3    75  ALA75       0.1562
     41  C        -17.4580  -11.9790   38.3450 C.2    75  ALA75       0.2260
     42  O        -18.1260  -12.2280   39.3530 O.2    75  ALA75      -0.2867
     43  CB       -17.8510   -9.8430   37.0980 C.3    75  ALA75       0.0290
     44  N        -16.9110  -10.6080   42.1920 N.3    79  ILE79      -0.1231
     45  CA       -16.8430   -9.1700   42.4400 C.3    79  ILE79       0.1692
     46  C        -17.9900   -8.4780   41.7180 C.2    79  ILE79       0.2593
     47  O        -18.1490   -8.6320   40.4980 O.2    79  ILE79      -0.2718
     48  CB       -15.4930   -8.5950   41.9860 C.3    79  ILE79       0.0266
     49  CG1      -14.3430   -9.2490   42.7500 C.3    79  ILE79       0.0019
     50  CG2      -15.4820   -7.0770   42.1250 C.3    79  ILE79       0.0020
     51  CD1      -12.9830   -8.7100   42.3530 C.3    79  ILE79       0.0001
     52  N        -18.7850   -7.7160   42.4730 N.am   80  GLY80      -0.1942
     53  CA       -19.7930   -6.8220   41.9220 C.3    80  GLY80       0.2014
     54  C        -19.4200   -5.3670   42.1600 C.2    80  GLY80       0.2638
     55  O        -18.6840   -5.0650   43.1080 O.2    80  GLY80      -0.2714
     56  N        -19.9260   -4.4520   41.3350 N.am   81  TYR81      -0.1973
     57  CA       -19.4340   -3.0770   41.3290 C.3    81  TYR81       0.1639
     58  C        -20.5790   -2.0990   41.0760 C.2    81  TYR81       0.2290
     59  O        -21.3750   -2.2960   40.1520 O.2    81  TYR81      -0.2864
     60  CB       -18.3360   -2.9350   40.2570 C.3    81  TYR81       0.0560
     61  CG       -17.9520   -1.5260   39.8690 C.ar   81  TYR81      -0.0198
     62  CD1      -17.5130   -0.6190   40.8200 C.ar   81  TYR81      -0.0009
     63  CD2      -17.9940   -1.1170   38.5370 C.ar   81  TYR81      -0.0009
     64  CE1      -17.1510    0.6640   40.4720 C.ar   81  TYR81       0.0417
     65  CE2      -17.6370    0.1720   38.1740 C.ar   81  TYR81       0.0417
     66  CZ       -17.2160    1.0600   39.1520 C.ar   81  TYR81       0.1957
     67  OH       -16.8620    2.3470   38.8200 O.3    81  TYR81      -0.2866
     68  N        -20.9490    1.8360   40.1700 N.3    83  PRO83      -0.2116
     69  CA       -20.2120    3.0600   39.8300 C.3    83  PRO83       0.1372
     70  C        -20.6560    4.2640   40.6520 C.2    83  PRO83       0.2244
     71  O        -21.7720    4.3240   41.1770 O.2    83  PRO83      -0.2868
     72  CB       -20.5310    3.2690   38.3440 C.3    83  PRO83       0.0268
     73  CG       -20.8990    1.9040   37.8380 C.3    83  PRO83       0.0207
     74  CD       -21.5790    1.2140   38.9920 C.3    83  PRO83       0.0892
     75  N        -20.9170    7.4570   39.3430 N.3    85  GLU85      -0.1231
     76  CA       -21.8700    8.1960   38.5370 C.3    85  GLU85       0.1699
     77  C        -23.0130    7.2820   38.0930 C.2    85  GLU85       0.2592
     78  O        -22.9590    6.0570   38.2150 O.2    85  GLU85      -0.2718
     79  CB       -21.1770    8.8220   37.3230 C.3    85  GLU85       0.0402
     80  CG       -20.1650    9.9040   37.6680 C.3    85  GLU85       0.1161
     81  CD       -18.8920    9.3320   38.2460 C.2    85  GLU85       0.3649
     82  OE1      -18.6560    8.1130   38.0780 O.co2  85  GLU85      -0.2457
     83  OE2      -18.1240   10.0930   38.8730 O.co2  85  GLU85      -0.2457
     84  N        -24.0670    7.8990   37.5740 N.am   86  ALA86      -0.1966
     85  CA       -25.1910    7.1310   37.0600 C.3    86  ALA86       0.1728
     86  C        -24.7090    6.1380   36.0070 C.2    86  ALA86       0.2617
     87  O        -23.9500    6.4880   35.0980 O.2    86  ALA86      -0.2715
     88  CB       -26.2460    8.0730   36.4740 C.3    86  ALA86       0.0334
     89  N        -25.1360    4.8860   36.1430 N.am   87  SER87      -0.1936
     90  CA       -24.8030    3.8540   35.1720 C.3    87  SER87       0.2055
     91  C        -26.0250    3.0830   34.6890 C.2    87  SER87       0.2643
     92  O        -25.8680    2.1430   33.9030 O.2    87  SER87      -0.2714
     93  CB       -23.7720    2.8670   35.7520 C.3    87  SER87       0.2130
     94  OG       -24.3200    2.0950   36.8150 O.3    87  SER87      -0.2179
     95  N        -27.2300    3.4480   35.1350 N.am   88  ILE88      -0.1963
     96  CA       -28.4340    2.7810   34.6540 C.3    88  ILE88       0.1727
     97  C        -28.5240    2.9050   33.1420 C.2    88  ILE88       0.2616
     98  O        -28.2130    3.9550   32.5610 O.2    88  ILE88      -0.2715
     99  CB       -29.6800    3.3890   35.3170 C.3    88  ILE88       0.0290
    100  CG1      -30.8590    2.4210   35.2270 C.3    88  ILE88       0.0022
    101  CG2      -30.0250    4.7170   34.6450 C.3    88  ILE88       0.0023
    102  CD1      -32.0220    2.7920   36.1440 C.3    88  ILE88       0.0001
    103  N        -28.9640    1.8330   32.4920 N.am   89  PHE89      -0.1960
    104  CA       -29.2500    1.8850   31.0580 C.3    89  PHE89       0.1771
    105  C        -30.4450    2.8000   30.8330 C.2    89  PHE89       0.2619
    106  O        -31.5710    2.4680   31.2140 O.2    89  PHE89      -0.2715
    107  CB       -29.5100    0.4850   30.5200 C.3    89  PHE89       0.0574
    108  CG       -28.3070   -0.4060   30.5770 C.ar   89  PHE89      -0.0200
    109  CD1      -27.0350    0.1360   30.5140 C.ar   89  PHE89      -0.0042
    110  CD2      -28.4440   -1.7750   30.7000 C.ar   89  PHE89      -0.0042
    111  CE1      -25.9230   -0.6740   30.5620 C.ar   89  PHE89      -0.0003
    112  CE2      -27.3300   -2.5880   30.7510 C.ar   89  PHE89      -0.0003
    113  CZ       -26.0710   -2.0350   30.6850 C.ar   89  PHE89      -0.0000
    114  N        -30.1950    3.9540   30.2100 N.am   90  ARG90      -0.1977
    115  CA       -31.1320    5.0710   30.2900 C.3    90  ARG90       0.1597
    116  C        -32.4280    4.7960   29.5300 C.2    90  ARG90       0.2287
    117  O        -33.5140    5.1050   30.0300 O.2    90  ARG90      -0.2864
    118  CB       -30.4530    6.3460   29.7900 C.3    90  ARG90       0.0334
    119  CG       -29.4090    6.8650   30.7820 C.3    90  ARG90       0.0492
    120  CD       -28.4630    7.8580   30.1480 C.3    90  ARG90       0.2205
    121  NE       -27.4920    7.1880   29.2870 N.pl3  90  ARG90      -0.0865
    122  CZ       -26.5690    7.8180   28.5620 C.cat  90  ARG90       0.5346
    123  NH1      -26.4880    9.1440   28.5900 N.pl3  90  ARG90       0.1354
    124  NH2      -25.7290    7.1170   27.8070 N.pl3  90  ARG90       0.1354
    125  N        -30.7400   -7.6600   32.0550 N.3   100  ALA100     -0.1231
    126  CA       -29.4610   -7.6000   31.3460 C.3   100  ALA100      0.1694
    127  C        -28.3840   -8.3800   32.0960 C.2   100  ALA100      0.2591
    128  O        -27.5320   -9.0370   31.4780 O.2   100  ALA100     -0.2718
    129  CB       -29.0310   -6.1460   31.1320 C.3   100  ALA100      0.0304
    130  N        -28.4120   -8.3290   33.4280 N.am  101  VAL101     -0.1980
    131  CA       -27.4410   -9.0670   34.2290 C.3   101  VAL101      0.1595
    132  C        -27.9450  -10.4650   34.5740 C.2   101  VAL101      0.2287
    133  O        -27.1670  -11.4200   34.5770 O.2   101  VAL101     -0.2864
    134  CB       -27.0820   -8.2630   35.4950 C.3   101  VAL101      0.0276
    135  CG1      -26.1690   -7.1060   35.1390 C.3   101  VAL101      0.0022
    136  CG2      -28.3360   -7.7480   36.1680 C.3   101  VAL101      0.0022
    137  N        -26.8740  -13.5190   32.6670 N.3   104  ILE104     -0.1245
    138  CA       -25.6310  -14.2420   32.9240 C.3   104  ILE104      0.1561
    139  C        -25.7940  -15.4210   33.8670 C.2   104  ILE104      0.2260
    140  O        -24.8750  -16.2380   33.9760 O.2   104  ILE104     -0.2867
    141  CB       -24.5540  -13.3330   33.5400 C.3   104  ILE104      0.0252
    142  CG1      -24.4640  -12.0150   32.7890 C.3   104  ILE104      0.0019
    143  CG2      -23.2020  -14.0180   33.5110 C.3   104  ILE104      0.0019
    144  CD1      -23.3480  -11.1400   33.3020 C.3   104  ILE104      0.0001
    145  N        -29.2900   -4.1530   40.1890 N.3   149  ARG149     -0.1231
    146  CA       -28.7460   -4.7310   38.9650 C.3   149  ARG149      0.1694
    147  C        -27.3810   -5.3640   39.2140 C.2   149  ARG149      0.2591
    148  O        -27.0510   -6.3960   38.6210 O.2   149  ARG149     -0.2718
    149  CB       -28.6660   -3.6570   37.8780 C.3   149  ARG149      0.0321
    150  CG       -28.0880   -4.1330   36.5530 C.3   149  ARG149      0.0489
    151  CD       -28.0230   -3.0010   35.5310 C.3   149  ARG149      0.2205
    152  NE       -27.0630   -1.9710   35.9110 N.pl3 149  ARG149     -0.0865
    153  CZ       -26.7580   -0.9180   35.1570 C.cat 149  ARG149      0.5346
    154  NH1      -27.3420   -0.7470   33.9710 N.pl3 149  ARG149      0.1354
    155  NH2      -25.8680   -0.0340   35.5840 N.pl3 149  ARG149      0.1354
    156  N        -26.5790   -4.7630   40.0940 N.am  150  ALA150     -0.1980
    157  CA       -25.2970   -5.3560   40.4510 C.3   150  ALA150      0.1597
    158  C        -25.4960   -6.6690   41.1870 C.2   150  ALA150      0.2287
    159  O        -24.8220   -7.6660   40.8940 O.2   150  ALA150     -0.2864
    160  CB       -24.4850   -4.3770   41.3030 C.3   150  ALA150      0.0319
    161  N        -26.2210  -10.4610   39.5910 N.3   153  ALA153     -0.1245
    162  CA       -25.1990  -11.4320   39.2070 C.3   153  ALA153      0.1562
    163  C        -24.7750  -12.3360   40.3620 C.2   153  ALA153      0.2260
    164  O        -23.9380  -13.2270   40.1520 O.2   153  ALA153     -0.2867
    165  CB       -23.9710  -10.7140   38.6310 C.3   153  ALA153      0.0290
@<TRIPOS>BOND
     1   124   122    1
     2   122   123    1
     3   122   121    2
     4   121   120    1
     5   116   117    2
     6   116   115    1
     7   118   115    1
     8   118   119    1
     9   120   119    1
    10   114   115    1
    11   114   105   am
    12   109   111   ar
    13   109   108   ar
    14   107   108    1
    15   107   104    1
    16    37    35   ar
    17    37    38   ar
    18   111   113   ar
    19   108   110   ar
    20    35    34   ar
    21   113   112   ar
    22   110   112   ar
    23   105   104    1
    24   105   106    2
    25   104   103    1
    26   129   126    1
    27    38    36   ar
    28   126   125    1
    29   126   127    1
    30   128   127    2
    31    34    33    1
    32    34    36   ar
    33    33    30    1
    34   127   130   am
    35   103    97   am
    36    98    97    2
    37   137   138    1
    38   142   144    1
    39   142   141    1
    40   138   141    1
    41   138   139    1
    42    16    15    2
    43    97    96    1
    44    29    30    1
    45    29    23   am
    46    30    31    1
    47   130   131    1
    48    28    26    1
    49   143   141    1
    50    21    22    1
    51    25    26    1
    52    25    22    1
    53    31    32    2
    54   139   140    2
    55    92    91    2
    56   154   153    1
    57    26    27    1
    58   131   132    1
    59   131   134    1
    60    15    14    1
    61    22    23    1
    62    23    24    2
    63    19    17    1
    64   132   133    2
    65   101    99    1
    66    96    95    1
    67    96    99    1
    68    91    95   am
    69    91    90    1
    70    14    17    1
    71    14    13    1
    72    87    86    2
    73   135   134    1
    74   153   155    1
    75   153   152    2
    76    90    93    1
    77    90    89    1
    78   100    99    1
    79   100   102    1
    80    18    17    1
    81    18    20    1
    82   134   136    1
    83   151   152    1
    84   151   150    1
    85    93    94    1
    86    86    89   am
    87    86    85    1
    88    88    85    1
    89   150   149    1
    90    12    11    1
    91    85    84    1
    92    11    10   ar
    93    11     9   ar
    94    43    40    1
    95    10     8   ar
    96    79    80    1
    97    79    76    1
    98     9     7   ar
    99    84    77   am
   100     8     6   ar
   101    39    40    1
   102    80    81    1
   103    73    72    1
   104    73    74    1
   105   149   146    1
   106     7     6   ar
   107     6     5    1
   108    82    81   ar
   109    77    78    2
   110    77    76    1
   111    40    41    1
   112    65    63   ar
   113    65    66   ar
   114    81    83   ar
   115     4     3    2
   116    72    69    1
   117    41    42    2
   118     5     2    1
   119    76    75    1
   120    63    61   ar
   121   148   147    2
   122   165   162    1
   123    67    66    1
   124   146   147    1
   125   146   145    1
   126    74    68    1
   127     3     2    1
   128    66    64   ar
   129   162   161    1
   130   162   163    1
   131   147   156   am
   132     2     1    1
   133    69    68    1
   134    69    70    1
   135    61    60    1
   136    61    62   ar
   137   156   157    1
   138    59    58    2
   139   164   163    2
   140    60    57    1
   141   157   158    1
   142   157   160    1
   143    64    62   ar
   144    47    46    2
   145    70    71    2
   146   159   158    2
   147    58    57    1
   148    57    56    1
   149    56    54   am
   150    46    45    1
   151    46    52   am
   152    53    54    1
   153    53    52    1
   154    48    50    1
   155    48    45    1
   156    48    49    1
   157    54    55    2
   158    44    45    1
   159    51    49    1
