@<TRIPOS>MOLECULE
tmp/6b89B01.pdb
 102 98 0 0 0
SMALL
GASTEIGER

@<TRIPOS>ATOM
      1  N         -0.9450    8.9680   37.2320 N.3    12  TYR12      -0.1227
      2  CA        -1.4460    9.6630   36.0540 C.3    12  TYR12       0.1736
      3  C         -0.5520   10.8600   35.7890 C.2    12  TYR12       0.2595
      4  O         -0.1550   11.5640   36.7230 O.2    12  TYR12      -0.2718
      5  CB        -2.8840   10.1490   36.2250 C.3    12  TYR12       0.0548
      6  CG        -3.9560    9.0870   36.1980 C.ar   12  TYR12      -0.0200
      7  CD1       -4.2440    8.3880   35.0300 C.ar   12  TYR12      -0.0009
      8  CD2       -4.7110    8.8120   37.3340 C.ar   12  TYR12      -0.0009
      9  CE1       -5.2460    7.4280   34.9940 C.ar   12  TYR12       0.0417
     10  CE2       -5.7200    7.8450   37.3160 C.ar   12  TYR12       0.0417
     11  CZ        -5.9820    7.1600   36.1390 C.ar   12  TYR12       0.1957
     12  OH        -6.9830    6.2110   36.1100 O.3    12  TYR12      -0.2866
     13  N         -0.2320   11.0860   34.5190 N.am   13  LYS13      -0.1980
     14  CA         0.5780   12.2370   34.1160 C.3    13  LYS13       0.1596
     15  C          1.8210   12.3880   34.9990 C.2    13  LYS13       0.2287
     16  O          2.2470   13.4960   35.3320 O.2    13  LYS13      -0.2864
     17  CB        -0.2710   13.5140   34.1120 C.3    13  LYS13       0.0298
     18  CG        -1.5480   13.3560   33.2840 C.3    13  LYS13       0.0038
     19  CD        -2.2330   14.6620   32.9340 C.3    13  LYS13       0.0206
     20  CE        -3.5640   14.3790   32.2060 C.3    13  LYS13       0.1093
     21  NZ        -4.0420   15.4900   31.3160 N.3    13  LYS13      -0.1314
     22  N         -1.4160    8.7450   42.1140 N.3    17  VAL17      -0.1245
     23  CA        -2.7200    9.0720   42.6790 C.3    17  VAL17       0.1561
     24  C         -3.1930    7.9840   43.6320 C.2    17  VAL17       0.2260
     25  O         -4.0650    8.2480   44.4760 O.2    17  VAL17      -0.2867
     26  CB        -3.7730    9.3220   41.5760 C.3    17  VAL17       0.0252
     27  CG1       -3.2820   10.3880   40.5940 C.3    17  VAL17       0.0019
     28  CG2       -4.1350    8.0290   40.8630 C.3    17  VAL17       0.0019
     29  N        -12.3420   13.9710   48.4100 N.3    37  ASN37      -0.1225
     30  CA       -12.3520   13.9410   46.9540 C.3    37  ASN37       0.1785
     31  C        -10.9270   14.0520   46.4150 C.2    37  ASN37       0.2598
     32  O        -10.1250   14.8650   46.8850 O.2    37  ASN37      -0.2718
     33  CB       -13.2160   15.0840   46.4090 C.3    37  ASN37       0.1169
     34  CG       -14.6830   14.9480   46.7920 C.2    37  ASN37       0.2627
     35  OD1      -15.2910   13.8930   46.6050 O.2    37  ASN37      -0.2716
     36  ND2      -15.2540   16.0160   47.3440 N.am   37  ASN37      -0.0877
     37  N        -10.6090   13.2300   45.4150 N.am   38  GLY38      -0.1942
     38  CA        -9.2680   13.2080   44.8620 C.3    38  GLY38       0.2014
     39  C         -8.2910   12.3140   45.5920 C.2    38  GLY38       0.2639
     40  O         -7.1480   12.1800   45.1470 O.2    38  GLY38      -0.2714
     41  N         -8.7120   11.6730   46.6830 N.am   39  ALA39      -0.1963
     42  CA        -7.8080   10.8530   47.4840 C.3    39  ALA39       0.1728
     43  C         -7.4140    9.5510   46.7950 C.2    39  ALA39       0.2617
     44  O         -6.4460    8.9140   47.2220 O.2    39  ALA39      -0.2715
     45  CB        -8.4460   10.5510   48.8430 C.3    39  ALA39       0.0334
     46  N         -8.1220    9.1400   45.7530 N.am   40  GLY40      -0.1940
     47  CA        -7.8200    7.9140   45.0470 C.3    40  GLY40       0.2014
     48  C         -8.7720    6.7530   45.3020 C.2    40  GLY40       0.2639
     49  O         -8.4010    5.6010   45.0210 O.2    40  GLY40      -0.2714
     50  N         -9.9860    7.0190   45.7910 N.am   41  LYS41      -0.1963
     51  CA       -10.9120    5.9390   46.1320 C.3    41  LYS41       0.1728
     52  C        -11.4280    5.2310   44.8860 C.2    41  LYS41       0.2617
     53  O        -11.3700    4.0010   44.7880 O.2    41  LYS41      -0.2715
     54  CB       -12.0830    6.4940   46.9490 C.3    41  LYS41       0.0311
     55  CG       -11.6700    7.1180   48.2690 C.3    41  LYS41       0.0038
     56  CD       -12.8670    7.6040   49.0850 C.3    41  LYS41       0.0206
     57  CE       -13.6500    8.7150   48.3910 C.3    41  LYS41       0.1093
     58  NZ       -12.8370    9.9180   48.0070 N.3    41  LYS41      -0.1314
     59  N        -11.9680    5.9940   43.9340 N.am   42  THR42      -0.1937
     60  CA       -12.4870    5.4040   42.7040 C.3    42  THR42       0.2028
     61  C        -11.3850    4.6790   41.9390 C.2    42  THR42       0.2642
     62  O        -11.5950    3.5750   41.4210 O.2    42  THR42      -0.2714
     63  CB       -13.1280    6.5010   41.8440 C.3    42  THR42       0.1808
     64  OG1      -14.3160    6.9790   42.4920 O.3    42  THR42      -0.2208
     65  CG2      -13.4730    5.9820   40.4430 C.3    42  THR42       0.0379
     66  N        -10.1970    5.2880   41.8590 N.am   43  THR43      -0.1950
     67  CA        -9.0850    4.6480   41.1700 C.3    43  THR43       0.1897
     68  C         -8.7220    3.3290   41.8290 C.2    43  THR43       0.2313
     69  O         -8.4160    2.3480   41.1410 O.2    43  THR43      -0.2863
     70  CB        -7.8760    5.5780   41.1400 C.3    43  THR43       0.1794
     71  OG1       -8.2390    6.8020   40.4820 O.3    43  THR43      -0.2208
     72  CG2       -6.7100    4.9130   40.3850 C.3    43  THR43       0.0378
     73  N        -11.4060    0.9940   40.6420 N.3    46  TYR46      -0.1241
     74  CA       -11.1580    0.6430   39.2470 C.3    46  TYR46       0.1605
     75  C        -10.1390   -0.4870   39.1480 C.2    46  TYR46       0.2264
     76  O        -10.2970   -1.4140   38.3420 O.2    46  TYR46      -0.2867
     77  CB       -10.6650    1.8680   38.4710 C.3    46  TYR46       0.0534
     78  CG       -11.7390    2.8280   37.9960 C.ar   46  TYR46      -0.0201
     79  CD1      -13.0750    2.4580   37.9550 C.ar   46  TYR46      -0.0009
     80  CD2      -11.4030    4.1100   37.5750 C.ar   46  TYR46      -0.0009
     81  CE1      -14.0540    3.3440   37.5040 C.ar   46  TYR46       0.0417
     82  CE2      -12.3700    4.9960   37.1250 C.ar   46  TYR46       0.0417
     83  CZ       -13.6910    4.6070   37.0960 C.ar   46  TYR46       0.1957
     84  OH       -14.6450    5.4860   36.6460 O.3    46  TYR46      -0.2866
     85  N        -19.7520    5.2470   40.7340 N.3    84  GLN84      -0.1245
     86  CA       -20.0510    6.5030   41.4050 C.3    84  GLN84       0.1566
     87  C        -21.1100    7.2870   40.6450 C.2    84  GLN84       0.2260
     88  O        -22.0930    7.7510   41.2310 O.2    84  GLN84      -0.2867
     89  CB       -18.7690    7.3320   41.5520 C.3    84  GLN84       0.0367
     90  CG       -18.9250    8.6840   42.2400 C.3    84  GLN84       0.0905
     91  CD       -17.5690    9.3350   42.5050 C.2    84  GLN84       0.2608
     92  OE1      -16.5520    8.6500   42.6250 O.2    84  GLN84      -0.2717
     93  NE2      -17.5520   10.6540   42.5940 N.am   84  GLN84      -0.0878
     94  N        -19.4910    5.3800   46.5810 N.3   162  GLU162     -0.1245
     95  CA       -20.3370    6.4820   47.0280 C.3   162  GLU162      0.1567
     96  C        -21.8150    6.1840   46.7590 C.2   162  GLU162      0.2260
     97  O        -22.4630    6.8740   45.9670 O.2   162  GLU162     -0.2867
     98  CB       -19.9180    7.7980   46.3850 C.3   162  GLU162      0.0388
     99  CG       -18.4040    7.9440   46.3150 C.3   162  GLU162      0.1160
    100  CD       -17.8950    9.3350   46.6270 C.2   162  GLU162      0.3649
    101  OE1      -18.6710   10.1580   47.1350 O.co2 162  GLU162     -0.2457
    102  OE2      -16.7030    9.5990   46.3670 O.co2 162  GLU162     -0.2457
@<TRIPOS>BOND
     1    21    20    1
     2    20    19    1
     3    19    18    1
     4    18    17    1
     5    17    14    1
     6    14    13    1
     7    14    15    1
     8    13     3   am
     9     9     7   ar
    10     9    11   ar
    11    15    16    2
    12     7     6   ar
    13     3     2    1
    14     3     4    2
    15     2     5    1
    16     2     1    1
    17    12    11    1
    18    11    10   ar
    19     6     5    1
    20     6     8   ar
    21    84    83    1
    22    83    82   ar
    23    83    81   ar
    24    82    80   ar
    25    10     8   ar
    26    81    79   ar
    27    80    78   ar
    28    79    78   ar
    29    78    77    1
    30    76    75    2
    31    77    74    1
    32    75    74    1
    33    74    73    1
    34    72    70    1
    35    65    63    1
    36    71    70    1
    37    27    26    1
    38    87    88    2
    39    87    86    1
    40    85    86    1
    41    28    26    1
    42    70    67    1
    43    69    68    2
    44    67    68    1
    45    67    66    1
    46    86    89    1
    47    62    61    2
    48    89    90    1
    49    26    23    1
    50    63    64    1
    51    63    60    1
    52    66    61   am
    53    61    60    1
    54    22    23    1
    55    90    91    1
    56    91    93   am
    57    91    92    2
    58    23    24    1
    59    60    59    1
    60    24    25    2
    61    59    52   am
    62    53    52    2
    63    38    37    1
    64    38    39    1
    65    52    51    1
    66    49    48    2
    67    47    48    1
    68    47    46    1
    69    40    39    2
    70    48    50   am
    71    37    31   am
    72    39    41   am
    73    46    43   am
    74    50    51    1
    75    97    96    2
    76    51    54    1
    77    99    98    1
    78    99   100    1
    79   102   100   ar
    80    98    95    1
    81    33    34    1
    82    33    30    1
    83    31    32    2
    84    31    30    1
    85    94    95    1
    86    35    34    2
    87   100   101   ar
    88    41    42    1
    89    96    95    1
    90    34    36   am
    91    43    44    2
    92    43    42    1
    93    54    55    1
    94    30    29    1
    95    42    45    1
    96    58    57    1
    97    55    56    1
    98    57    56    1
