@<TRIPOS>MOLECULE
tmp/6b8jA00.pdb
 110 106 0 0 0
SMALL
GASTEIGER

@<TRIPOS>ATOM
      1  N         -8.3120   33.9000   -5.5400 N.3    56  ARG56      -0.1231
      2  CA        -7.5320   33.2410   -6.5680 C.3    56  ARG56       0.1694
      3  C         -6.1490   32.9300   -6.0520 C.2    56  ARG56       0.2592
      4  O         -5.3460   32.3820   -6.7900 O.2    56  ARG56      -0.2718
      5  CB        -7.4250   34.0980   -7.8540 C.3    56  ARG56       0.0321
      6  CG        -6.7930   33.3200   -9.0130 C.3    56  ARG56       0.0489
      7  CD        -6.4020   34.1640  -10.1890 C.3    56  ARG56       0.2205
      8  NE        -5.5300   35.2700   -9.8340 N.pl3  56  ARG56      -0.0865
      9  CZ        -5.9340   36.5310   -9.7150 C.cat  56  ARG56       0.5346
     10  NH1       -7.1850   36.9040  -10.0020 N.pl3  56  ARG56       0.1354
     11  NH2       -5.1210   37.4670   -9.2160 N.pl3  56  ARG56       0.1354
     12  N         -5.8740   33.2170   -4.7820 N.am   57  PHE57      -0.1962
     13  CA        -4.5480   33.0270   -4.2200 C.3    57  PHE57       0.1771
     14  C         -4.4730   31.7850   -3.3430 C.2    57  PHE57       0.2619
     15  O         -5.4680   31.3330   -2.7720 O.2    57  PHE57      -0.2715
     16  CB        -4.1320   34.2630   -3.4260 C.3    57  PHE57       0.0574
     17  CG        -4.1230   35.5150   -4.2540 C.ar   57  PHE57      -0.0200
     18  CD1       -5.2950   36.2140   -4.4980 C.ar   57  PHE57      -0.0042
     19  CD2       -2.9480   35.9750   -4.8170 C.ar   57  PHE57      -0.0042
     20  CE1       -5.2830   37.3620   -5.2740 C.ar   57  PHE57      -0.0003
     21  CE2       -2.9290   37.1140   -5.5900 C.ar   57  PHE57      -0.0003
     22  CZ        -4.0970   37.8110   -5.8200 C.ar   57  PHE57      -0.0000
     23  N         -3.2750   31.2180   -3.2830 N.am   58  LYS58      -0.1963
     24  CA        -2.9880   30.0180   -2.5010 C.3    58  LYS58       0.1728
     25  C         -2.5430   30.4460   -1.1020 C.2    58  LYS58       0.2616
     26  O         -1.3780   30.7970   -0.8930 O.2    58  LYS58      -0.2715
     27  CB        -1.9270   29.1770   -3.2130 C.3    58  LYS58       0.0311
     28  CG        -0.8930   30.0010   -4.0120 C.3    58  LYS58       0.0038
     29  CD         0.3710   29.2180   -4.3500 C.3    58  LYS58       0.0206
     30  CE         0.3970   28.4750   -5.6690 C.3    58  LYS58       0.1093
     31  NZ         1.7040   27.7320   -5.7310 N.3    58  LYS58      -0.1314
     32  N         -3.4790   30.4590   -0.1460 N.am   59  ASN59      -0.1958
     33  CA        -3.1180   30.6560    1.2540 C.3    59  ASN59       0.1819
     34  C         -2.5810   29.3580    1.8540 C.2    59  ASN59       0.2621
     35  O         -2.7900   28.2610    1.3270 O.2    59  ASN59      -0.2715
     36  CB        -4.2990   31.1370    2.1060 C.3    59  ASN59       0.1195
     37  CG        -3.8390   31.7820    3.4110 C.2    59  ASN59       0.2630
     38  OD1       -2.8640   32.5370    3.4240 O.2    59  ASN59      -0.2716
     39  ND2       -4.5140   31.4700    4.5150 N.am   59  ASN59      -0.0877
     40  N         -1.8650   29.5040    2.9720 N.am   60  ARG60      -0.1977
     41  CA        -1.1850   28.3590    3.5670 C.3    60  ARG60       0.1597
     42  C         -1.0990   28.4100    5.0840 C.2    60  ARG60       0.2287
     43  O         -0.3700   27.5920    5.6570 O.2    60  ARG60      -0.2864
     44  CB         0.2240   28.2520    3.0340 C.3    60  ARG60       0.0334
     45  CG         0.3470   28.0780    1.5440 C.3    60  ARG60       0.0492
     46  CD         1.7710   28.3710    1.2000 C.3    60  ARG60       0.2205
     47  NE         2.1150   28.2060   -0.2020 N.pl3  60  ARG60      -0.0865
     48  CZ         1.9700   29.1440   -1.1290 C.cat  60  ARG60       0.5346
     49  NH1        1.4730   30.3410   -0.8330 N.pl3  60  ARG60       0.1354
     50  NH2        2.3660   28.8890   -2.3590 N.pl3  60  ARG60       0.1354
     51  N          7.7160   35.8950    5.2110 N.3   141  ARG141     -0.1245
     52  CA         7.3680   36.8750    4.1780 C.3   141  ARG141      0.1563
     53  C          6.5050   38.0210    4.6890 C.2   141  ARG141      0.2260
     54  O          5.7830   38.6400    3.9060 O.2   141  ARG141     -0.2867
     55  CB         6.6600   36.1950    3.0010 C.3   141  ARG141      0.0307
     56  CG         7.5090   35.1240    2.3630 C.3   141  ARG141      0.0489
     57  CD         6.9470   34.6420    1.0660 C.3   141  ARG141      0.2205
     58  NE         5.5210   34.3520    1.1280 N.pl3 141  ARG141     -0.0865
     59  CZ         4.7900   34.1300    0.0470 C.cat 141  ARG141      0.5346
     60  NH1        5.3760   34.1780   -1.1360 N.pl3 141  ARG141      0.1354
     61  NH2        3.4930   33.8680    0.1380 N.pl3 141  ARG141      0.1354
     62  N          0.0700   34.3800    7.6980 N.3   163  GLY163     -0.1210
     63  CA        -0.8550   34.3980    6.5760 C.3   163  GLY163      0.1956
     64  C         -0.2080   34.6840    5.2360 C.2   163  GLY163      0.2612
     65  O         -0.8340   34.4510    4.1970 O.2   163  GLY163     -0.2717
     66  N          1.0180   35.2020    5.2320 N.am  164  SER164     -0.1952
     67  CA         1.8090   35.3240    4.0160 C.3   164  SER164      0.1924
     68  C          2.8210   34.1980    3.8690 C.2   164  SER164      0.2314
     69  O          3.5690   34.1780    2.8860 O.2   164  SER164     -0.2863
     70  CB         2.5470   36.6710    3.9860 C.3   164  SER164      0.2116
     71  OG         1.6510   37.7650    4.0390 O.3   164  SER164     -0.2180
     72  N          4.9780   30.8280    3.2750 N.3   166  LYS166     -0.1245
     73  CA         5.0860   29.9110    2.1560 C.3   166  LYS166      0.1561
     74  C          6.3030   29.0350    2.3820 C.2   166  LYS166      0.2260
     75  O          7.2850   29.4640    2.9920 O.2   166  LYS166     -0.2867
     76  CB         5.2310   30.6650    0.8310 C.3   166  LYS166      0.0271
     77  CG         4.8470   29.8640   -0.3810 C.3   166  LYS166      0.0035
     78  CD         5.8770   29.8960   -1.4850 C.3   166  LYS166      0.0206
     79  CE         5.2560   29.4390   -2.7810 C.3   166  LYS166      0.1093
     80  NZ         6.1280   29.5490   -3.9710 N.3   166  LYS166     -0.1314
     81  N          8.1910   29.2530   -8.6760 N.3   173  PRO173     -0.2102
     82  CA         8.2590   30.7050   -8.4760 C.3   173  PRO173      0.1504
     83  C          7.2580   31.2340   -7.4620 C.2   173  PRO173      0.2576
     84  O          6.2490   30.5970   -7.1400 O.2   173  PRO173     -0.2718
     85  CB         8.0050   31.2560   -9.8810 C.3   173  PRO173      0.0282
     86  CG         7.1270   30.2630  -10.5150 C.3   173  PRO173      0.0208
     87  CD         7.3950   28.9150   -9.8690 C.3   173  PRO173      0.0893
     88  N          7.5520   32.4370   -6.9780 N.am  174  ASN174     -0.1961
     89  CA         6.8130   33.0900   -5.9120 C.3   174  ASN174      0.1819
     90  C          6.6250   34.5480   -6.2980 C.2   174  ASN174      0.2621
     91  O          7.4430   35.1240   -7.0190 O.2   174  ASN174     -0.2715
     92  CB         7.5600   33.0000   -4.5800 C.3   174  ASN174      0.1195
     93  CG         8.2630   31.6680   -4.3910 C.2   174  ASN174      0.2630
     94  OD1        7.6290   30.6660   -4.0960 O.2   174  ASN174     -0.2716
     95  ND2        9.5760   31.6530   -4.5570 N.am  174  ASN174     -0.0877
     96  N          5.5370   35.1430   -5.8160 N.am  175  VAL175     -0.1977
     97  CA         5.2650   36.5350   -6.1450 C.3   175  VAL175      0.1596
     98  C          6.3400   37.4370   -5.5710 C.2   175  VAL175      0.2287
     99  O          6.8620   37.2070   -4.4710 O.2   175  VAL175     -0.2864
    100  CB         3.8920   36.9670   -5.6210 C.3   175  VAL175      0.0276
    101  CG1        2.8180   36.2850   -6.4030 C.3   175  VAL175      0.0022
    102  CG2        3.7960   36.6550   -4.1550 C.3   175  VAL175      0.0022
    103  N          5.2370   41.0780   -2.0620 N.3   177  ILE177     -0.1245
    104  CA         4.9450   40.3910   -0.8000 C.3   177  ILE177      0.1561
    105  C          5.7370   41.1270    0.3090 C.2   177  ILE177      0.2260
    106  O          6.7060   41.7800   -0.0850 O.2   177  ILE177     -0.2867
    107  CB         5.2710   38.8560   -0.9630 C.3   177  ILE177      0.0252
    108  CG1        4.6540   38.0280    0.1600 C.3   177  ILE177      0.0019
    109  CG2        6.7790   38.5880   -1.0770 C.3   177  ILE177      0.0019
    110  CD1        3.1340   37.9280    0.0900 C.3   177  ILE177      0.0001
@<TRIPOS>BOND
     1    86    85    1
     2    86    87    1
     3     7     8    1
     4     7     6    1
     5    10     9    1
     6    85    82    1
     7    87    81    1
     8     8     9    2
     9     9    11    1
    10     6     5    1
    11    81    82    1
    12    82    83    1
    13     5     2    1
    14    83    84    2
    15    83    88   am
    16    91    90    2
    17    88    89    1
    18     4     3    2
    19     2     3    1
    20     2     1    1
    21   101   100    1
    22    90    89    1
    23    90    96   am
    24    97    96    1
    25    97   100    1
    26    97    98    1
    27     3    12   am
    28    89    92    1
    29    22    21   ar
    30    22    20   ar
    31    31    30    1
    32    30    29    1
    33   100   102    1
    34    21    19   ar
    35    98    99    2
    36    20    18   ar
    37    19    17   ar
    38    12    13    1
    39    92    93    1
    40    95    93   am
    41    18    17   ar
    42    93    94    2
    43    29    28    1
    44    17    16    1
    45    13    16    1
    46    13    14    1
    47    28    27    1
    48    80    79    1
    49    14    23   am
    50    14    15    2
    51    23    24    1
    52    27    24    1
    53    79    78    1
    54    24    25    1
    55    50    48    1
    56   103   104    1
    57    78    77    1
    58    60    59    1
    59    48    49    1
    60    48    47    2
    61    25    26    2
    62    25    32   am
    63   109   107    1
    64   107   104    1
    65   107   108    1
    66   104   105    1
    67    77    76    1
    68    47    46    1
    69    32    33    1
    70   106   105    2
    71    59    61    1
    72    59    58    2
    73   110   108    1
    74    76    73    1
    75    57    58    1
    76    57    56    1
    77    46    45    1
    78    33    34    1
    79    33    36    1
    80    35    34    2
    81    45    44    1
    82    34    40   am
    83    36    37    1
    84    73    74    1
    85    73    72    1
    86    56    55    1
    87    74    75    2
    88    69    68    2
    89    40    41    1
    90    55    52    1
    91    44    41    1
    92    37    38    2
    93    37    39   am
    94    41    42    1
    95    68    67    1
    96    54    53    2
    97    70    67    1
    98    70    71    1
    99    67    66    1
   100    52    53    1
   101    52    51    1
   102    65    64    2
   103    42    43    2
   104    66    64   am
   105    64    63    1
   106    63    62    1
