@<TRIPOS>MOLECULE
tmp/6b8kA00.pdb
 98 91 0 0 0
SMALL
GASTEIGER

@<TRIPOS>ATOM
      1  N        -12.1430   12.4710    7.2220 N.3    32  ARG32      -0.1245
      2  CA       -12.5250   11.0990    6.7860 C.3    32  ARG32       0.1563
      3  C        -11.4400   10.1310    6.9390 C.2    32  ARG32       0.2260
      4  O        -10.2450   10.4420    6.9760 O.2    32  ARG32      -0.2867
      5  CB       -12.9060   11.1110    5.3330 C.3    32  ARG32       0.0307
      6  CG       -11.7870   11.4370    4.3860 C.3    32  ARG32       0.0489
      7  CD       -12.1890   11.5150    2.9360 C.3    32  ARG32       0.2205
      8  NE       -12.8870   10.3570    2.3560 N.pl3  32  ARG32      -0.0865
      9  CZ       -12.2830    9.3350    1.7610 C.cat  32  ARG32       0.5346
     10  NH1      -10.9620    9.2760    1.6170 N.pl3  32  ARG32       0.1354
     11  NH2      -13.0630    8.3780    1.2660 N.pl3  32  ARG32       0.1354
     12  N        -16.3780   -1.0860    1.5600 N.3    46  HIS46      -0.1241
     13  CA       -15.9450    0.2840    1.8270 C.3    46  HIS46       0.1621
     14  C        -16.3850    0.6190    3.2480 C.2    46  HIS46       0.2264
     15  O        -17.5760    0.4590    3.5730 O.2    46  HIS46      -0.2867
     16  CB       -16.6360    1.2010    0.8380 C.3    46  HIS46       0.0745
     17  CG       -16.4100    2.6550    1.0140 C.ar   46  HIS46       0.0817
     18  ND1      -15.2310    3.2810    0.6530 N.ar   46  HIS46      -0.2268
     19  CD2      -17.2860    3.6430    1.3670 C.ar   46  HIS46       0.1154
     20  CE1      -15.4380    4.6170    0.7530 C.ar   46  HIS46       0.1986
     21  NE2      -16.6450    4.8430    1.1950 N.ar   46  HIS46      -0.2212
     22  N        -16.1050    3.7150    5.8850 N.3    48  ASN48      -0.1240
     23  CA       -15.7710    5.1350    5.7210 C.3    48  ASN48       0.1653
     24  C        -16.2910    5.9620    6.8970 C.2    48  ASN48       0.2266
     25  O        -17.3560    6.5660    6.8070 O.2    48  ASN48      -0.2867
     26  CB       -16.3580    5.6050    4.4040 C.3    48  ASN48       0.1155
     27  CG       -16.3000    7.0680    4.0970 C.2    48  ASN48       0.2627
     28  OD1      -17.1690    7.5790    3.3820 O.2    48  ASN48      -0.2716
     29  ND2      -15.2880    7.7730    4.5220 N.am   48  ASN48      -0.0877
     30  N        -16.8140    9.2230    8.6560 N.3    50  ARG50      -0.1245
     31  CA       -16.9590   10.6150    8.2810 C.3    50  ARG50       0.1563
     32  C        -17.1050   11.4940    9.5710 C.2    50  ARG50       0.2260
     33  O        -17.9830   11.2290   10.3490 O.2    50  ARG50      -0.2867
     34  CB       -18.1780   10.8090    7.4190 C.3    50  ARG50       0.0307
     35  CG       -18.1140   10.0030    6.1170 C.3    50  ARG50       0.0489
     36  CD       -19.3120   10.2730    5.2410 C.3    50  ARG50       0.2205
     37  NE       -19.2030    9.3610    4.0700 N.pl3  50  ARG50      -0.0865
     38  CZ       -20.0780    9.3750    3.0820 C.cat  50  ARG50       0.5346
     39  NH1      -21.1520   10.1470    3.1020 N.pl3  50  ARG50       0.1354
     40  NH2      -19.9840    8.5410    2.0310 N.pl3  50  ARG50       0.1354
     41  N        -20.3090   15.0860    8.6270 N.3    53  GLU53      -0.1245
     42  CA       -21.2990   15.0780    7.5760 C.3    53  GLU53       0.1567
     43  C        -22.4710   15.7970    8.2230 C.2    53  GLU53       0.2260
     44  O        -23.1770   15.2950    9.0480 O.2    53  GLU53      -0.2867
     45  CB       -21.6520   13.6170    7.1740 C.3    53  GLU53       0.0388
     46  CG       -22.6720   13.5320    6.0650 C.3    53  GLU53       0.1160
     47  CD       -23.2280   12.1410    5.9060 C.2    53  GLU53       0.3649
     48  OE1      -23.9690   11.6170    6.7600 O.co2  53  GLU53      -0.2457
     49  OE2      -23.0570   11.6210    4.7690 O.co2  53  GLU53      -0.2457
     50  N        -19.9440    5.1890    7.2530 N.3    60  VAL60      -0.1245
     51  CA       -20.7010    4.7360    6.0660 C.3    60  VAL60       0.1561
     52  C        -20.0260    3.5070    5.5300 C.2    60  VAL60       0.2260
     53  O        -18.8060    3.5410    5.2270 O.2    60  VAL60      -0.2867
     54  CB       -20.7920    5.8010    5.0320 C.3    60  VAL60       0.0252
     55  CG1      -21.4930    5.3520    3.7430 C.3    60  VAL60       0.0019
     56  CG2      -21.4890    7.0510    5.6060 C.3    60  VAL60       0.0019
     57  N        -20.4140    0.4650    2.3230 N.3    62  ASN62      -0.1240
     58  CA       -21.0390    0.1860    1.0630 C.3    62  ASN62       0.1653
     59  C        -20.1490   -0.6880    0.1870 C.2    62  ASN62       0.2266
     60  O        -19.0260   -1.0700    0.5870 O.2    62  ASN62      -0.2867
     61  CB       -21.3470    1.5050    0.3850 C.3    62  ASN62       0.1155
     62  CG       -22.5370    1.4630   -0.5990 C.2    62  ASN62       0.2627
     63  OD1      -23.0650    0.4250   -0.9750 O.2    62  ASN62      -0.2716
     64  ND2      -23.0000    2.6910   -1.0010 N.am   62  ASN62      -0.0877
     65  N        -22.0590    2.8470   -6.6460 N.3    69  TRP69      -0.1298
     66  CA       -22.2280    2.5710   -5.2460 C.3    69  TRP69       0.1291
     67  C        -23.5840    1.9610   -4.9890 C.3    69  TRP69       0.2013
     68  O        -24.5920    2.3570   -5.7070 O.3    69  TRP69      -0.2188
     69  CB       -22.0890    3.8340   -4.3910 C.3    69  TRP69       0.0497
     70  CG       -20.6990    4.2900   -4.3130 C.ar   69  TRP69      -0.0001
     71  CD1      -20.0930    5.3260   -4.9030 C.ar   69  TRP69       0.0946
     72  CD2      -19.6040    3.6280   -3.5800 C.ar   69  TRP69       0.0152
     73  NE1      -18.7520    5.3810   -4.6360 N.ar   69  TRP69      -0.2442
     74  CE2      -18.4260    4.3390   -3.8040 C.ar   69  TRP69       0.0810
     75  CE3      -19.5750    2.4800   -2.7740 C.ar   69  TRP69       0.0012
     76  CZ2      -17.2460    3.9970   -3.2210 C.ar   69  TRP69       0.0191
     77  CZ3      -18.4000    2.1350   -2.1880 C.ar   69  TRP69       0.0001
     78  CH2      -17.2550    2.8360   -2.4190 C.ar   69  TRP69       0.0015
     79  N        -26.2110    2.3190    1.0880 N.3    72  GLU72      -0.1301
     80  CA       -25.3110    2.5960    2.2550 C.3    72  GLU72       0.1252
     81  C        -25.8280    1.9020    3.4530 C.3    72  GLU72       0.2009
     82  O        -27.0930    1.8040    3.7110 O.3    72  GLU72      -0.2188
     83  CB       -25.1740    4.0750    2.6050 C.3    72  GLU72       0.0335
     84  CG       -24.4590    4.7680    1.5460 C.3    72  GLU72       0.1156
     85  CD       -24.1080    6.3050    1.6790 C.2    72  GLU72       0.3649
     86  OE1      -24.9290    6.8490    2.5470 O.co2  72  GLU72      -0.2457
     87  OE2      -23.2580    6.7770    1.0240 O.co2  72  GLU72      -0.2457
     88  N        -25.3400    2.5430    7.5170 N.3    74  ARG74      -0.1245
     89  CA       -24.7940    3.5650    8.4400 C.3    74  ARG74       0.1563
     90  C        -24.8130    3.1300    9.8700 C.2    74  ARG74       0.2260
     91  O        -25.6680    2.4420   10.3270 O.2    74  ARG74      -0.2867
     92  CB       -25.5810    4.7860    8.1680 C.3    74  ARG74       0.0307
     93  CG       -25.1990    5.4930    6.9070 C.3    74  ARG74       0.0489
     94  CD       -26.1710    6.5910    6.4350 C.3    74  ARG74       0.2205
     95  NE       -25.5640    7.3160    5.3560 N.pl3  74  ARG74      -0.0865
     96  CZ       -24.9610    8.5030    5.3800 C.cat  74  ARG74       0.5346
     97  NH1      -24.9480    9.1670    6.5520 N.pl3  74  ARG74       0.1354
     98  NH2      -24.4910    9.0830    4.3600 N.pl3  74  ARG74       0.1354
@<TRIPOS>BOND
     1    65    66    1
     2    68    67    1
     3    66    67    1
     4    66    69    1
     5    71    73   ar
     6    71    70   ar
     7    73    74   ar
     8    69    70    1
     9    70    72   ar
    10    74    72   ar
    11    74    76   ar
    12    72    75   ar
    13    76    78   ar
    14    75    77   ar
    15    78    77   ar
    16    64    62   am
    17    63    62    2
    18    62    61    1
    19    59    60    2
    20    59    58    1
    21    61    58    1
    22    18    20   ar
    23    18    17   ar
    24    20    21   ar
    25    16    17    1
    26    16    13    1
    27    17    19   ar
    28    87    85   ar
    29    58    57    1
    30    79    80    1
    31    21    19   ar
    32    11     9    1
    33    84    85    1
    34    84    83    1
    35    12    13    1
    36    10     9    1
    37    85    86   ar
    38     9     8    2
    39    13    14    1
    40    40    38    1
    41    80    83    1
    42    80    81    1
    43     8     7    1
    44     7     6    1
    45    38    39    1
    46    38    37    2
    47    14    15    2
    48    28    27    2
    49    81    82    1
    50    55    54    1
    51    37    36    1
    52    27    26    1
    53    27    29   am
    54    98    96    1
    55     6     5    1
    56    26    23    1
    57    49    47   ar
    58    54    56    1
    59    54    51    1
    60    53    52    2
    61    36    35    1
    62     5     2    1
    63    95    96    2
    64    95    94    1
    65    96    97    1
    66    52    51    1
    67    23    22    1
    68    23    24    1
    69    47    46    1
    70    47    48   ar
    71    46    45    1
    72    51    50    1
    73    35    34    1
    74    94    93    1
    75     2     3    1
    76     2     1    1
    77    25    24    2
    78    93    92    1
    79     3     4    2
    80    45    42    1
    81    34    31    1
    82    88    89    1
    83    42    43    1
    84    42    41    1
    85    92    89    1
    86    43    44    2
    87    31    30    1
    88    31    32    1
    89    89    90    1
    90    32    33    2
    91    90    91    2
