@<TRIPOS>MOLECULE
tmp/6b8sA01.pdb
 137 133 0 0 0
SMALL
GASTEIGER

@<TRIPOS>ATOM
      1  N          2.9210  -11.6110   31.3060 N.3     2  TYR2       -0.1241
      2  CA         3.9650  -11.7020   30.2980 C.3     2  TYR2        0.1605
      3  C          5.3350  -12.0710   30.8680 C.2     2  TYR2        0.2264
      4  O          6.0560  -12.8230   30.1930 O.2     2  TYR2       -0.2867
      5  CB         4.0270  -10.3950   29.5010 C.3     2  TYR2        0.0534
      6  CG         4.8160  -10.5510   28.2360 C.ar    2  TYR2       -0.0201
      7  CD1        4.4010  -11.4300   27.2530 C.ar    2  TYR2       -0.0009
      8  CD2        5.9750   -9.8250   28.0240 C.ar    2  TYR2       -0.0009
      9  CE1        5.1090  -11.5750   26.1020 C.ar    2  TYR2        0.0417
     10  CE2        6.7030   -9.9700   26.8720 C.ar    2  TYR2        0.0417
     11  CZ         6.2730  -10.8490   25.9140 C.ar    2  TYR2        0.1957
     12  OH         6.9890  -10.9980   24.7420 O.3     2  TYR2       -0.2866
     13  N          9.7460  -18.3320   26.9170 N.3     9  LEU9       -0.1231
     14  CA        10.2140  -18.0570   25.5600 C.3     9  LEU9        0.1693
     15  C         11.7200  -17.7860   25.5120 C.2     9  LEU9        0.2592
     16  O         12.4240  -18.3150   24.6410 O.2     9  LEU9       -0.2718
     17  CB         9.4230  -16.8810   24.9700 C.3     9  LEU9        0.0284
     18  CG         7.9780  -17.3210   24.6590 C.3     9  LEU9        0.0019
     19  CD1        7.1260  -16.2310   24.0070 C.3     9  LEU9        0.0001
     20  CD2        7.9950  -18.5650   23.7820 C.3     9  LEU9        0.0001
     21  N         12.2360  -16.9760   26.4430 N.am   10  PHE10      -0.1976
     22  CA        13.6570  -16.6300   26.4060 C.3    10  PHE10       0.1639
     23  C         14.5570  -17.8150   26.7310 C.2    10  PHE10       0.2290
     24  O         15.7610  -17.7450   26.4650 O.2    10  PHE10      -0.2864
     25  CB        13.9780  -15.4830   27.3650 C.3    10  PHE10       0.0560
     26  CG        13.5230  -14.1360   26.8840 C.ar   10  PHE10      -0.0200
     27  CD1       12.7700  -14.0070   25.7220 C.ar   10  PHE10      -0.0042
     28  CD2       13.8560  -12.9880   27.5900 C.ar   10  PHE10      -0.0042
     29  CE1       12.3480  -12.7610   25.2760 C.ar   10  PHE10      -0.0003
     30  CE2       13.4380  -11.7310   27.1470 C.ar   10  PHE10      -0.0003
     31  CZ        12.6860  -11.6230   25.9850 C.ar   10  PHE10      -0.0000
     32  N         15.5100  -18.3270   19.7410 N.3    14  ALA14      -0.1245
     33  CA        14.6700  -17.1490   19.5310 C.3    14  ALA14       0.1562
     34  C         13.7030  -17.3410   18.3710 C.2    14  ALA14       0.2260
     35  O         12.5510  -16.8790   18.4310 O.2    14  ALA14      -0.2867
     36  CB        15.5230  -15.8990   19.3110 C.3    14  ALA14       0.0290
     37  N         10.9270  -19.6970   19.4720 N.3    17  ALA17      -0.1231
     38  CA         9.9550  -18.9500   20.2700 C.3    17  ALA17       0.1694
     39  C          9.0180  -18.1500   19.3810 C.2    17  ALA17       0.2592
     40  O          7.8020  -18.1370   19.6050 O.2    17  ALA17      -0.2718
     41  CB        10.6680  -18.0200   21.2590 C.3    17  ALA17       0.0304
     42  N          9.5750  -17.4720   18.3650 N.am   18  HIS18      -0.1976
     43  CA         8.7730  -16.6800   17.4350 C.3    18  HIS18       0.1656
     44  C          7.7520  -17.5450   16.7110 C.2    18  HIS18       0.2291
     45  O          6.6150  -17.1160   16.4900 O.2    18  HIS18      -0.2864
     46  CB         9.6820  -15.9870   16.4180 C.3    18  HIS18       0.0771
     47  CG         8.9610  -15.1060   15.4340 C.ar   18  HIS18       0.0820
     48  ND1        8.1390  -14.0650   15.8210 N.ar   18  HIS18      -0.2267
     49  CD2        8.9910  -15.0760   14.0770 C.ar   18  HIS18       0.1154
     50  CE1        7.6660  -13.4550   14.7450 C.ar   18  HIS18       0.1986
     51  NE2        8.1750  -14.0440   13.6740 N.ar   18  HIS18      -0.2212
     52  N          4.8900  -18.3520   18.8600 N.3    21  VAL21      -0.1245
     53  CA         4.0070  -17.2020   18.9910 C.3    21  VAL21       0.1561
     54  C          3.1790  -17.0190   17.7210 C.2    21  VAL21       0.2260
     55  O          1.9810  -16.7220   17.7790 O.2    21  VAL21      -0.2867
     56  CB         4.8280  -15.9480   19.3320 C.3    21  VAL21       0.0252
     57  CG1        3.9560  -14.6970   19.2270 C.3    21  VAL21       0.0019
     58  CG2        5.4360  -16.0980   20.7200 C.3    21  VAL21       0.0019
     59  N         -0.8450  -16.8910   17.2790 N.3    25  LEU25      -0.1245
     60  CA        -1.4740  -15.7350   16.6460 C.3    25  LEU25       0.1561
     61  C         -2.3070  -16.1520   15.4420 C.2    25  LEU25       0.2260
     62  O         -3.3930  -15.6070   15.2220 O.2    25  LEU25      -0.2867
     63  CB        -0.4160  -14.6870   16.2580 C.3    25  LEU25       0.0270
     64  CG         0.3390  -14.0990   17.4580 C.3    25  LEU25       0.0019
     65  CD1        1.3960  -13.0230   17.1060 C.3    25  LEU25       0.0001
     66  CD2       -0.6090  -13.5850   18.5130 C.3    25  LEU25       0.0001
     67  N          7.8150   -9.0940   11.3170 N.3    68  PHE68      -0.1241
     68  CA         7.1500   -9.8650   12.3560 C.3    68  PHE68       0.1605
     69  C          6.0890  -10.7870   11.7580 C.2    68  PHE68       0.2264
     70  O          6.0390  -11.9760   12.0810 O.2    68  PHE68      -0.2867
     71  CB         6.5320   -8.9330   13.4120 C.3    68  PHE68       0.0534
     72  CG         6.0470   -9.6670   14.6390 C.ar   68  PHE68      -0.0203
     73  CD1        4.8710  -10.3960   14.6110 C.ar   68  PHE68      -0.0042
     74  CD2        6.8050   -9.6720   15.8070 C.ar   68  PHE68      -0.0042
     75  CE1        4.4290  -11.1170   15.7450 C.ar   68  PHE68      -0.0003
     76  CE2        6.3770  -10.3750   16.9370 C.ar   68  PHE68      -0.0003
     77  CZ         5.1840  -11.0930   16.9080 C.ar   68  PHE68      -0.0000
     78  N         -3.9820   -6.2090   19.3150 N.3    81  PHE81      -0.1241
     79  CA        -3.1330   -5.7500   20.4080 C.3    81  PHE81       0.1605
     80  C         -2.8940   -4.2410   20.3970 C.2    81  PHE81       0.2264
     81  O         -2.1860   -3.7510   21.2800 O.2    81  PHE81      -0.2867
     82  CB        -1.7930   -6.4960   20.4110 C.3    81  PHE81       0.0534
     83  CG        -1.9170   -7.9480   20.8100 C.ar   81  PHE81      -0.0203
     84  CD1       -2.0220   -8.3150   22.1450 C.ar   81  PHE81      -0.0042
     85  CD2       -1.9710   -8.9340   19.8510 C.ar   81  PHE81      -0.0042
     86  CE1       -2.1540   -9.6460   22.5060 C.ar   81  PHE81      -0.0003
     87  CE2       -2.1030  -10.2620   20.1990 C.ar   81  PHE81      -0.0003
     88  CZ        -2.1920  -10.6260   21.5260 C.ar   81  PHE81      -0.0000
     89  N         19.1160  -12.9550   20.7130 N.3   106  ARG106     -0.1245
     90  CA        18.6710  -11.9310   21.6470 C.3   106  ARG106      0.1563
     91  C         19.8440  -11.4470   22.4780 C.2   106  ARG106      0.2260
     92  O         20.7130  -12.2350   22.8440 O.2   106  ARG106     -0.2867
     93  CB        17.5990  -12.4380   22.6140 C.3   106  ARG106      0.0307
     94  CG        16.5140  -13.2700   22.0320 C.3   106  ARG106      0.0489
     95  CD        15.5720  -13.6640   23.1880 C.3   106  ARG106      0.2205
     96  NE        14.4270  -14.4630   22.7660 N.pl3 106  ARG106     -0.0865
     97  CZ        14.4060  -15.7920   22.7820 C.cat 106  ARG106      0.5346
     98  NH1       13.3030  -16.4340   22.3910 N.pl3 106  ARG106      0.1354
     99  NH2       15.4870  -16.4800   23.1920 N.pl3 106  ARG106      0.1354
    100  N          9.5400   -3.2160   16.2220 N.3   299  TYR299     -0.1241
    101  CA         9.6290   -4.6700   16.2630 C.3   299  TYR299      0.1605
    102  C         10.0880   -5.1340   17.6390 C.2   299  TYR299      0.2264
    103  O          9.3410   -5.8300   18.3280 O.2   299  TYR299     -0.2867
    104  CB        10.5610   -5.2250   15.1670 C.3   299  TYR299      0.0534
    105  CG        10.5410   -6.7540   15.0500 C.ar  299  TYR299     -0.0201
    106  CD1       10.8920   -7.5590   16.1330 C.ar  299  TYR299     -0.0009
    107  CD2       10.2040   -7.3900   13.8560 C.ar  299  TYR299     -0.0009
    108  CE1       10.8740   -8.9240   16.0550 C.ar  299  TYR299      0.0417
    109  CE2       10.2060   -8.7850   13.7530 C.ar  299  TYR299      0.0417
    110  CZ        10.5340   -9.5410   14.8710 C.ar  299  TYR299      0.1957
    111  OH        10.5380  -10.9150   14.8470 O.3   299  TYR299     -0.2866
    112  N          8.2710   -4.9710   21.1100 N.3   302  PHE302     -0.1227
    113  CA         7.1380   -5.8870   21.2510 C.3   302  PHE302      0.1736
    114  C          7.5800   -7.1860   21.9050 C.2   302  PHE302      0.2595
    115  O          6.8740   -7.7350   22.7540 O.2   302  PHE302     -0.2718
    116  CB         6.5060   -6.1490   19.8770 C.3   302  PHE302      0.0547
    117  CG         5.1390   -6.8070   19.9180 C.ar  302  PHE302     -0.0202
    118  CD1        4.2130   -6.4800   20.8970 C.ar  302  PHE302     -0.0042
    119  CD2        4.7730   -7.7310   18.9390 C.ar  302  PHE302     -0.0042
    120  CE1        2.9400   -7.0800   20.9110 C.ar  302  PHE302     -0.0003
    121  CE2        3.5100   -8.3480   18.9540 C.ar  302  PHE302     -0.0003
    122  CZ         2.5900   -8.0150   19.9390 C.ar  302  PHE302     -0.0000
    123  N          8.7640   -7.6820   21.5430 N.am  303  ILE303     -0.1980
    124  CA         9.3030   -8.8660   22.2030 C.3   303  ILE303      0.1595
    125  C          9.4670   -8.6030   23.6930 C.2   303  ILE303      0.2287
    126  O          9.0120   -9.3840   24.5340 O.2   303  ILE303     -0.2864
    127  CB        10.6400   -9.2730   21.5580 C.3   303  ILE303      0.0276
    128  CG1       10.4840   -9.4000   20.0440 C.3   303  ILE303      0.0022
    129  CG2       11.1630  -10.5570   22.1750 C.3   303  ILE303      0.0022
    130  CD1        9.4730  -10.3850   19.6530 C.3   303  ILE303      0.0001
    131  N          2.1490   -7.7530   25.1480 N.3   307  PRO307     -0.2116
    132  CA         0.8820   -7.2070   24.6270 C.3   307  PRO307      0.1372
    133  C          0.5200   -5.8240   25.1550 C.2   307  PRO307      0.2244
    134  O         -0.1930   -5.0880   24.4620 O.2   307  PRO307     -0.2868
    135  CB        -0.1520   -8.2620   25.0530 C.3   307  PRO307      0.0268
    136  CG         0.5020   -9.0750   26.0970 C.3   307  PRO307      0.0207
    137  CD         1.9640   -9.0680   25.7900 C.3   307  PRO307      0.0892
@<TRIPOS>BOND
     1    67    68    1
     2    69    70    2
     3    69    68    1
     4    68    71    1
     5    71    72    1
     6    51    49   ar
     7    51    50   ar
     8   109   107   ar
     9   109   110   ar
    10   107   105   ar
    11    49    47   ar
    12    73    72   ar
    13    73    75   ar
    14    72    74   ar
    15    50    48   ar
    16   111   110    1
    17   110   108   ar
    18   105   104    1
    19   105   106   ar
    20   104   101    1
    21    62    61    2
    22    47    48   ar
    23    47    46    1
    24    61    60    1
    25    75    77   ar
    26    74    76   ar
    27   108   106   ar
    28   100   101    1
    29    63    60    1
    30    63    64    1
    31   101   102    1
    32    46    43    1
    33    45    44    2
    34    60    59    1
    35    44    43    1
    36    77    76   ar
    37    65    64    1
    38    43    42    1
    39    64    66    1
    40   102   103    2
    41    54    55    2
    42    54    53    1
    43    42    39   am
    44    34    35    2
    45    34    33    1
    46    52    53    1
    47   119   121   ar
    48   119   117   ar
    49   121   122   ar
    50    53    56    1
    51    57    56    1
    52    36    33    1
    53    78    79    1
    54    56    58    1
    55    39    40    2
    56    39    38    1
    57    37    38    1
    58    33    32    1
    59   130   128    1
    60    85    87   ar
    61    85    83   ar
    62   116   117    1
    63   116   113    1
    64   117   118   ar
    65   122   120   ar
    66   128   127    1
    67    87    88   ar
    68    38    41    1
    69    80    79    1
    70    80    81    2
    71    79    82    1
    72    82    83    1
    73    89    90    1
    74    83    84   ar
    75   118   120   ar
    76   112   113    1
    77   113   114    1
    78    88    86   ar
    79   123   114   am
    80   123   124    1
    81   127   129    1
    82   127   124    1
    83    90    91    1
    84    90    93    1
    85   114   115    2
    86    94    93    1
    87    94    95    1
    88    84    86   ar
    89   124   125    1
    90    98    97    1
    91    91    92    2
    92    96    97    2
    93    96    95    1
    94    97    99    1
    95   125   126    2
    96    20    18    1
    97    19    18    1
    98   134   133    2
    99   132   135    1
   100   132   131    1
   101   132   133    1
   102    16    15    2
   103    18    17    1
   104    12    11    1
   105    17    14    1
   106   135   136    1
   107   131   137    1
   108    29    27   ar
   109    29    31   ar
   110    15    14    1
   111    15    21   am
   112    14    13    1
   113    27    26   ar
   114   137   136    1
   115    11     9   ar
   116    11    10   ar
   117    31    30   ar
   118     9     7   ar
   119    22    21    1
   120    22    23    1
   121    22    25    1
   122    24    23    2
   123    10     8   ar
   124    26    25    1
   125    26    28   ar
   126    30    28   ar
   127     7     6   ar
   128     8     6   ar
   129     6     5    1
   130     5     2    1
   131     4     3    2
   132     2     3    1
   133     2     1    1
