@<TRIPOS>MOLECULE
tmp/6b8sB00.pdb
 201 187 0 0 0
SMALL
GASTEIGER

@<TRIPOS>ATOM
      1  N         18.1340    2.8740  -38.4100 N.3    65  ALA65      -0.1231
      2  CA        19.1410    1.8220  -38.2680 C.3    65  ALA65       0.1694
      3  C         19.1270    1.2080  -36.8710 C.2    65  ALA65       0.2592
      4  O         18.6580    1.8080  -35.9050 O.2    65  ALA65      -0.2718
      5  CB        20.5350    2.3770  -38.5440 C.3    65  ALA65       0.0304
      6  N         19.6850   -0.0020  -36.7730 N.am   66  ALA66      -0.1966
      7  CA        19.7660   -0.7240  -35.5090 C.3    66  ALA66       0.1728
      8  C         20.6400    0.0130  -34.4890 C.2    66  ALA66       0.2616
      9  O         21.5310    0.8080  -34.8320 O.2    66  ALA66      -0.2715
     10  CB        20.3320   -2.1220  -35.7260 C.3    66  ALA66       0.0334
     11  N         20.3750   -0.2810  -33.2090 N.am   67  GLY67      -0.1955
     12  CA        21.0810    0.3150  -32.1040 C.3    67  GLY67       0.1869
     13  C         20.4290    1.5430  -31.4960 C.2    67  GLY67       0.2309
     14  O         20.8710    1.9920  -30.4400 O.2    67  GLY67      -0.2863
     15  N         17.1250   -0.4260  -28.9610 N.3    70  LYS70      -0.1245
     16  CA        17.6970   -1.7510  -28.8220 C.3    70  LYS70       0.1561
     17  C         16.6730   -2.7590  -28.3280 C.2    70  LYS70       0.2260
     18  O         16.7550   -3.9370  -28.6960 O.2    70  LYS70      -0.2867
     19  CB        18.9190   -1.6830  -27.9040 C.3    70  LYS70       0.0271
     20  CG        20.0680   -0.9220  -28.5660 C.3    70  LYS70       0.0035
     21  CD        21.3320   -0.8610  -27.7360 C.3    70  LYS70       0.0206
     22  CE        22.5200   -0.4200  -28.6040 C.3    70  LYS70       0.1093
     23  NZ        23.8430   -0.7840  -28.0270 N.3    70  LYS70      -0.1314
     24  N         20.5030   -4.2190  -31.5980 N.3    90  THR90      -0.1218
     25  CA        20.6500   -5.6700  -31.5360 C.3    90  THR90       0.1862
     26  C         20.1230   -6.2870  -30.2390 C.2    90  THR90       0.2287
     27  O         20.4160   -5.8250  -29.1350 O.2    90  THR90      -0.2866
     28  CB        22.1470   -6.0450  -31.7190 C.3    90  THR90       0.1770
     29  OG1       22.6250   -5.4930  -32.9580 O.3    90  THR90      -0.2211
     30  CG2       22.3610   -7.5470  -31.7150 C.3    90  THR90       0.0375
     31  N         30.4550    5.7870  -25.8230 N.3   104  LEU104     -0.1245
     32  CA        29.7680    6.5570  -26.8480 C.3   104  LEU104      0.1561
     33  C         30.3280    7.9760  -26.8830 C.2   104  LEU104      0.2260
     34  O         30.4090    8.6360  -25.8460 O.2   104  LEU104     -0.2867
     35  CB        28.2600    6.5850  -26.5720 C.3   104  LEU104      0.0270
     36  CG        27.4230    7.4710  -27.4890 C.3   104  LEU104      0.0019
     37  CD1       27.7600    7.1670  -28.9340 C.3   104  LEU104      0.0001
     38  CD2       25.9100    7.2920  -27.2140 C.3   104  LEU104      0.0001
     39  N         29.6080   10.2460  -34.9590 N.3   113  LEU113     -0.1245
     40  CA        29.6000    9.5210  -33.7000 C.3   113  LEU113      0.1561
     41  C         30.6640    8.4240  -33.7310 C.2   113  LEU113      0.2260
     42  O         31.1300    7.9850  -34.7870 O.2   113  LEU113     -0.2867
     43  CB        28.2210    8.8990  -33.4010 C.3   113  LEU113      0.0270
     44  CG        27.0420    9.8810  -33.3020 C.3   113  LEU113      0.0019
     45  CD1       25.7360    9.1250  -33.1020 C.3   113  LEU113      0.0001
     46  CD2       27.2520   10.9060  -32.1820 C.3   113  LEU113      0.0001
     47  N         31.4250    4.8430  -31.3300 N.3   115  ASN115     -0.1240
     48  CA        30.9080    4.0300  -30.2410 C.3   115  ASN115      0.1653
     49  C         31.6100    2.6780  -30.2060 C.2   115  ASN115      0.2266
     50  O         32.0920    2.1650  -31.2250 O.2   115  ASN115     -0.2867
     51  CB        29.3770    3.8500  -30.3380 C.3   115  ASN115      0.1155
     52  CG        28.9730    2.6440  -31.1670 C.2   115  ASN115      0.2627
     53  OD1       28.7820    1.5510  -30.6370 O.2   115  ASN115     -0.2716
     54  ND2       28.8090    2.8470  -32.4720 N.am  115  ASN115     -0.0877
     55  N         29.9190    0.1700  -27.9450 N.3   117  MET117     -0.1245
     56  CA        28.9670   -0.1620  -26.8920 C.3   117  MET117      0.1570
     57  C         28.8040   -1.6590  -26.6770 C.2   117  MET117      0.2261
     58  O         28.4980   -2.0810  -25.5580 O.2   117  MET117     -0.2867
     59  CB        27.6210    0.4690  -27.2030 C.3   117  MET117      0.0387
     60  CG        27.7190    1.9640  -27.2910 C.3   117  MET117      0.0595
     61  SD        26.1010    2.6580  -27.1800 S.3   117  MET117     -0.1393
     62  CE        25.7650    2.4810  -25.4300 C.3   117  MET117      0.0692
     63  N         26.5130   -4.0830  -27.8730 N.3   119  PHE119     -0.1241
     64  CA        25.2150   -4.7670  -27.8130 C.3   119  PHE119      0.1605
     65  C         24.6590   -4.8350  -26.3910 C.2   119  PHE119      0.2264
     66  O         24.3290   -5.9100  -25.8880 O.2   119  PHE119     -0.2867
     67  CB        25.2900   -6.1820  -28.4000 C.3   119  PHE119      0.0534
     68  CG        25.8310   -6.2530  -29.8060 C.ar  119  PHE119     -0.0203
     69  CD1       25.7900   -5.1540  -30.6490 C.ar  119  PHE119     -0.0042
     70  CD2       26.3610   -7.4420  -30.2850 C.ar  119  PHE119     -0.0042
     71  CE1       26.2900   -5.2330  -31.9370 C.ar  119  PHE119     -0.0003
     72  CE2       26.8600   -7.5310  -31.5730 C.ar  119  PHE119     -0.0003
     73  CZ        26.8270   -6.4230  -32.3990 C.ar  119  PHE119     -0.0000
     74  N         17.1440   -7.0840  -35.4270 N.3   144  ASN144     -0.1240
     75  CA        18.5600   -7.3380  -35.6110 C.3   144  ASN144      0.1653
     76  C         19.0290   -8.2100  -34.4520 C.2   144  ASN144      0.2266
     77  O         18.9000   -7.8230  -33.2880 O.2   144  ASN144     -0.2867
     78  CB        19.3050   -6.0060  -35.6890 C.3   144  ASN144      0.1155
     79  CG        20.7890   -6.1740  -35.9080 C.2   144  ASN144      0.2627
     80  OD1       21.4610   -6.8560  -35.1430 O.2   144  ASN144     -0.2716
     81  ND2       21.3150   -5.5210  -36.9390 N.am  144  ASN144     -0.0877
     82  N         23.9170   -9.6670  -37.6460 N.3   177  ASN177     -0.1240
     83  CA        25.0980   -8.8010  -37.6220 C.3   177  ASN177      0.1653
     84  C         26.3680   -9.6240  -37.8170 C.2   177  ASN177      0.2266
     85  O         26.8610  -10.2550  -36.8810 O.2   177  ASN177     -0.2867
     86  CB        25.1500   -8.0340  -36.3090 C.3   177  ASN177      0.1155
     87  CG        25.0760   -6.5540  -36.5140 C.2   177  ASN177      0.2627
     88  OD1       24.6610   -6.0920  -37.5770 O.2   177  ASN177     -0.2716
     89  ND2       25.4770   -5.7920  -35.5060 N.am  177  ASN177     -0.0877
     90  N         24.0060   -8.0410  -42.3450 N.3   202  LYS202     -0.1245
     91  CA        24.5490   -6.6940  -42.1810 C.3   202  LYS202      0.1561
     92  C         26.0740   -6.7730  -42.0690 C.2   202  LYS202      0.2260
     93  O         26.6000   -7.4870  -41.2080 O.2   202  LYS202     -0.2867
     94  CB        23.9390   -6.0040  -40.9590 C.3   202  LYS202      0.0271
     95  CG        24.3290   -4.5190  -40.8080 C.3   202  LYS202      0.0035
     96  CD        23.5670   -3.8270  -39.6640 C.3   202  LYS202      0.0206
     97  CE        24.1710   -2.4530  -39.3520 C.3   202  LYS202      0.1093
     98  NZ        23.3660   -1.7090  -38.3530 N.3   202  LYS202     -0.1314
     99  N         26.3800   -0.0960  -44.5220 N.3   230  THR230     -0.1203
    100  CA        27.2750   -0.8000  -43.5860 C.3   230  THR230      0.1994
    101  C         27.0960   -0.4220  -42.1000 C.2   230  THR230      0.2618
    102  O         26.3880    0.5260  -41.7570 O.2   230  THR230     -0.2717
    103  CB        28.7690   -0.5060  -43.8830 C.3   230  THR230      0.1784
    104  OG1       29.0240    0.8880  -43.6530 O.3   230  THR230     -0.2211
    105  CG2       29.1340   -0.8530  -45.3030 C.3   230  THR230      0.0376
    106  N         27.7990   -1.1480  -41.2370 N.am  231  ASN231     -0.1960
    107  CA        27.9930   -0.7580  -39.8450 C.3   231  ASN231      0.1819
    108  C         29.1300    0.2740  -39.7700 C.2   231  ASN231      0.2621
    109  O         29.5800    0.8100  -40.7910 O.2   231  ASN231     -0.2715
    110  CB        28.2700   -2.0020  -38.9970 C.3   231  ASN231      0.1195
    111  CG        27.7990   -1.8540  -37.5440 C.2   231  ASN231      0.2630
    112  OD1       28.0190   -0.8250  -36.9020 O.2   231  ASN231     -0.2716
    113  ND2       27.1580   -2.8960  -37.0240 N.am  231  ASN231     -0.0877
    114  N         29.6170    0.5540  -38.5560 N.am  232  THR232     -0.1951
    115  CA        30.6150    1.5960  -38.3250 C.3   232  THR232      0.1897
    116  C         32.0080    1.1710  -38.8070 C.2   232  THR232      0.2313
    117  O         32.2930   -0.0160  -39.0070 O.2   232  THR232     -0.2863
    118  CB        30.6860    1.9380  -36.8400 C.3   232  THR232      0.1794
    119  OG1       31.1010    0.7800  -36.1150 O.3   232  THR232     -0.2208
    120  CG2       29.3210    2.4210  -36.3200 C.3   232  THR232      0.0378
    121  N         30.6410    6.5790  -37.1040 N.3   249  SER249     -0.1202
    122  CA        29.3870    6.6930  -37.8230 C.3   249  SER249      0.2020
    123  C         29.1660    8.1510  -38.2240 C.2   249  SER249      0.2619
    124  O         29.8630    9.0560  -37.7640 O.2   249  SER249     -0.2717
    125  CB        28.2270    6.1860  -36.9590 C.3   249  SER249      0.2103
    126  OG        27.9770    7.1000  -35.9170 O.3   249  SER249     -0.2182
    127  N         28.1670    8.3810  -39.0820 N.am  250  GLY250     -0.1956
    128  CA        27.8400    9.7310  -39.5090 C.3   250  GLY250      0.1869
    129  C         28.6460   10.2030  -40.7030 C.2   250  GLY250      0.2309
    130  O         29.1130    9.3830  -41.5020 O.2   250  GLY250     -0.2863
    131  N         31.7090    8.6280  -42.1390 N.3   253  LEU253     -0.1245
    132  CA        31.5490    7.3060  -42.7260 C.3   253  LEU253      0.1561
    133  C         30.9730    7.3590  -44.1430 C.2   253  LEU253      0.2260
    134  O         31.0340    6.3530  -44.8600 O.2   253  LEU253     -0.2867
    135  CB        30.6480    6.4480  -41.8120 C.3   253  LEU253      0.0270
    136  CG        30.2560    5.0080  -42.1980 C.3   253  LEU253      0.0019
    137  CD1       31.4750    4.0600  -42.2810 C.3   253  LEU253      0.0001
    138  CD2       29.2120    4.4750  -41.2430 C.3   253  LEU253      0.0001
    139  N         23.4630    1.9540  -45.6640 N.3   277  VAL277     -0.1231
    140  CA        23.4910    2.5940  -44.3530 C.3   277  VAL277      0.1692
    141  C         24.8790    3.1760  -44.1370 C.2   277  VAL277      0.2593
    142  O         25.8840    2.5590  -44.5020 O.2   277  VAL277     -0.2718
    143  CB        23.1600    1.6110  -43.2090 C.3   277  VAL277      0.0266
    144  CG1       22.7990    2.3800  -41.9250 C.3   277  VAL277      0.0020
    145  CG2       22.0730    0.6480  -43.6100 C.3   277  VAL277      0.0020
    146  N         24.9350    4.3650  -43.5400 N.am  278  GLY278     -0.1942
    147  CA        26.2040    4.9250  -43.1400 C.3   278  GLY278      0.2014
    148  C         26.4990    6.2830  -43.7340 C.2   278  GLY278      0.2639
    149  O         26.8320    6.3830  -44.9200 O.2   278  GLY278     -0.2714
    150  N         26.4010    7.3340  -42.9160 N.am  279  GLY279     -0.1939
    151  CA        26.7010    8.6680  -43.3970 C.3   279  GLY279      0.2014
    152  C         25.6450    9.3210  -44.2680 C.2   279  GLY279      0.2638
    153  O         25.9480   10.2900  -44.9620 O.2   279  GLY279     -0.2714
    154  N         24.4180    8.8140  -44.2750 N.am  280  ILE280     -0.1977
    155  CA        23.3390    9.4270  -45.0490 C.3   280  ILE280      0.1596
    156  C         22.7230   10.5470  -44.2150 C.2   280  ILE280      0.2287
    157  O         22.1710   10.2920  -43.1440 O.2   280  ILE280     -0.2864
    158  CB        22.2850    8.3860  -45.4390 C.3   280  ILE280      0.0276
    159  CG1       22.9350    7.2770  -46.2630 C.3   280  ILE280      0.0022
    160  CG2       21.1400    9.0410  -46.1880 C.3   280  ILE280      0.0022
    161  CD1       22.0300    6.0400  -46.4430 C.3   280  ILE280      0.0001
    162  N         18.9840    3.2630  -44.2930 N.3   298  GLN298     -0.1231
    163  CA        18.8290    3.4170  -42.8520 C.3   298  GLN298      0.1698
    164  C         19.7290    4.5390  -42.3640 C.2   298  GLN298      0.2592
    165  O         20.7580    4.8470  -42.9770 O.2   298  GLN298     -0.2718
    166  CB        19.1480    2.1360  -42.0820 C.3   298  GLN298      0.0381
    167  CG        18.4330    0.9120  -42.5850 C.3   298  GLN298      0.0905
    168  CD        18.7440   -0.3250  -41.7540 C.2   298  GLN298      0.2608
    169  OE1       19.7040   -0.3500  -40.9690 O.2   298  GLN298     -0.2717
    170  NE2       17.9320   -1.3570  -41.9220 N.am  298  GLN298     -0.0878
    171  N         19.3350    5.1360  -41.2440 N.am  299  ILE299     -0.1966
    172  CA        20.0580    6.2450  -40.6330 C.3   299  ILE299      0.1727
    173  C         20.0810    6.0490  -39.1220 C.2   299  ILE299      0.2616
    174  O         19.0940    5.6040  -38.5300 O.2   299  ILE299     -0.2715
    175  CB        19.4060    7.5970  -40.9920 C.3   299  ILE299      0.0290
    176  CG1       19.7420    7.9950  -42.4240 C.3   299  ILE299      0.0022
    177  CG2       19.8380    8.6850  -40.0360 C.3   299  ILE299      0.0023
    178  CD1       19.1050    9.3420  -42.8580 C.3   299  ILE299      0.0001
    179  N         21.2140    6.3710  -38.5000 N.am  300  TYR300     -0.1960
    180  CA        21.2570    6.5970  -37.0600 C.3   300  TYR300      0.1771
    181  C         21.7750    7.9940  -36.7400 C.2   300  TYR300      0.2620
    182  O         21.0460    8.8050  -36.1490 O.2   300  TYR300     -0.2715
    183  CB        22.1110    5.5150  -36.3620 C.3   300  TYR300      0.0574
    184  CG        22.1680    5.5760  -34.8360 C.ar  300  TYR300     -0.0198
    185  CD1       22.5140    6.7460  -34.1670 C.ar  300  TYR300     -0.0009
    186  CD2       21.9130    4.4470  -34.0680 C.ar  300  TYR300     -0.0009
    187  CE1       22.5630    6.8100  -32.7610 C.ar  300  TYR300      0.0417
    188  CE2       21.9600    4.4950  -32.6660 C.ar  300  TYR300      0.0417
    189  CZ        22.2880    5.6830  -32.0230 C.ar  300  TYR300      0.1957
    190  OH        22.3540    5.7460  -30.6460 O.3   300  TYR300     -0.2866
    191  N         23.0160    8.2920  -37.1200 N.am  301  SER301     -0.1936
    192  CA        23.7070    9.4790  -36.6200 C.3   301  SER301      0.2055
    193  C         23.0100   10.7700  -37.0320 C.2   301  SER301      0.2642
    194  O         22.9380   11.7170  -36.2420 O.2   301  SER301     -0.2714
    195  CB        25.1680    9.4760  -37.1050 C.3   301  SER301      0.2130
    196  OG        25.8550    8.3310  -36.6230 O.3   301  SER301     -0.2179
    197  N         22.5100   10.8450  -38.2660 N.am  302  ALA302     -0.1977
    198  CA        21.8920   12.0930  -38.7110 C.3   302  ALA302      0.1597
    199  C         20.5970   12.3880  -37.9620 C.2   302  ALA302      0.2287
    200  O         20.1640   13.5430  -37.9230 O.2   302  ALA302     -0.2864
    201  CB        21.6280   12.0620  -40.2180 C.3   302  ALA302      0.0319
@<TRIPOS>BOND
     1   161   159    1
     2   159   158    1
     3   160   158    1
     4   139   140    1
     5   158   155    1
     6   105   103    1
     7   155   154    1
     8   155   156    1
     9   153   152    2
    10   149   148    2
    11   134   133    2
    12    99   100    1
    13   142   141    2
    14   140   141    1
    15   140   143    1
    16   162   163    1
    17   154   152   am
    18   152   151    1
    19   156   157    2
    20   133   132    1
    21   141   146   am
    22   103   104    1
    23   103   100    1
    24   148   147    1
    25   148   150   am
    26   145   143    1
    27   100   101    1
    28   146   147    1
    29   151   150    1
    30   143   144    1
    31   165   164    2
    32   178   176    1
    33   163   164    1
    34   163   166    1
    35   132   131    1
    36   132   135    1
    37   167   166    1
    38   167   168    1
    39   176   175    1
    40   164   171   am
    41    90    91    1
    42   137   136    1
    43   136   135    1
    44   136   138    1
    45    91    92    1
    46    91    94    1
    47   101   102    2
    48   101   106   am
    49    92    93    2
    50   170   168   am
    51   168   169    2
    52   130   129    2
    53   171   172    1
    54   106   107    1
    55   175   172    1
    56   175   177    1
    57    94    95    1
    58    95    96    1
    59   109   108    2
    60   129   128    1
    61   172   173    1
    62   201   198    1
    63   107   108    1
    64   107   110    1
    65   108   114   am
    66    96    97    1
    67   128   127    1
    68    97    98    1
    69   173   174    2
    70   173   179   am
    71   127   123   am
    72   117   116    2
    73   110   111    1
    74   116   115    1
    75   198   197    1
    76   198   199    1
    77   114   115    1
    78     5     2    1
    79   179   180    1
    80     1     2    1
    81   115   118    1
    82     2     3    1
    83   197   193   am
    84   123   122    1
    85   123   124    2
    86   199   200    2
    87   122   121    1
    88   122   125    1
    89    84    83    1
    90    84    85    2
    91    82    83    1
    92    83    86    1
    93    88    87    2
    94   111   113   am
    95   111   112    2
    96   191   181   am
    97   191   192    1
    98   195   196    1
    99   195   192    1
   100   180   181    1
   101   180   183    1
   102   193   192    1
   103   193   194    2
   104   125   126    1
   105    81    79   am
   106     3     6   am
   107     3     4    2
   108   118   120    1
   109   118   119    1
   110     6     7    1
   111   181   182    2
   112    87    86    1
   113    87    89   am
   114   183   184    1
   115    79    78    1
   116    79    80    2
   117    10     7    1
   118    78    75    1
   119    75    74    1
   120    75    76    1
   121     7     8    1
   122    39    40    1
   123   184   185   ar
   124   184   186   ar
   125     9     8    2
   126    42    41    2
   127     8    11   am
   128    76    77    2
   129   185   187   ar
   130   186   188   ar
   131    41    40    1
   132    40    43    1
   133    43    44    1
   134    44    45    1
   135    44    46    1
   136    11    12    1
   137    29    28    1
   138   187   189   ar
   139   188   189   ar
   140    54    52   am
   141    73    71   ar
   142    73    72   ar
   143    12    13    1
   144   189   190    1
   145    71    69   ar
   146    28    30    1
   147    28    25    1
   148    24    25    1
   149    72    70   ar
   150    25    26    1
   151    13    14    2
   152    47    48    1
   153    50    49    2
   154    52    53    2
   155    52    51    1
   156    69    68   ar
   157    51    48    1
   158    70    68   ar
   159    48    49    1
   160    26    27    2
   161    68    67    1
   162    15    16    1
   163    37    36    1
   164    16    17    1
   165    16    19    1
   166    18    17    2
   167    22    23    1
   168    22    21    1
   169    20    19    1
   170    20    21    1
   171    67    64    1
   172    55    56    1
   173    63    64    1
   174    64    65    1
   175    36    38    1
   176    36    35    1
   177    60    59    1
   178    60    61    1
   179    59    56    1
   180    61    62    1
   181    56    57    1
   182    33    32    1
   183    33    34    2
   184    32    35    1
   185    32    31    1
   186    57    58    2
   187    65    66    2
