@<TRIPOS>MOLECULE
tmp/6b8uA00.pdb
 211 202 0 0 0
SMALL
GASTEIGER

@<TRIPOS>ATOM
      1  N        -16.8420    5.1620  -17.7590 N.3    15  ILE15      -0.1245
      2  CA       -16.1450    5.8390  -16.6530 C.3    15  ILE15       0.1561
      3  C        -15.7990    4.8960  -15.4780 C.2    15  ILE15       0.2260
      4  O        -15.3210    5.3490  -14.4350 O.2    15  ILE15      -0.2867
      5  CB       -16.8970    7.1100  -16.1630 C.3    15  ILE15       0.0252
      6  CG1      -18.1690    6.7610  -15.3740 C.3    15  ILE15       0.0019
      7  CG2      -17.1770    8.0910  -17.2870 C.3    15  ILE15       0.0019
      8  CD1      -18.1870    7.2640  -13.9730 C.3    15  ILE15       0.0001
      9  N        -19.9780    1.1520  -15.7140 N.3    23  VAL23      -0.1245
     10  CA       -20.5820    2.4760  -15.5370 C.3    23  VAL23       0.1561
     11  C        -20.1250    3.3710  -16.6710 C.2    23  VAL23       0.2260
     12  O        -18.9180    3.5040  -16.9180 O.2    23  VAL23      -0.2867
     13  CB       -20.3550    3.1180  -14.1330 C.3    23  VAL23       0.0252
     14  CG1      -20.9200    4.5320  -14.0650 C.3    23  VAL23       0.0019
     15  CG2      -20.9620    2.2560  -13.0320 C.3    23  VAL23       0.0019
     16  N        -25.6910    8.9000  -15.2550 N.3    33  ALA33      -0.1231
     17  CA       -24.7200    7.8450  -15.0320 C.3    33  ALA33       0.1694
     18  C        -25.5320    6.5870  -15.2710 C.2    33  ALA33       0.2592
     19  O        -26.6700    6.4960  -14.8000 O.2    33  ALA33      -0.2718
     20  CB       -24.2040    7.8950  -13.6040 C.3    33  ALA33       0.0304
     21  N        -25.0220    5.6810  -16.1070 N.am   34  VAL34      -0.1966
     22  CA       -25.7200    4.4330  -16.4750 C.3    34  VAL34       0.1727
     23  C        -24.8780    3.2340  -15.9810 C.2    34  VAL34       0.2616
     24  O        -23.7160    3.1150  -16.3740 O.2    34  VAL34      -0.2715
     25  CB       -25.9700    4.3350  -18.0280 C.3    34  VAL34       0.0290
     26  CG1      -26.8860    3.1580  -18.3850 C.3    34  VAL34       0.0023
     27  CG2      -26.4960    5.6450  -18.6200 C.3    34  VAL34       0.0023
     28  N        -25.4450    2.3720  -15.1240 N.am   35  LYS35      -0.1977
     29  CA       -24.7490    1.1600  -14.6760 C.3    35  LYS35       0.1596
     30  C        -25.4060    0.0030  -15.3860 C.2    35  LYS35       0.2287
     31  O        -26.6160   -0.2050  -15.2330 O.2    35  LYS35      -0.2864
     32  CB       -24.8130    0.9470  -13.1610 C.3    35  LYS35       0.0298
     33  CG       -23.8950   -0.2000  -12.6970 C.3    35  LYS35       0.0038
     34  CD       -24.4710   -0.9280  -11.4400 C.3    35  LYS35       0.0206
     35  CE       -24.4100   -0.1430  -10.1720 C.3    35  LYS35       0.1093
     36  NZ       -24.5360   -1.0130   -8.9790 N.3    35  LYS35      -0.1314
     37  N        -31.6410   -4.0370   -6.0610 N.3    53  GLU53      -0.1245
     38  CA       -31.0020   -2.7240   -6.1200 C.3    53  GLU53       0.1567
     39  C        -32.0040   -1.6290   -6.5130 C.2    53  GLU53       0.2260
     40  O        -31.9390   -0.5280   -5.9660 O.2    53  GLU53      -0.2867
     41  CB       -29.7950   -2.7370   -7.0700 C.3    53  GLU53       0.0388
     42  CG       -28.8990   -1.5300   -6.8940 C.3    53  GLU53       0.1160
     43  CD       -27.5930   -1.4880   -7.6590 C.2    53  GLU53       0.3649
     44  OE1      -27.1600   -2.5350   -8.1930 O.co2  53  GLU53      -0.2457
     45  OE2      -26.9820   -0.3970   -7.6970 O.co2  53  GLU53      -0.2457
     46  N        -34.4250   -0.8530   -3.5010 N.3    56  VAL56      -0.1231
     47  CA       -33.8260    0.0050   -2.4880 C.3    56  VAL56       0.1692
     48  C        -33.8310    1.4280   -3.0050 C.2    56  VAL56       0.2591
     49  O        -34.2750    2.3360   -2.3060 O.2    56  VAL56      -0.2718
     50  CB       -32.3800   -0.4690   -2.1440 C.3    56  VAL56       0.0266
     51  CG1      -31.6260    0.5690   -1.3100 C.3    56  VAL56       0.0020
     52  CG2      -32.3740   -1.8460   -1.4500 C.3    56  VAL56       0.0020
     53  N        -33.3160    1.6200   -4.2410 N.am   57  LEU57      -0.1980
     54  CA       -33.1490    2.9160   -4.8870 C.3    57  LEU57       0.1596
     55  C        -34.4650    3.6800   -5.0770 C.2    57  LEU57       0.2287
     56  O        -34.5080    4.8710   -4.7460 O.2    57  LEU57      -0.2864
     57  CB       -32.3590    2.7900   -6.1950 C.3    57  LEU57       0.0297
     58  CG       -30.8530    2.5820   -6.0310 C.3    57  LEU57       0.0022
     59  CD1      -30.1770    2.2810   -7.3670 C.3    57  LEU57       0.0001
     60  CD2      -30.1890    3.7710   -5.3550 C.3    57  LEU57       0.0001
     61  N        -35.8360    5.8970   -2.2130 N.3    60  THR60      -0.1218
     62  CA       -35.0490    7.0660   -1.7930 C.3    60  THR60       0.1862
     63  C        -35.3130    8.3600   -2.5670 C.2    60  THR60       0.2287
     64  O        -35.1910    8.4030   -3.8060 O.2    60  THR60      -0.2866
     65  CB       -33.5310    6.7420   -1.8190 C.3    60  THR60       0.1770
     66  OG1      -33.0910    6.5890   -3.1830 O.3    60  THR60      -0.2211
     67  CG2      -33.1690    5.5100   -0.9830 C.3    60  THR60       0.0375
     68  N        -28.7830   11.7620   -1.0630 N.3    65  ILE65      -0.1231
     69  CA       -28.7580   10.4300   -1.6650 C.3    65  ILE65       0.1692
     70  C        -28.6190   10.6110   -3.1600 C.2    65  ILE65       0.2591
     71  O        -29.3770   11.3600   -3.7660 O.2    65  ILE65      -0.2718
     72  CB       -30.0010    9.5370   -1.2990 C.3    65  ILE65       0.0266
     73  CG1      -30.3600    9.6010    0.2110 C.3    65  ILE65       0.0019
     74  CG2      -29.8210    8.0720   -1.7730 C.3    65  ILE65       0.0020
     75  CD1      -29.2430    8.9210    1.2400 C.3    65  ILE65       0.0001
     76  N        -27.7040    9.8710   -3.7710 N.am   66  LEU66      -0.1980
     77  CA       -27.5280    9.8730   -5.2110 C.3    66  LEU66       0.1596
     78  C        -28.9080    9.6610   -5.8210 C.2    66  LEU66       0.2287
     79  O        -29.6330    8.7680   -5.3850 O.2    66  LEU66      -0.2864
     80  CB       -26.5400    8.7610   -5.6230 C.3    66  LEU66       0.0297
     81  CG       -26.2710    8.6290   -7.1150 C.3    66  LEU66       0.0022
     82  CD1      -25.4410    9.7900   -7.6610 C.3    66  LEU66       0.0001
     83  CD2      -25.6430    7.3190   -7.4200 C.3    66  LEU66       0.0001
     84  N        -29.3070    0.5690  -14.6600 N.3    79  ILE79      -0.1245
     85  CA       -29.7920    1.4600  -13.6050 C.3    79  ILE79       0.1561
     86  C        -29.2240    2.8400  -13.9260 C.2    79  ILE79       0.2260
     87  O        -28.0050    2.9820  -14.1340 O.2    79  ILE79      -0.2867
     88  CB       -29.4600    1.0060  -12.1580 C.3    79  ILE79       0.0252
     89  CG1      -29.9850   -0.4220  -11.9030 C.3    79  ILE79       0.0019
     90  CG2      -30.0430    2.0040  -11.1060 C.3    79  ILE79       0.0019
     91  CD1      -29.7340   -0.9830  -10.5430 C.3    79  ILE79       0.0001
     92  N        -28.8840    6.9320  -12.8380 N.3    81  THR81      -0.1203
     93  CA       -28.8840    7.9230  -11.7620 C.3    81  THR81       0.1994
     94  C        -28.4320    9.2390  -12.3540 C.2    81  THR81       0.2618
     95  O        -27.9320    9.2710  -13.4800 O.2    81  THR81      -0.2717
     96  CB       -27.9570    7.5520  -10.5720 C.3    81  THR81       0.1784
     97  OG1      -26.5900    7.8150  -10.9230 O.3    81  THR81      -0.2211
     98  CG2      -28.1760    6.1370  -10.0390 C.3    81  THR81       0.0376
     99  N        -28.5000   10.3070  -11.5510 N.am   82  GLN82      -0.1965
    100  CA       -28.0060   11.6290  -11.9280 C.3    82  GLN82       0.1733
    101  C        -26.5040   11.5610  -12.1940 C.2    82  GLN82       0.2616
    102  O        -25.8240   10.6120  -11.7500 O.2    82  GLN82      -0.2715
    103  CB       -28.2890   12.6500  -10.8050 C.3    82  GLN82       0.0408
    104  CG       -27.3610   12.5250   -9.6000 C.3    82  GLN82       0.0908
    105  CD       -27.7070   13.4550   -8.4900 C.2    82  GLN82       0.2608
    106  OE1      -28.0360   13.0320   -7.3750 O.2    82  GLN82      -0.2717
    107  NE2      -27.6630   14.7390   -8.7720 N.am   82  GLN82      -0.0878
    108  N        -25.9940   12.5790  -12.8960 N.am   83  TRP83      -0.1960
    109  CA       -24.5740   12.7250  -13.1560 C.3    83  TRP83       0.1771
    110  C        -24.0770   13.8480  -12.2710 C.2    83  TRP83       0.2619
    111  O        -24.5600   14.9730  -12.3840 O.2    83  TRP83      -0.2715
    112  CB       -24.3130   13.0190  -14.6250 C.3    83  TRP83       0.0590
    113  CG       -22.8550   13.1320  -14.9380 C.ar   83  TRP83       0.0006
    114  CD1      -22.1610   14.2750  -15.1830 C.ar   83  TRP83       0.0946
    115  CD2      -21.8950   12.0700  -14.9430 C.ar   83  TRP83       0.0152
    116  NE1      -20.8300   13.9900  -15.3670 N.ar   83  TRP83      -0.2442
    117  CE2      -20.6400   12.6410  -15.2410 C.ar   83  TRP83       0.0810
    118  CE3      -21.9770   10.6790  -14.7600 C.ar   83  TRP83       0.0012
    119  CZ2      -19.4710   11.8720  -15.3530 C.ar   83  TRP83       0.0191
    120  CZ3      -20.8190    9.9160  -14.8720 C.ar   83  TRP83       0.0001
    121  CH2      -19.5870   10.5100  -15.1700 C.ar   83  TRP83       0.0015
    122  N        -23.1620   13.5370  -11.3530 N.am   84  CYS84      -0.1968
    123  CA       -22.6600   14.5260  -10.4040 C.3    84  CYS84       0.1712
    124  C        -21.4870   15.3600  -10.9340 C.2    84  CYS84       0.2296
    125  O        -20.7460   14.9180  -11.8130 O.2    84  CYS84      -0.2864
    126  CB       -22.3100   13.8680   -9.0710 C.3    84  CYS84       0.0983
    127  SG       -23.6420   12.8820   -8.3280 S.3    84  CYS84      -0.0798
    128  N        -17.9780   17.1350   -9.7060 N.3    86  GLY86      -0.1225
    129  CA       -16.9340   17.1580   -8.6940 C.3    86  GLY86       0.1811
    130  C        -16.2470   15.8220   -8.5510 C.2    86  GLY86       0.2280
    131  O        -16.0270   15.1150   -9.5430 O.2    86  GLY86      -0.2866
    132  N        -31.6150    6.9210    5.1410 N.3   119  LEU119     -0.1245
    133  CA       -31.5390    5.5050    4.7730 C.3   119  LEU119      0.1561
    134  C        -32.0240    4.6070    5.9080 C.2   119  LEU119      0.2260
    135  O        -32.8570    3.7410    5.6690 O.2   119  LEU119     -0.2867
    136  CB       -30.1130    5.0810    4.3500 C.3   119  LEU119      0.0270
    137  CG       -29.5290    5.6830    3.0450 C.3   119  LEU119      0.0019
    138  CD1      -28.1220    5.1780    2.7970 C.3   119  LEU119      0.0001
    139  CD2      -30.4280    5.4160    1.8350 C.3   119  LEU119      0.0001
    140  N        -32.9630    0.9280    5.3360 N.3   124  ILE124     -0.1231
    141  CA       -31.9060    0.6010    4.3900 C.3   124  ILE124      0.1692
    142  C        -30.5660    0.5930    5.1440 C.2   124  ILE124      0.2592
    143  O        -30.1450    1.6330    5.6690 O.2   124  ILE124     -0.2718
    144  CB       -31.8910    1.5920    3.1720 C.3   124  ILE124      0.0266
    145  CG1      -33.1690    1.4680    2.2930 C.3   124  ILE124      0.0019
    146  CG2      -30.6070    1.4380    2.3170 C.3   124  ILE124      0.0020
    147  CD1      -33.4730    2.6460    1.3850 C.3   124  ILE124      0.0001
    148  N        -29.8970   -0.5790    5.1960 N.am  125  ILE125     -0.1966
    149  CA       -28.5370   -0.6790    5.7450 C.3   125  ILE125      0.1727
    150  C        -27.6520   -0.5430    4.5050 C.2   125  ILE125      0.2616
    151  O        -27.8390   -1.3220    3.5610 O.2   125  ILE125     -0.2715
    152  CB       -28.2480   -1.9740    6.5640 C.3   125  ILE125      0.0290
    153  CG1      -29.2360   -2.1130    7.7220 C.3   125  ILE125      0.0022
    154  CG2      -26.8070   -1.9770    7.0940 C.3   125  ILE125      0.0023
    155  CD1      -29.3270   -3.4840    8.3240 C.3   125  ILE125      0.0001
    156  N        -26.7640    0.4910    4.4620 N.am  126  HIS126     -0.1973
    157  CA       -25.8740    0.7400    3.3190 C.3   126  HIS126      0.1656
    158  C        -24.9780   -0.4790    3.0450 C.2   126  HIS126      0.2291
    159  O        -25.0010   -1.0230    1.9380 O.2   126  HIS126     -0.2864
    160  CB       -25.0290    1.9910    3.5440 C.3   126  HIS126      0.0771
    161  CG       -24.3690    2.4930    2.3010 C.ar  126  HIS126      0.0820
    162  ND1      -23.2900    1.8350    1.7390 N.ar  126  HIS126     -0.2267
    163  CD2      -24.6410    3.5930    1.5620 C.ar  126  HIS126      0.1154
    164  CE1      -22.9560    2.5370    0.6640 C.ar  126  HIS126      0.1986
    165  NE2      -23.7280    3.6170    0.5280 N.ar  126  HIS126     -0.2212
    166  N        -20.1310   11.4030   -2.5520 N.3   135  PHE135     -0.1241
    167  CA       -19.7870   12.3370   -3.6110 C.3   135  PHE135      0.1605
    168  C        -20.0490   13.7830   -3.1580 C.2   135  PHE135      0.2264
    169  O        -21.0780   14.0520   -2.5420 O.2   135  PHE135     -0.2867
    170  CB       -20.5470   12.0010   -4.8950 C.3   135  PHE135      0.0534
    171  CG       -19.8500   12.4930   -6.1430 C.ar  135  PHE135     -0.0203
    172  CD1      -19.9410   13.8270   -6.5330 C.ar  135  PHE135     -0.0042
    173  CD2      -19.0790   11.6260   -6.9160 C.ar  135  PHE135     -0.0042
    174  CE1      -19.2620   14.2890   -7.6590 C.ar  135  PHE135     -0.0003
    175  CE2      -18.4180   12.0800   -8.0580 C.ar  135  PHE135     -0.0003
    176  CZ       -18.5310   13.4040   -8.4340 C.ar  135  PHE135     -0.0000
    177  N        -24.7700   10.3860   -1.1330 N.3   144  ILE144     -0.1231
    178  CA       -24.3760    9.0220   -0.7570 C.3   144  ILE144      0.1692
    179  C        -24.9630    8.0570   -1.8150 C.2   144  ILE144      0.2593
    180  O        -26.1070    8.2110   -2.2400 O.2   144  ILE144     -0.2718
    181  CB       -24.8620    8.6360    0.6950 C.3   144  ILE144      0.0266
    182  CG1      -24.2660    9.5400    1.7900 C.3   144  ILE144      0.0019
    183  CG2      -24.6340    7.1500    1.0390 C.3   144  ILE144      0.0020
    184  CD1      -25.0330    9.4460    3.1250 C.3   144  ILE144      0.0001
    185  N        -24.1850    7.0520   -2.1860 N.am  145  GLY145     -0.1942
    186  CA       -24.6110    5.9780   -3.0760 C.3   145  GLY145      0.2014
    187  C        -23.6550    4.8260   -2.9100 C.2   145  GLY145      0.2639
    188  O        -22.9470    4.7510   -1.9120 O.2   145  GLY145     -0.2714
    189  N        -23.6390    3.9260   -3.8500 N.am  146  ASP146     -0.1957
    190  CA       -22.6640    2.8520   -3.8780 C.3   146  ASP146      0.1840
    191  C        -22.1180    2.9230   -5.2790 C.2   146  ASP146      0.2622
    192  O        -22.7700    2.4740   -6.2100 O.2   146  ASP146     -0.2715
    193  CB       -23.2600    1.4770   -3.5200 C.3   146  ASP146      0.1450
    194  CG       -22.2400    0.3410   -3.5700 C.2   146  ASP146      0.3671
    195  OD1      -21.3360    0.3050   -2.6940 O.co2 146  ASP146     -0.2456
    196  OD2      -22.3400   -0.5060   -4.4840 O.co2 146  ASP146     -0.2456
    197  N        -20.9940    3.6420   -5.4230 N.am  147  PHE147     -0.1960
    198  CA       -20.3210    3.9370   -6.6780 C.3   147  PHE147      0.1771
    199  C        -19.3930    2.7820   -7.1790 C.2   147  PHE147      0.2620
    200  O        -18.8460    2.8680   -8.2790 O.2   147  PHE147     -0.2715
    201  CB       -19.5780    5.2870   -6.5450 C.3   147  PHE147      0.0574
    202  CG       -20.4740    6.5010   -6.3180 C.ar  147  PHE147     -0.0200
    203  CD1      -20.9990    6.7800   -5.0620 C.ar  147  PHE147     -0.0042
    204  CD2      -20.7690    7.3760   -7.3570 C.ar  147  PHE147     -0.0042
    205  CE1      -21.8390    7.8870   -4.8570 C.ar  147  PHE147     -0.0003
    206  CE2      -21.5910    8.4980   -7.1400 C.ar  147  PHE147     -0.0003
    207  CZ       -22.1200    8.7400   -5.8900 C.ar  147  PHE147     -0.0000
    208  N        -19.2700    1.7070   -6.3950 N.am  148  GLY148     -0.1954
    209  CA       -18.4050    0.5700   -6.6920 C.3   148  GLY148      0.1869
    210  C        -18.9230   -0.4620   -7.6750 C.2   148  GLY148      0.2309
    211  O        -20.1170   -0.5070   -7.9670 O.2   148  GLY148     -0.2863
@<TRIPOS>BOND
     1    27    25    1
     2    26    25    1
     3    25    22    1
     4     1     2    1
     5     7     5    1
     6    12    11    2
     7    11    10    1
     8     2     5    1
     9     2     3    1
    10    22    21    1
    11    22    23    1
    12    24    23    2
    13     5     6    1
    14    21    18   am
    15    23    28   am
    16     9    10    1
    17    10    13    1
    18     3     4    2
    19    30    31    2
    20    30    29    1
    21     6     8    1
    22   116   117   ar
    23   116   114   ar
    24   119   117   ar
    25   119   121   ar
    26    18    17    1
    27    18    19    2
    28    16    17    1
    29   117   115   ar
    30   114   113   ar
    31   121   120   ar
    32    28    29    1
    33    17    20    1
    34   115   113   ar
    35   115   118   ar
    36   113   112    1
    37   120   118   ar
    38    29    32    1
    39    84    85    1
    40   112   109    1
    41    87    86    2
    42    13    14    1
    43    13    15    1
    44    86    85    1
    45    85    88    1
    46    95    94    2
    47    32    33    1
    48   109   108    1
    49   109   110    1
    50   108   101   am
    51    92    93    1
    52    33    34    1
    53   111   110    2
    54    94    93    1
    55    94    99   am
    56   110   122   am
    57   101   100    1
    58   101   102    2
    59    88    89    1
    60    88    90    1
    61   100    99    1
    62   100   103    1
    63    89    91    1
    64   125   124    2
    65    93    96    1
    66    34    35    1
    67   122   123    1
    68   124   123    1
    69    97    96    1
    70   103   104    1
    71    96    98    1
    72   123   126    1
    73    35    36    1
    74   128   129    1
    75   104   105    1
    76   131   130    2
    77   126   127    1
    78   107   105   am
    79   129   130    1
    80   105   106    2
    81   176   175   ar
    82   176   174   ar
    83   200   199    2
    84    44    43   ar
    85   175   173   ar
    86   211   210    2
    87    45    43   ar
    88   210   209    1
    89    82    81    1
    90    43    42    1
    91   174   172   ar
    92    83    81    1
    93    59    58    1
    94   204   206   ar
    95   204   202   ar
    96   199   198    1
    97   199   208   am
    98   206   207   ar
    99    81    80    1
   100    41    42    1
   101    41    38    1
   102   173   171   ar
   103   209   208    1
   104   198   201    1
   105   198   197    1
   106   201   202    1
   107   172   171   ar
   108    39    38    1
   109    39    40    2
   110   202   203   ar
   111   192   191    2
   112    57    58    1
   113    57    54    1
   114   171   170    1
   115    38    37    1
   116    58    60    1
   117   207   205   ar
   118    78    79    2
   119    78    77    1
   120    80    77    1
   121   197   191   am
   122   191   190    1
   123    77    76    1
   124    55    54    1
   125    55    56    2
   126   203   205   ar
   127   170   167    1
   128    54    53    1
   129   196   194   ar
   130    53    48   am
   131   190   189    1
   132   190   193    1
   133   189   187   am
   134    64    63    2
   135    76    70   am
   136    71    70    2
   137   167   168    1
   138   167   166    1
   139   194   193    1
   140   194   195   ar
   141    46    47    1
   142    66    65    1
   143    70    69    1
   144   168   169    2
   145   186   187    1
   146   186   185    1
   147    48    47    1
   148    48    49    2
   149   187   188    2
   150    63    62    1
   151    47    50    1
   152   180   179    2
   153    61    62    1
   154   185   179   am
   155    50    52    1
   156    50    51    1
   157    65    62    1
   158    65    67    1
   159   179   178    1
   160    74    72    1
   161    69    72    1
   162    69    68    1
   163    72    73    1
   164   177   178    1
   165   178   181    1
   166    73    75    1
   167   165   164   ar
   168   165   163   ar
   169   164   162   ar
   170   181   183    1
   171   181   182    1
   172   147   145    1
   173   163   161   ar
   174   162   161   ar
   175   182   184    1
   176   139   137    1
   177   159   158    2
   178   145   144    1
   179   161   160    1
   180   146   144    1
   181   138   137    1
   182   158   157    1
   183   137   136    1
   184   144   141    1
   185   157   160    1
   186   157   156    1
   187   151   150    2
   188   136   133    1
   189   141   142    1
   190   141   140    1
   191   156   150   am
   192   150   149    1
   193   133   132    1
   194   133   134    1
   195   142   148   am
   196   142   143    2
   197   148   149    1
   198   135   134    2
   199   149   152    1
   200   152   154    1
   201   152   153    1
   202   153   155    1
