@<TRIPOS>MOLECULE
tmp/6b8uB00.pdb
 207 196 0 0 0
SMALL
GASTEIGER

@<TRIPOS>ATOM
      1  N        -43.9970   30.7320    4.4070 N.3    17  ILE17      -0.1245
      2  CA       -43.3070   31.4800    3.3580 C.3    17  ILE17       0.1561
      3  C        -44.2600   31.9810    2.2750 C.2    17  ILE17       0.2260
      4  O        -43.9220   32.9360    1.5900 O.2    17  ILE17      -0.2867
      5  CB       -42.0830   30.7170    2.7760 C.3    17  ILE17       0.0252
      6  CG1      -42.4390   29.2790    2.3440 C.3    17  ILE17       0.0019
      7  CG2      -40.8990   30.7450    3.7640 C.3    17  ILE17       0.0019
      8  CD1      -41.4270   28.6220    1.3970 C.3    17  ILE17       0.0001
      9  N        -49.7490   28.1440   -1.5740 N.3    20  GLY20      -0.1225
     10  CA       -49.5950   27.1080   -2.5890 C.3    20  GLY20       0.1811
     11  C        -50.7960   27.0490   -3.5110 C.2    20  GLY20       0.2280
     12  O        -51.4450   28.0780   -3.7630 O.2    20  GLY20      -0.2866
     13  N        -47.6750   27.3770    2.2390 N.3    25  VAL25      -0.1245
     14  CA       -46.3060   26.8590    2.1760 C.3    25  VAL25       0.1561
     15  C        -45.4730   27.3600    3.3710 C.2    25  VAL25       0.2260
     16  O        -45.4560   28.5590    3.6590 O.2    25  VAL25      -0.2867
     17  CB       -45.6100   27.1260    0.8140 C.3    25  VAL25       0.0252
     18  CG1      -44.3110   26.3490    0.7030 C.3    25  VAL25       0.0019
     19  CG2      -46.5230   26.7770   -0.3630 C.3    25  VAL25       0.0019
     20  N        -39.4880   21.9660    2.3490 N.3    35  ALA35      -0.1231
     21  CA       -40.5480   22.9220    2.0840 C.3    35  ALA35       0.1694
     22  C        -41.8140   22.0740    2.2520 C.2    35  ALA35       0.2592
     23  O        -41.8620   20.9310    1.7880 O.2    35  ALA35      -0.2718
     24  CB       -40.4290   23.4770    0.6600 C.3    35  ALA35       0.0304
     25  N        -42.7730   22.5770    3.0210 N.am   36  VAL36      -0.1966
     26  CA       -44.0150   21.8480    3.3070 C.3    36  VAL36       0.1727
     27  C        -45.2120   22.6430    2.7970 C.2    36  VAL36       0.2616
     28  O        -45.4120   23.7690    3.2250 O.2    36  VAL36      -0.2715
     29  CB       -44.1680   21.5030    4.8270 C.3    36  VAL36       0.0290
     30  CG1      -45.3810   20.6010    5.0790 C.3    36  VAL36       0.0023
     31  CG2      -42.9020   20.8540    5.3830 C.3    36  VAL36       0.0023
     32  N        -46.0130   22.0580    1.9190 N.am   37  LYS37      -0.1977
     33  CA       -47.2470   22.7060    1.4540 C.3    37  LYS37       0.1596
     34  C        -48.4090   21.9770    2.1340 C.2    37  LYS37       0.2287
     35  O        -48.6330   20.7930    1.8730 O.2    37  LYS37      -0.2864
     36  CB       -47.3810   22.6420   -0.0710 C.3    37  LYS37       0.0298
     37  CG       -48.4580   23.5510   -0.5960 C.3    37  LYS37       0.0038
     38  CD       -49.0270   23.1510   -1.9060 C.3    37  LYS37       0.0206
     39  CE       -48.1300   23.4490   -3.0770 C.3    37  LYS37       0.1093
     40  NZ       -48.8480   23.3770   -4.3780 N.3    37  LYS37      -0.1314
     41  N        -51.9950   16.3520   -7.3990 N.3    51  GLU51      -0.1245
     42  CA       -50.6830   16.9830   -7.2780 C.3    51  GLU51       0.1567
     43  C        -49.6050   15.9670   -6.9010 C.2    51  GLU51       0.2260
     44  O        -48.4710   16.0570   -7.3970 O.2    51  GLU51      -0.2867
     45  CB       -50.7160   18.1340   -6.2920 C.3    51  GLU51       0.0388
     46  CG       -49.5100   19.0390   -6.4480 C.3    51  GLU51       0.1160
     47  CD       -49.4810   20.3260   -5.6590 C.2    51  GLU51       0.3649
     48  OE1      -50.5520   20.7760   -5.1890 O.co2  51  GLU51      -0.2457
     49  OE2      -48.3820   20.9150   -5.5580 O.co2  51  GLU51      -0.2457
     50  N        -48.7360   13.7030  -10.0180 N.3    54  VAL54      -0.1231
     51  CA       -47.8180   14.3480  -10.9510 C.3    54  VAL54       0.1692
     52  C        -46.3990   14.3030  -10.3670 C.2    54  VAL54       0.2591
     53  O        -45.4590   13.8500  -11.0260 O.2    54  VAL54      -0.2718
     54  CB       -48.2690   15.8170  -11.2380 C.3    54  VAL54       0.0266
     55  CG1      -47.1880   16.6000  -11.9970 C.3    54  VAL54       0.0020
     56  CG2      -49.6030   15.8640  -11.9800 C.3    54  VAL54       0.0020
     57  N        -46.2610   14.8010   -9.1320 N.am   55  LEU55      -0.1980
     58  CA       -44.9900   14.9210   -8.4420 C.3    55  LEU55       0.1596
     59  C        -44.2550   13.6040   -8.2690 C.2    55  LEU55       0.2287
     60  O        -43.0570   13.5640   -8.5530 O.2    55  LEU55      -0.2864
     61  CB       -45.1670   15.6390   -7.1000 C.3    55  LEU55       0.0297
     62  CG       -45.3620   17.1480   -7.2010 C.3    55  LEU55       0.0022
     63  CD1      -45.7200   17.7430   -5.8550 C.3    55  LEU55       0.0001
     64  CD2      -44.1130   17.8580   -7.8000 C.3    55  LEU55       0.0001
     65  N        -41.8830   12.1980  -10.9670 N.3    58  THR58      -0.1218
     66  CA       -40.6710   12.9550  -11.3000 C.3    58  THR58       0.1862
     67  C        -39.4330   12.6380  -10.4520 C.2    58  THR58       0.2287
     68  O        -39.4790   12.6810   -9.2040 O.2    58  THR58      -0.2866
     69  CB       -40.9550   14.4940  -11.2680 C.3    58  THR58       0.1770
     70  OG1      -41.1590   14.9460   -9.9200 O.3    58  THR58      -0.2211
     71  CG2      -42.1380   14.8980  -12.1450 C.3    58  THR58       0.0375
     72  N        -35.8520   19.2800  -11.7740 N.3    63  ILE63      -0.1231
     73  CA       -37.2130   19.3370  -11.2370 C.3    63  ILE63       0.1692
     74  C        -37.1540   19.3770   -9.6900 C.2    63  ILE63       0.2591
     75  O        -36.4070   18.6070   -9.0790 O.2    63  ILE63      -0.2718
     76  CB       -38.0700   18.1560  -11.7760 C.3    63  ILE63       0.0266
     77  CG1      -38.0870   18.1140  -13.3450 C.3    63  ILE63       0.0019
     78  CG2      -39.5040   18.1190  -11.1640 C.3    63  ILE63       0.0020
     79  CD1      -38.6690   19.2870  -14.0510 C.3    63  ILE63       0.0001
     80  N        -37.9080   20.3090   -9.0690 N.am   64  LEU64      -0.1980
     81  CA       -37.9570   20.4370   -7.6230 C.3    64  LEU64       0.1596
     82  C        -38.1960   19.0370   -7.0500 C.2    64  LEU64       0.2287
     83  O        -39.0520   18.3150   -7.5550 O.2    64  LEU64      -0.2864
     84  CB       -39.0510   21.4260   -7.2100 C.3    64  LEU64       0.0297
     85  CG       -39.2820   21.6230   -5.7150 C.3    64  LEU64       0.0022
     86  CD1      -38.1630   22.4290   -5.0830 C.3    64  LEU64       0.0001
     87  CD2      -40.6290   22.2600   -5.4700 C.3    64  LEU64       0.0001
     88  N        -47.6880   18.1410    1.3710 N.3    77  ILE77      -0.1245
     89  CA       -46.7590   17.7220    0.3160 C.3    77  ILE77       0.1561
     90  C        -45.3980   18.3020    0.7050 C.2    77  ILE77       0.2260
     91  O        -45.2940   19.5090    0.9630 O.2    77  ILE77      -0.2867
     92  CB       -47.1750   18.1270   -1.1370 C.3    77  ILE77       0.0252
     93  CG1      -48.5840   17.6260   -1.4650 C.3    77  ILE77       0.0019
     94  CG2      -46.1320   17.6410   -2.1560 C.3    77  ILE77       0.0019
     95  CD1      -49.0800   18.0320   -2.8120 C.3    77  ILE77       0.0001
     96  N        -41.2660   18.7620   -0.1900 N.3    79  THR79      -0.1203
     97  CA       -40.2330   18.8090   -1.2310 C.3    79  THR79       0.1994
     98  C        -38.9500   19.2730   -0.5590 C.2    79  THR79       0.2618
     99  O        -38.9840   19.7300    0.5870 O.2    79  THR79      -0.2717
    100  CB       -40.5650   19.7770   -2.4030 C.3    79  THR79       0.1784
    101  OG1      -40.3240   21.1250   -2.0020 O.3    79  THR79      -0.2211
    102  CG2      -41.9590   19.5840   -2.9930 C.3    79  THR79       0.0376
    103  N        -37.8390   19.2580   -1.3050 N.am   80  GLN80      -0.1965
    104  CA       -36.5500   19.7600   -0.8510 C.3    80  GLN80       0.1733
    105  C        -36.6460   21.2600   -0.5770 C.2    80  GLN80       0.2616
    106  O        -37.5690   21.9260   -1.0500 O.2    80  GLN80      -0.2715
    107  CB       -35.4690   19.5040   -1.9220 C.3    80  GLN80       0.0408
    108  CG       -35.5140   20.4640   -3.1010 C.3    80  GLN80       0.0908
    109  CD       -34.5230   20.1320   -4.1590 C.2    80  GLN80       0.2608
    110  OE1      -34.8920   19.8410   -5.3020 O.2    80  GLN80      -0.2717
    111  NE2      -33.2470   20.1840   -3.8110 N.am   80  GLN80      -0.0878
    112  N        -35.6770   21.7790    0.1860 N.am   81  TRP81      -0.1960
    113  CA       -35.5550   23.1900    0.4890 C.3    81  TRP81       0.1771
    114  C        -34.3780   23.7140   -0.3120 C.2    81  TRP81       0.2619
    115  O        -33.2560   23.2440   -0.1380 O.2    81  TRP81      -0.2715
    116  CB       -35.3530   23.4100    1.9830 C.3    81  TRP81       0.0590
    117  CG       -35.2790   24.8560    2.3470 C.ar   81  TRP81       0.0006
    118  CD1      -34.1590   25.5570    2.6820 C.ar   81  TRP81       0.0946
    119  CD2      -36.3530   25.8130    2.2920 C.ar   81  TRP81       0.0152
    120  NE1      -34.4780   26.8730    2.9220 N.ar   81  TRP81      -0.2442
    121  CE2      -35.8190   27.0620    2.6830 C.ar   81  TRP81       0.0810
    122  CE3      -37.7290   25.7280    1.9910 C.ar   81  TRP81       0.0012
    123  CZ2      -36.6120   28.2250    2.7760 C.ar   81  TRP81       0.0191
    124  CZ3      -38.5070   26.8760    2.0660 C.ar   81  TRP81       0.0001
    125  CH2      -37.9530   28.1070    2.4530 C.ar   81  TRP81       0.0015
    126  N        -34.6300   24.6540   -1.2130 N.am   82  CYS82      -0.1968
    127  CA       -33.5910   25.2030   -2.0820 C.3    82  CYS82       0.1712
    128  C        -32.8050   26.3680   -1.4710 C.2    82  CYS82       0.2296
    129  O        -33.3130   27.0860   -0.6030 O.2    82  CYS82      -0.2864
    130  CB       -34.1720   25.5880   -3.4430 C.3    82  CYS82       0.0983
    131  SG       -35.0610   24.2560   -4.2860 S.3    82  CYS82      -0.0798
    132  N        -30.9310   29.9180   -2.5110 N.3    84  GLY84      -0.1225
    133  CA       -30.8300   30.9870   -3.4970 C.3    84  GLY84       0.1811
    134  C        -32.1510   31.6900   -3.7200 C.2    84  GLY84       0.2280
    135  O        -32.9340   31.8720   -2.7760 O.2    84  GLY84      -0.2866
    136  N        -40.3950   16.5780  -18.0560 N.3   117  LEU117     -0.1245
    137  CA       -41.8250   16.6760  -17.7640 C.3   117  LEU117      0.1561
    138  C        -42.6700   16.2120  -18.9520 C.2   117  LEU117      0.2260
    139  O        -43.5560   15.3890  -18.7660 O.2   117  LEU117     -0.2867
    140  CB       -42.2340   18.1000  -17.3460 C.3   117  LEU117      0.0270
    141  CG       -41.6990   18.6470  -16.0090 C.3   117  LEU117      0.0019
    142  CD1      -42.1970   20.1030  -15.7750 C.3   117  LEU117      0.0001
    143  CD2      -42.0420   17.7090  -14.8170 C.3   117  LEU117      0.0001
    144  N        -46.3820   15.3240  -18.5760 N.3   122  ILE122     -0.1245
    145  CA       -46.7400   16.3960  -17.6390 C.3   122  ILE122      0.1561
    146  C        -46.6680   17.7540  -18.3700 C.2   122  ILE122      0.2260
    147  O        -45.6030   18.1570  -18.8320 O.2   122  ILE122     -0.2867
    148  CB       -45.8150   16.3800  -16.3740 C.3   122  ILE122      0.0252
    149  CG1      -46.0230   15.0870  -15.5340 C.3   122  ILE122      0.0019
    150  CG2      -45.9640   17.6610  -15.5070 C.3   122  ILE122      0.0019
    151  CD1      -44.9290   14.7400  -14.5850 C.3   122  ILE122      0.0001
    152  N        -46.7430   21.5580  -17.6670 N.3   124  HIS124     -0.1241
    153  CA       -46.5450   22.4390  -16.5120 C.3   124  HIS124      0.1621
    154  C        -47.7510   23.3530  -16.3100 C.2   124  HIS124      0.2264
    155  O        -48.3500   23.3410  -15.2280 O.2   124  HIS124     -0.2867
    156  CB       -45.2710   23.2670  -16.6740 C.3   124  HIS124      0.0745
    157  CG       -44.8310   23.9330  -15.4050 C.ar  124  HIS124      0.0817
    158  ND1      -45.5190   25.0160  -14.8730 N.ar  124  HIS124     -0.2268
    159  CD2      -43.7750   23.6520  -14.6050 C.ar  124  HIS124      0.1154
    160  CE1      -44.8710   25.3410  -13.7650 C.ar  124  HIS124      0.1986
    161  NE2      -43.8050   24.5580  -13.5720 N.ar  124  HIS124     -0.2212
    162  N        -36.2150   27.9990  -10.0450 N.3   133  PHE133     -0.1241
    163  CA       -35.3350   28.3100   -8.9300 C.3   133  PHE133      0.1605
    164  C        -33.8810   28.0390   -9.3050 C.2   133  PHE133      0.2264
    165  O        -33.5870   27.0090   -9.9090 O.2   133  PHE133     -0.2867
    166  CB       -35.7500   27.5150   -7.6820 C.3   133  PHE133      0.0534
    167  CG       -35.3360   28.1730   -6.4000 C.ar  133  PHE133     -0.0203
    168  CD1      -34.0280   28.0570   -5.9270 C.ar  133  PHE133     -0.0042
    169  CD2      -36.2450   28.9200   -5.6620 C.ar  133  PHE133     -0.0042
    170  CE1      -33.6330   28.6990   -4.7520 C.ar  133  PHE133     -0.0003
    171  CE2      -35.8510   29.5610   -4.4870 C.ar  133  PHE133     -0.0003
    172  CZ       -34.5550   29.4260   -4.0280 C.ar  133  PHE133     -0.0000
    173  N        -37.2090   23.3620  -11.5320 N.3   142  ILE142     -0.1231
    174  CA       -38.5370   23.7860  -11.9930 C.3   142  ILE142      0.1692
    175  C        -39.5560   23.2000  -10.9880 C.2   142  ILE142      0.2593
    176  O        -39.4590   22.0470  -10.5760 O.2   142  ILE142     -0.2718
    177  CB       -38.8300   23.3020  -13.4770 C.3   142  ILE142      0.0266
    178  CG1      -37.8730   23.9070  -14.5050 C.3   142  ILE142      0.0019
    179  CG2      -40.2880   23.5310  -13.9050 C.3   142  ILE142      0.0020
    180  CD1      -37.8880   23.1570  -15.8320 C.3   142  ILE142      0.0001
    181  N        -40.5210   24.0100  -10.6370 N.am  143  GLY143     -0.1942
    182  CA       -41.6300   23.6310   -9.7800 C.3   143  GLY143      0.2014
    183  C        -42.7320   24.6250  -10.0130 C.2   143  GLY143      0.2639
    184  O        -42.6570   25.4180  -10.9600 O.2   143  GLY143     -0.2714
    185  N        -43.7530   24.5840   -9.1750 N.am  144  ASP144     -0.1957
    186  CA       -44.8190   25.5740   -9.1990 C.3   144  ASP144      0.1840
    187  C        -44.7780   26.0310   -7.7770 C.2   144  ASP144      0.2622
    188  O        -45.2720   25.3370   -6.8800 O.2   144  ASP144     -0.2715
    189  CB       -46.1950   25.0260   -9.6330 C.3   144  ASP144      0.1450
    190  CG       -47.2820   26.1010   -9.6160 C.2   144  ASP144      0.3671
    191  OD1      -47.2530   26.9970  -10.5000 O.co2 144  ASP144     -0.2456
    192  OD2      -48.1470   26.0660   -8.6950 O.co2 144  ASP144     -0.2456
    193  N        -44.0320   27.1270   -7.5750 N.am  145  PHE145     -0.1960
    194  CA       -43.6740   27.7660   -6.3310 C.3   145  PHE145      0.1771
    195  C        -44.7200   28.7220   -5.7460 C.2   145  PHE145      0.2620
    196  O        -44.3840   29.4540   -4.8010 O.2   145  PHE145     -0.2715
    197  CB       -42.3310   28.4900   -6.5230 C.3   145  PHE145      0.0574
    198  CG       -41.1500   27.5720   -6.7160 C.ar  145  PHE145     -0.0200
    199  CD1      -40.7950   27.1230   -7.9850 C.ar  145  PHE145     -0.0042
    200  CD2      -40.4010   27.1390   -5.6290 C.ar  145  PHE145     -0.0042
    201  CE1      -39.7090   26.2660   -8.1690 C.ar  145  PHE145     -0.0003
    202  CE2      -39.3200   26.2760   -5.8090 C.ar  145  PHE145     -0.0003
    203  CZ       -38.9890   25.8370   -7.0840 C.ar  145  PHE145     -0.0000
    204  N        -45.9580   28.7050   -6.2770 N.am  146  GLY146     -0.1954
    205  CA       -47.0840   29.5270   -5.8150 C.3   146  GLY146      0.1869
    206  C        -46.8400   31.0270   -5.8460 C.2   146  GLY146      0.2309
    207  O        -47.1030   31.7380   -4.8680 O.2   146  GLY146     -0.2863
@<TRIPOS>BOND
     1   138   139    2
     2   138   137    1
     3   147   146    2
     4   144   145    1
     5   146   145    1
     6   136   137    1
     7   137   140    1
     8   152   153    1
     9   145   148    1
    10   140   141    1
    11   156   153    1
    12   156   157    1
    13   153   154    1
    14   148   149    1
    15   148   150    1
    16   154   155    2
    17   141   142    1
    18   141   143    1
    19   180   178    1
    20   149   151    1
    21   157   158   ar
    22   157   159   ar
    23   158   160   ar
    24   159   161   ar
    25   178   177    1
    26    79    77    1
    27   179   177    1
    28   160   161   ar
    29   177   174    1
    30    77    76    1
    31    71    69    1
    32    55    54    1
    33   174   173    1
    34   174   175    1
    35    56    54    1
    36    76    73    1
    37    76    78    1
    38    72    73    1
    39    66    69    1
    40    66    65    1
    41    66    67    1
    42    69    70    1
    43    54    51    1
    44    73    74    1
    45    53    52    2
    46   175   181   am
    47   175   176    2
    48   184   183    2
    49    51    52    1
    50    51    50    1
    51   181   182    1
    52   191   190   ar
    53    67    68    2
    54    52    57   am
    55   162   163    1
    56   183   182    1
    57   183   185   am
    58   165   164    2
    59    74    75    2
    60    74    80   am
    61   189   190    1
    62   189   186    1
    63   190   192   ar
    64   164   163    1
    65   186   185    1
    66   186   187    1
    67    57    58    1
    68    80    81    1
    69   163   166    1
    70    60    59    2
    71    58    59    1
    72    58    61    1
    73   201   199   ar
    74   201   203   ar
    75   199   198   ar
    76    64    62    1
    77   187   193   am
    78   187   188    2
    79   166   167    1
    80    81    84    1
    81    81    82    1
    82   193   194    1
    83    83    82    2
    84    41    42    1
    85    44    43    2
    86    42    43    1
    87    42    45    1
    88    84    85    1
    89    62    61    1
    90    62    63    1
    91   203   202   ar
    92   198   197    1
    93   198   200   ar
    94   197   194    1
    95    46    45    1
    96    46    47    1
    97   167   168   ar
    98   167   169   ar
    99   194   195    1
   100   204   205    1
   101   204   195   am
   102   168   170   ar
   103   206   205    1
   104   206   207    2
   105   202   200   ar
   106   195   196    2
   107    85    87    1
   108    85    86    1
   109   169   171   ar
   110    47    49   ar
   111    47    48   ar
   112   110   109    2
   113   170   172   ar
   114   171   172   ar
   115    40    39    1
   116   131   130    1
   117   109   111   am
   118   109   108    1
   119    12    11    2
   120   134   133    1
   121   134   135    2
   122    11    10    1
   123   133   132    1
   124   130   127    1
   125   108   107    1
   126    39    38    1
   127   102   100    1
   128    95    93    1
   129    10     9    1
   130   100   101    1
   131   100    97    1
   132    94    92    1
   133   127   128    1
   134   127   126    1
   135   107   104    1
   136    38    37    1
   137   128   129    2
   138    93    92    1
   139   103   104    1
   140   103    98   am
   141    97    98    1
   142    97    96    1
   143   126   114   am
   144    92    89    1
   145   106   105    2
   146   104   105    1
   147    37    36    1
   148   105   112   am
   149    98    99    2
   150    19    17    1
   151   114   115    2
   152   114   113    1
   153    36    33    1
   154   112   113    1
   155    89    90    1
   156    89    88    1
   157   113   116    1
   158    24    21    1
   159    18    17    1
   160    90    91    2
   161    17    14    1
   162     8     6    1
   163    33    32    1
   164    33    34    1
   165     4     3    2
   166    23    22    2
   167    35    34    2
   168    32    27   am
   169   116   117    1
   170   122   124   ar
   171   122   119   ar
   172   124   125   ar
   173    21    22    1
   174    21    20    1
   175    14    13    1
   176    14    15    1
   177    22    25   am
   178     3     2    1
   179   119   117   ar
   180   119   121   ar
   181     6     5    1
   182   117   118   ar
   183   125   123   ar
   184   118   120   ar
   185   121   123   ar
   186   121   120   ar
   187     5     2    1
   188     5     7    1
   189    27    28    2
   190    27    26    1
   191    25    26    1
   192    26    29    1
   193     2     1    1
   194    15    16    2
   195    29    30    1
   196    29    31    1
