@<TRIPOS>MOLECULE
tmp/6b8yA00.pdb
 172 162 0 0 0
SMALL
GASTEIGER

@<TRIPOS>ATOM
      1  N         -3.5520   12.0260    3.6650 N.3    14  ILE14      -0.1245
      2  CA        -3.2710   10.6180    3.9850 C.3    14  ILE14       0.1561
      3  C         -3.4750   10.3890    5.4710 C.2    14  ILE14       0.2260
      4  O         -4.1290    9.4110    5.8530 O.2    14  ILE14      -0.2867
      5  CB        -1.8780   10.1280    3.5220 C.3    14  ILE14       0.0252
      6  CG1       -1.7830   10.0800    2.0060 C.3    14  ILE14       0.0019
      7  CG2       -1.5340    8.7160    4.1310 C.3    14  ILE14       0.0019
      8  CD1       -0.3080    9.7650    1.4730 C.3    14  ILE14       0.0001
      9  N          0.9290   11.6000   11.9990 N.3    17  GLY17      -0.1225
     10  CA         1.6120   10.9020   13.0790 C.3    17  GLY17       0.1811
     11  C          1.8960   11.8850   14.1960 C.2    17  GLY17       0.2280
     12  O          1.1220   12.8330   14.4060 O.2    17  GLY17      -0.2866
     13  N          0.6420   14.1660    6.6500 N.3    22  VAL22      -0.1245
     14  CA         1.0190   13.5210    5.3980 C.3    22  VAL22       0.1561
     15  C         -0.0690   13.6550    4.3360 C.2    22  VAL22       0.2260
     16  O         -1.2530   13.3750    4.5720 O.2    22  VAL22      -0.2867
     17  CB         1.4050   12.0370    5.6520 C.3    22  VAL22       0.0252
     18  CG1        1.8800   11.3550    4.3660 C.3    22  VAL22       0.0019
     19  CG2        2.4670   11.9130    6.7590 C.3    22  VAL22       0.0019
     20  N          4.7690   11.3490   -1.5170 N.3    33  ALA33      -0.1245
     21  CA         4.1200   11.6230   -0.2500 C.3    33  ALA33       0.1562
     22  C          4.8140   12.8570    0.2680 C.2    33  ALA33       0.2260
     23  O          6.0230   13.0300    0.1020 O.2    33  ALA33      -0.2867
     24  CB         4.3210   10.4650    0.7290 C.3    33  ALA33       0.0290
     25  N          5.1690   15.3040    3.8280 N.3    35  LYS35      -0.1245
     26  CA         4.8790   15.5000    5.2460 C.3    35  LYS35       0.1561
     27  C          5.1280   16.9660    5.5110 C.2    35  LYS35       0.2260
     28  O          6.2490   17.4840    5.3100 O.2    35  LYS35      -0.2867
     29  CB         5.7830   14.6320    6.1400 C.3    35  LYS35       0.0271
     30  CG         5.2690   14.6180    7.5880 C.3    35  LYS35       0.0035
     31  CD         6.1020   13.8160    8.5830 C.3    35  LYS35       0.0206
     32  CE         6.6940   12.5470    8.1130 C.3    35  LYS35       0.1093
     33  NZ         7.0880   11.6440    9.2340 N.3    35  LYS35      -0.1314
     34  N         14.1800   14.9810   11.3840 N.3    48  GLU48      -0.1245
     35  CA        13.8230   13.9000   10.4730 C.3    48  GLU48       0.1567
     36  C         14.5930   14.0680    9.1180 C.2    48  GLU48       0.2260
     37  O         15.1120   13.0690    8.5880 O.2    48  GLU48      -0.2867
     38  CB        12.3170   13.8110   10.2650 C.3    48  GLU48       0.0388
     39  CG        11.9470   12.4750    9.6030 C.3    48  GLU48       0.1160
     40  CD        10.5010   12.0260    9.7140 C.2    48  GLU48       0.3649
     41  OE1        9.6250   12.9010    9.8970 O.co2  48  GLU48      -0.2457
     42  OE2       10.2400   10.8090    9.5600 O.co2  48  GLU48      -0.2457
     43  N         17.1770   11.2150    7.5880 N.3    52  TYR52      -0.1241
     44  CA        17.0280   10.6750    6.2420 C.3    52  TYR52       0.1605
     45  C         18.1770   11.0160    5.3050 C.2    52  TYR52       0.2264
     46  O         18.3620   10.2990    4.3290 O.2    52  TYR52      -0.2867
     47  CB        15.7020   11.0580    5.6140 C.3    52  TYR52       0.0534
     48  CG        14.5590   10.1290    5.9710 C.ar   52  TYR52      -0.0201
     49  CD1       14.4160    8.8850    5.3400 C.ar   52  TYR52      -0.0009
     50  CD2       13.6010   10.5010    6.9040 C.ar   52  TYR52      -0.0009
     51  CE1       13.3400    8.0450    5.6270 C.ar   52  TYR52       0.0417
     52  CE2       12.5400    9.6480    7.2320 C.ar   52  TYR52       0.0417
     53  CZ        12.3940    8.4400    6.5570 C.ar   52  TYR52       0.1957
     54  OH        11.2900    7.6630    6.7800 O.3    52  TYR52      -0.2866
     55  N         11.9300    3.7620    3.8420 N.3    63  LEU63      -0.1245
     56  CA        11.1770    4.7070    2.9980 C.3    63  LEU63       0.1561
     57  C         12.1490    5.5860    2.2100 C.2    63  LEU63       0.2260
     58  O         13.0730    6.1560    2.7960 O.2    63  LEU63      -0.2867
     59  CB        10.2490    5.5750    3.8600 C.3    63  LEU63       0.0270
     60  CG         9.4840    6.6470    3.0660 C.3    63  LEU63       0.0019
     61  CD1        8.5780    6.0130    1.9780 C.3    63  LEU63       0.0001
     62  CD2        8.6090    7.4460    3.9980 C.3    63  LEU63       0.0001
     63  N         13.6330    8.5720    0.7270 N.3    65  PHE65      -0.1241
     64  CA        13.5780   10.0260    0.9570 C.3    65  PHE65       0.1605
     65  C         13.9200   10.7550   -0.3270 C.2    65  PHE65       0.2264
     66  O         14.8920   10.3970   -0.9770 O.2    65  PHE65      -0.2867
     67  CB        14.5690   10.4180    2.0670 C.3    65  PHE65       0.0534
     68  CG        14.6640   11.8980    2.3400 C.ar   65  PHE65      -0.0203
     69  CD1       13.7360   12.5270    3.1620 C.ar   65  PHE65      -0.0042
     70  CD2       15.7020   12.6570    1.8060 C.ar   65  PHE65      -0.0042
     71  CE1       13.8480   13.8840    3.4470 C.ar   65  PHE65      -0.0003
     72  CE2       15.8170   14.0200    2.1100 C.ar   65  PHE65      -0.0003
     73  CZ        14.8690   14.6200    2.8960 C.ar   65  PHE65      -0.0000
     74  N          8.8170   17.6220    3.8890 N.3    81  LEU81      -0.1231
     75  CA         9.6560   16.4430    3.6590 C.3    81  LEU81       0.1693
     76  C          8.9170   15.6640    2.5800 C.2    81  LEU81       0.2592
     77  O          7.7060   15.4740    2.6790 O.2    81  LEU81      -0.2718
     78  CB         9.8220   15.5560    4.8900 C.3    81  LEU81       0.0284
     79  CG        10.5090   16.2320    6.0870 C.3    81  LEU81       0.0019
     80  CD1       10.5800   15.2510    7.2570 C.3    81  LEU81       0.0001
     81  CD2       11.9460   16.7390    5.7210 C.3    81  LEU81       0.0001
     82  N          9.6310   15.2210    1.5670 N.am   82  VAL82      -0.1966
     83  CA         9.0190   14.5150    0.4390 C.3    82  VAL82       0.1727
     84  C          9.6230   13.1120    0.3240 C.2    82  VAL82       0.2617
     85  O         10.8450   12.9570    0.4310 O.2    82  VAL82      -0.2715
     86  CB         9.2640   15.3090   -0.8870 C.3    82  VAL82       0.0290
     87  CG1        8.5590   14.6290   -2.0480 C.3    82  VAL82       0.0023
     88  CG2        8.8170   16.7730   -0.7670 C.3    82  VAL82       0.0023
     89  N          8.7840   12.1010    0.0570 N.am   83  SER83      -0.1936
     90  CA         9.2720   10.7320   -0.0920 C.3    83  SER83       0.2055
     91  C          8.5170   10.0280   -1.1910 C.2    83  SER83       0.2643
     92  O          7.5340   10.5590   -1.7170 O.2    83  SER83      -0.2714
     93  CB         9.0410    9.9630    1.2170 C.3    83  SER83       0.2130
     94  OG         7.6590    9.7220    1.4330 O.3    83  SER83      -0.2179
     95  N          8.9190    8.7800   -1.4790 N.am   84  ASP84      -0.1957
     96  CA         8.1570    7.9080   -2.3520 C.3    84  ASP84       0.1840
     97  C          6.7420    7.7430   -1.7790 C.2    84  ASP84       0.2622
     98  O          6.5540    7.8040   -0.5570 O.2    84  ASP84      -0.2715
     99  CB         8.7940    6.5100   -2.3590 C.3    84  ASP84       0.1450
    100  CG        10.2030    6.4500   -2.9130 C.2    84  ASP84       0.3671
    101  OD1       10.6650    7.4700   -3.4840 O.co2  84  ASP84      -0.2456
    102  OD2       10.8750    5.4040   -2.7120 O.co2  84  ASP84      -0.2456
    103  N          5.7800    7.4550   -2.6570 N.am   85  TYR85      -0.1960
    104  CA         4.3970    7.1850   -2.2830 C.3    85  TYR85       0.1771
    105  C          4.1170    5.6950   -2.3940 C.2    85  TYR85       0.2619
    106  O          4.5120    5.0720   -3.3800 O.2    85  TYR85      -0.2715
    107  CB         3.4510    7.9730   -3.1840 C.3    85  TYR85       0.0574
    108  CG         1.9980    7.6350   -2.9500 C.ar   85  TYR85      -0.0198
    109  CD1        1.3530    8.0060   -1.7660 C.ar   85  TYR85      -0.0009
    110  CD2        1.2630    6.9480   -3.9110 C.ar   85  TYR85      -0.0009
    111  CE1        0.0080    7.6840   -1.5470 C.ar   85  TYR85       0.0417
    112  CE2       -0.0720    6.6140   -3.6940 C.ar   85  TYR85       0.0417
    113  CZ        -0.6910    6.9820   -2.5120 C.ar   85  TYR85       0.1957
    114  OH        -2.0160    6.6620   -2.3160 O.3    85  TYR85      -0.2866
    115  N          3.4550    5.1410   -1.3710 N.am   86  HIS86      -0.1973
    116  CA         3.0650    3.7320   -1.3380 C.3    86  HIS86       0.1656
    117  C          1.5490    3.6470   -1.0610 C.2    86  HIS86       0.2291
    118  O          1.0960    3.9020    0.0620 O.2    86  HIS86      -0.2864
    119  CB         3.8830    2.9950   -0.2790 C.3    86  HIS86       0.0771
    120  CG         5.3530    2.9600   -0.5970 C.ar   86  HIS86       0.0820
    121  ND1        5.8320    2.3580   -1.7560 N.ar   86  HIS86      -0.2267
    122  CD2        6.3900    3.5380    0.0550 C.ar   86  HIS86       0.1154
    123  CE1        7.1450    2.5490   -1.7500 C.ar   86  HIS86       0.1986
    124  NE2        7.5270    3.2530   -0.6760 N.ar   86  HIS86      -0.2212
    125  N         -0.2440    2.2810    2.0430 N.3    89  GLY89      -0.1210
    126  CA        -0.0550    2.9920    3.3040 C.3    89  GLY89       0.1956
    127  C          0.6230    2.1030    4.3330 C.2    89  GLY89       0.2612
    128  O          1.4630    1.2730    3.9830 O.2    89  GLY89      -0.2717
    129  N          0.2930    2.3090    5.6270 N.am   90  SER90      -0.1952
    130  CA         0.9400    1.5860    6.7190 C.3    90  SER90       0.1924
    131  C          0.6390    0.0930    6.7670 C.2    90  SER90       0.2314
    132  O         -0.4240   -0.3550    6.3470 O.2    90  SER90      -0.2863
    133  CB         0.5860    2.2160    8.0620 C.3    90  SER90       0.2116
    134  OG        -0.7650    1.8950    8.3890 O.3    90  SER90      -0.2180
    135  N          2.1980    1.1730   12.5630 N.3   140  LYS140     -0.1231
    136  CA         1.8100    2.4390   11.9040 C.3   140  LYS140      0.1693
    137  C          3.0240    3.1640   11.2890 C.2   140  LYS140      0.2592
    138  O          2.8310    4.0390   10.4430 O.2   140  LYS140     -0.2718
    139  CB         1.1290    3.3720   12.9180 C.3   140  LYS140      0.0285
    140  CG        -0.2920    2.9290   13.2100 C.3   140  LYS140      0.0035
    141  CD        -0.9600    3.9360   14.1440 C.3   140  LYS140      0.0206
    142  CE        -2.4060    3.5720   14.3970 C.3   140  LYS140      0.1093
    143  NZ        -2.5210    2.5200   15.4330 N.3   140  LYS140     -0.1314
    144  N          4.2580    2.7610   11.6810 N.am  141  ASN141     -0.1974
    145  CA         5.5210    3.3510   11.1800 C.3   141  ASN141      0.1688
    146  C          6.2600    2.4810   10.1740 C.2   141  ASN141      0.2292
    147  O          7.4230    2.7500    9.8620 O.2   141  ASN141     -0.2864
    148  CB         6.4240    3.7480   12.3350 C.3   141  ASN141      0.1181
    149  CG         5.8970    4.9570   13.0610 C.2   141  ASN141      0.2629
    150  OD1        5.0290    5.7030   12.5240 O.2   141  ASN141     -0.2716
    151  ND2        6.4550    5.2370   14.2440 N.am  141  ASN141     -0.0877
    152  N          5.5080    0.8120    6.1400 N.3   143  LEU143     -0.1245
    153  CA         4.6210    0.9450    4.9930 C.3   143  LEU143      0.1561
    154  C          4.7430   -0.3040    4.1570 C.2   143  LEU143      0.2260
    155  O          5.7790   -0.9590    4.2040 O.2   143  LEU143     -0.2867
    156  CB         5.0140    2.1620    4.1590 C.3   143  LEU143      0.0270
    157  CG         5.1290    3.4720    4.9560 C.3   143  LEU143      0.0019
    158  CD1        5.7070    4.5620    4.1040 C.3   143  LEU143      0.0001
    159  CD2        3.7820    3.8960    5.5430 C.3   143  LEU143      0.0001
    160  N          9.5270    3.6630    8.1020 N.3   153  ALA153     -0.1231
    161  CA         9.3590    5.1150    8.0440 C.3   153  ALA153      0.1694
    162  C          9.3790    5.6860    9.4660 C.2   153  ALA153      0.2592
    163  O          9.6560    4.9610   10.4170 O.2   153  ALA153     -0.2718
    164  CB         8.0400    5.4490    7.3700 C.3   153  ALA153      0.0304
    165  N          9.1180    6.9810    9.5840 N.am  154  ASP154     -0.1974
    166  CA         9.0440    7.7370   10.8390 C.3   154  ASP154      0.1709
    167  C         10.3630    7.7220   11.6070 C.2   154  ASP154      0.2293
    168  O         10.4500    7.1650   12.7020 O.2   154  ASP154     -0.2864
    169  CB         7.8790    7.2410   11.7120 C.3   154  ASP154      0.1436
    170  CG         7.0830    8.4070   12.2570 C.2   154  ASP154      0.3671
    171  OD1        6.4410    9.1190   11.4430 O.co2 154  ASP154     -0.2456
    172  OD2        7.0930    8.6100   13.5000 O.co2 154  ASP154     -0.2456
@<TRIPOS>BOND
     1   110   112   ar
     2   110   108   ar
     3   112   113   ar
     4   101   100   ar
     5   106   105    2
     6   107   108    1
     7   107   104    1
     8   108   109   ar
     9   100   102   ar
    10   100    99    1
    11   103   104    1
    12   103    97   am
    13   113   114    1
    14   113   111   ar
    15   105   104    1
    16   105   115   am
    17    99    96    1
    18    96    97    1
    19    96    95    1
    20    87    86    1
    21    97    98    2
    22   109   111   ar
    23   121   123   ar
    24   121   120   ar
    25   123   124   ar
    26    92    91    2
    27    20    21    1
    28    95    91   am
    29   115   116    1
    30   116   117    1
    31   116   119    1
    32    91    90    1
    33   117   118    2
    34    66    65    2
    35    86    88    1
    36    86    83    1
    37   124   122   ar
    38   120   119    1
    39   120   122   ar
    40    65    64    1
    41    21    22    1
    42    21    24    1
    43    90    89    1
    44    90    93    1
    45    89    84   am
    46    23    22    2
    47    84    85    2
    48    84    83    1
    49    83    82    1
    50    63    64    1
    51    64    67    1
    52    93    94    1
    53     8     6    1
    54    82    76   am
    55    70    72   ar
    56    70    68   ar
    57    61    60    1
    58     6     5    1
    59   125   126    1
    60    67    68    1
    61    72    73   ar
    62    57    58    2
    63    57    56    1
    64    68    69   ar
    65    76    77    2
    66    76    75    1
    67    73    71   ar
    68    56    55    1
    69    56    59    1
    70    60    59    1
    71    60    62    1
    72    69    71   ar
    73   126   127    1
    74     5     2    1
    75     5     7    1
    76    75    74    1
    77    75    78    1
    78     1     2    1
    79    25    26    1
    80   128   127    2
    81     2     3    1
    82   158   157    1
    83   154   155    2
    84   154   153    1
    85   156   157    1
    86   156   153    1
    87    46    45    2
    88   127   129   am
    89    15    16    2
    90    15    14    1
    91    18    17    1
    92    78    79    1
    93   157   159    1
    94   153   152    1
    95    26    27    1
    96    26    29    1
    97    45    44    1
    98    28    27    2
    99    49    51   ar
   100    49    48   ar
   101    14    17    1
   102    14    13    1
   103     3     4    2
   104    47    48    1
   105    47    44    1
   106   129   130    1
   107    51    53   ar
   108    17    19    1
   109    81    79    1
   110    48    50   ar
   111    79    80    1
   112    29    30    1
   113    44    43    1
   114   132   131    2
   115    53    54    1
   116    53    52   ar
   117   130   131    1
   118   130   133    1
   119    50    52   ar
   120   164   161    1
   121    30    31    1
   122   161   160    1
   123   161   162    1
   124   133   134    1
   125    32    31    1
   126    32    33    1
   127    37    36    2
   128    36    35    1
   129   162   165   am
   130   162   163    2
   131    42    40   ar
   132   165   166    1
   133    39    40    1
   134    39    38    1
   135    40    41   ar
   136   147   146    2
   137   146   145    1
   138    38    35    1
   139   138   137    2
   140    35    34    1
   141   166   167    1
   142   166   169    1
   143   145   144    1
   144   145   148    1
   145   137   144   am
   146   137   136    1
   147   171   170   ar
   148   167   168    2
   149   169   170    1
   150   136   135    1
   151   136   139    1
   152     9    10    1
   153   170   172   ar
   154   148   149    1
   155   150   149    2
   156   139   140    1
   157   149   151   am
   158    10    11    1
   159   140   141    1
   160   141   142    1
   161    11    12    2
   162   142   143    1
