@<TRIPOS>MOLECULE
tmp/6b92A00.pdb
 217 210 0 0 0
SMALL
GASTEIGER

@<TRIPOS>ATOM
      1  N         -8.8590    1.3130   22.7750 N.3    71  LEU71      -0.1245
      2  CA        -7.4460    1.4970   23.1580 C.3    71  LEU71       0.1561
      3  C         -7.1150    0.8900   24.5460 C.2    71  LEU71       0.2260
      4  O         -7.8180    1.1280   25.5440 O.2    71  LEU71      -0.2867
      5  CB        -7.0640    2.9740   23.1410 C.3    71  LEU71       0.0270
      6  CG        -5.5990    3.2780   23.4990 C.3    71  LEU71       0.0019
      7  CD1       -4.6350    3.0450   22.3230 C.3    71  LEU71       0.0001
      8  CD2       -5.4920    4.7010   24.0280 C.3    71  LEU71       0.0001
      9  N         -4.3440    0.9970   27.3620 N.3    73  PRO73      -0.2116
     10  CA        -3.2290    1.8420   27.7630 C.3    73  PRO73       0.1372
     11  C         -2.0290    1.0610   28.2890 C.2    73  PRO73       0.2244
     12  O         -2.1620   -0.0720   28.8300 O.2    73  PRO73      -0.2868
     13  CB        -3.8260    2.6870   28.8840 C.3    73  PRO73       0.0268
     14  CG        -4.8840    1.8170   29.4840 C.3    73  PRO73       0.0207
     15  CD        -5.4540    1.0170   28.3510 C.3    73  PRO73       0.0892
     16  N          1.6260    6.0640   31.2140 N.3    78  ARG78      -0.1245
     17  CA         0.6030    6.9550   31.8050 C.3    78  ARG78       0.1563
     18  C          1.0390    7.5940   33.1300 C.2    78  ARG78       0.2260
     19  O          0.6890    8.7350   33.3900 O.2    78  ARG78      -0.2867
     20  CB        -0.7210    6.2000   32.0270 C.3    78  ARG78       0.0307
     21  CG        -1.3710    5.6050   30.7890 C.3    78  ARG78       0.0489
     22  CD        -1.2800    6.5180   29.5880 C.3    78  ARG78       0.2205
     23  NE        -2.0250    5.9860   28.4620 N.pl3  78  ARG78      -0.0865
     24  CZ        -3.3200    6.1900   28.2520 C.cat  78  ARG78       0.5346
     25  NH1       -4.0390    6.9290   29.1160 N.pl3  78  ARG78       0.1354
     26  NH2       -3.9030    5.6840   27.1770 N.pl3  78  ARG78       0.1354
     27  N        -10.2960   14.8700   32.9130 N.3   104  ASP104     -0.1225
     28  CA        -9.6740   14.0070   31.9330 C.3   104  ASP104      0.1805
     29  C        -10.5940   13.9800   30.7100 C.2   104  ASP104      0.2598
     30  O        -11.7110   13.4900   30.7770 O.2   104  ASP104     -0.2718
     31  CB        -9.4440   12.5870   32.4910 C.3   104  ASP104      0.1424
     32  CG        -8.7250   11.6540   31.4880 C.2   104  ASP104      0.3668
     33  OD1       -7.9980   12.1380   30.5890 O.co2 104  ASP104     -0.2456
     34  OD2       -8.8740   10.4140   31.6060 O.co2 104  ASP104     -0.2456
     35  N        -10.0980   14.5100   29.6060 N.am  105  ILE105     -0.1966
     36  CA       -10.8530   14.6270   28.3670 C.3   105  ILE105      0.1727
     37  C        -10.6520   13.3820   27.5430 C.2   105  ILE105      0.2617
     38  O         -9.5460   13.1580   27.0850 O.2   105  ILE105     -0.2715
     39  CB       -10.3690   15.8200   27.5040 C.3   105  ILE105      0.0290
     40  CG1      -10.5830   17.1420   28.2280 C.3   105  ILE105      0.0022
     41  CG2      -11.0960   15.8370   26.1610 C.3   105  ILE105      0.0023
     42  CD1       -9.5920   18.1920   27.7880 C.3   105  ILE105      0.0001
     43  N        -11.7140   12.5850   27.3700 N.am  106  GLY106     -0.1940
     44  CA       -11.6450   11.3510   26.6220 C.3   106  GLY106      0.2014
     45  C        -10.9760   10.2800   27.4540 C.2   106  GLY106      0.2640
     46  O         -9.8890    9.8410   27.1410 O.2   106  GLY106     -0.2714
     47  N        -11.6520    9.8690   28.5240 N.am  107  THR107     -0.1936
     48  CA       -11.0260    9.0680   29.5640 C.3   107  THR107      0.2028
     49  C        -10.7410    7.6460   29.1280 C.2   107  THR107      0.2643
     50  O         -9.8620    7.0310   29.6740 O.2   107  THR107     -0.2714
     51  CB       -11.8180    9.1270   30.8700 C.3   107  THR107      0.1808
     52  OG1      -10.9690    8.7790   31.9540 O.3   107  THR107     -0.2208
     53  CG2      -13.0400    8.2340   30.8460 C.3   107  THR107      0.0379
     54  N        -11.4510    7.1450   28.1190 N.am  108  GLY108     -0.1939
     55  CA       -11.1970    5.7890   27.5970 C.3   108  GLY108      0.2014
     56  C        -11.8410    4.7120   28.4680 C.2   108  GLY108      0.2639
     57  O        -12.3160    4.9610   29.5770 O.2   108  GLY108     -0.2714
     58  N        -11.8470    3.5040   27.9520 N.am  109  ALA109     -0.1963
     59  CA       -12.5020    2.3830   28.6060 C.3   109  ALA109      0.1728
     60  C        -11.8720    2.0350   29.9620 C.2   109  ALA109      0.2616
     61  O        -12.5760    1.6740   30.8810 O.2   109  ALA109     -0.2715
     62  CB       -12.5240    1.1710   27.6760 C.3   109  ALA109      0.0334
     63  N        -10.5800    2.2520   30.0980 N.am  110  SER110     -0.1950
     64  CA        -9.8160    1.9640   31.3370 C.3   110  SER110      0.1924
     65  C        -10.0020    3.0450   32.3990 C.2   110  SER110      0.2314
     66  O         -9.7110    2.8090   33.5750 O.2   110  SER110     -0.2863
     67  CB        -8.3370    1.8910   30.9720 C.3   110  SER110      0.2116
     68  OG        -7.9320    3.2410   30.5490 O.3   110  SER110     -0.2180
     69  N         -8.1040    5.4020   32.9700 N.3   112  ILE112     -0.1231
     70  CA        -6.8500    5.1730   33.6520 C.3   112  ILE112      0.1692
     71  C         -6.2380    6.3900   34.3510 C.2   112  ILE112      0.2592
     72  O         -5.7420    6.2450   35.4660 O.2   112  ILE112     -0.2718
     73  CB        -5.8420    4.4640   32.7570 C.3   112  ILE112      0.0266
     74  CG1       -4.7460    3.8740   33.6850 C.3   112  ILE112      0.0019
     75  CG2       -5.3490    5.3660   31.6350 C.3   112  ILE112      0.0020
     76  CD1       -3.5700    3.3140   32.9530 C.3   112  ILE112      0.0001
     77  N         -6.2980    7.5860   33.7550 N.am  113  TYR113     -0.1976
     78  CA        -5.7160    8.7340   34.4480 C.3   113  TYR113      0.1639
     79  C         -6.4700    9.0050   35.7440 C.2   113  TYR113      0.2290
     80  O         -5.8420    9.1150   36.7810 O.2   113  TYR113     -0.2864
     81  CB        -5.5680    9.9830   33.5880 C.3   113  TYR113      0.0560
     82  CG        -4.5890    9.9130   32.4370 C.ar  113  TYR113     -0.0198
     83  CD1       -3.2650    9.4830   32.6080 C.ar  113  TYR113     -0.0009
     84  CD2       -4.9850   10.3360   31.1590 C.ar  113  TYR113     -0.0009
     85  CE1       -2.3620    9.4890   31.5250 C.ar  113  TYR113      0.0417
     86  CE2       -4.1140   10.3100   30.0910 C.ar  113  TYR113      0.0417
     87  CZ        -2.8070    9.8980   30.2690 C.ar  113  TYR113      0.1957
     88  OH        -1.9990    9.8780   29.1450 O.3   113  TYR113     -0.2866
     89  N        -14.5340   12.7100   30.9020 N.3   128  THR128     -0.1203
     90  CA       -15.4880   12.8010   29.8010 C.3   128  THR128      0.1994
     91  C        -15.1930   11.7690   28.7430 C.2   128  THR128      0.2618
     92  O        -14.0330   11.3590   28.5760 O.2   128  THR128     -0.2717
     93  CB       -15.4990   14.1830   29.1230 C.3   128  THR128      0.1784
     94  OG1      -14.2800   14.3900   28.4100 O.3   128  THR128     -0.2211
     95  CG2      -15.7140   15.2940   30.1270 C.3   128  THR128      0.0376
     96  N        -16.2540   11.3400   28.0650 N.am  129  GLU129     -0.1965
     97  CA       -16.1610   10.4460   26.9100 C.3   129  GLU129      0.1733
     98  C        -17.3050   10.7160   25.9270 C.2   129  GLU129      0.2616
     99  O        -18.4390   10.9550   26.3450 O.2   129  GLU129     -0.2715
    100  CB       -16.2800    8.9670   27.3220 C.3   129  GLU129      0.0429
    101  CG       -15.0230    8.1210   27.2080 C.3   129  GLU129      0.1163
    102  CD       -14.3120    8.1880   25.8700 C.2   129  GLU129      0.3649
    103  OE1      -13.0630    8.0560   25.9290 O.co2 129  GLU129     -0.2457
    104  OE2      -14.9820    8.3270   24.7920 O.co2 129  GLU129     -0.2457
    105  N        -17.0040   10.6370   24.6330 N.am  130  VAL130     -0.1963
    106  CA       -18.0430   10.6410   23.5830 C.3   130  VAL130      0.1727
    107  C        -18.4500    9.2520   23.1360 C.2   130  VAL130      0.2616
    108  O        -19.5420    9.0810   22.6330 O.2   130  VAL130     -0.2715
    109  CB       -17.6510   11.4610   22.3210 C.3   130  VAL130      0.0290
    110  CG1      -17.4130   12.9060   22.6980 C.3   130  VAL130      0.0023
    111  CG2      -16.4320   10.8900   21.6000 C.3   130  VAL130      0.0023
    112  N        -17.5530    8.2800   23.2780 N.am  131  ASP131     -0.1971
    113  CA       -17.8050    6.9170   22.8240 C.3   131  ASP131      0.1709
    114  C        -18.6230    6.1470   23.8510 C.2   131  ASP131      0.2293
    115  O        -18.3020    6.1510   25.0490 O.2   131  ASP131     -0.2864
    116  CB       -16.5040    6.2050   22.5480 C.3   131  ASP131      0.1436
    117  CG       -16.7240    4.8560   21.9890 C.2   131  ASP131      0.3671
    118  OD1      -17.2250    4.7870   20.8380 O.co2 131  ASP131     -0.2456
    119  OD2      -16.4390    3.8550   22.6960 O.co2 131  ASP131     -0.2456
    120  N        -16.6700    3.0160   25.5840 N.3   134  CYS134     -0.1235
    121  CA       -15.6640    3.5250   26.5060 C.3   134  CYS134      0.1677
    122  C        -16.3310    4.1110   27.7260 C.2   134  CYS134      0.2270
    123  O        -15.8760    3.8680   28.8190 O.2   134  CYS134     -0.2867
    124  CB       -14.7510    4.5840   25.8650 C.3   134  CYS134      0.0956
    125  SG       -13.5450    4.0130   24.6480 S.3   134  CYS134     -0.0801
    126  N        -20.5220   12.9440   26.9620 N.3   156  VAL156     -0.1245
    127  CA       -20.7470   14.2600   26.4040 C.3   156  VAL156      0.1561
    128  C        -21.0690   14.1090   24.9210 C.2   156  VAL156      0.2260
    129  O        -20.7100   13.0900   24.3080 O.2   156  VAL156     -0.2867
    130  CB       -19.5410   15.1990   26.5480 C.3   156  VAL156      0.0252
    131  CG1      -19.2140   15.4070   28.0140 C.3   156  VAL156      0.0019
    132  CG2      -18.3410   14.7010   25.7380 C.3   156  VAL156      0.0019
    133  N        -20.8480   14.4240   20.9100 N.3   158  GLN158     -0.1245
    134  CA       -19.8220   14.3970   19.8550 C.3   158  GLN158      0.1566
    135  C        -19.0150   15.6820   19.5620 C.2   158  GLN158      0.2260
    136  O        -17.8140   15.6300   19.3000 O.2   158  GLN158     -0.2867
    137  CB       -20.4680   13.8930   18.5230 C.3   158  GLN158      0.0367
    138  CG       -20.1590   12.4300   18.1840 C.3   158  GLN158      0.0905
    139  CD       -18.6550   12.1720   18.0030 C.2   158  GLN158      0.2608
    140  OE1      -17.9030   13.0420   17.5340 O.2   158  GLN158     -0.2717
    141  NE2      -18.2080   10.9830   18.3990 N.am  158  GLN158     -0.0878
    142  N        -18.5060   18.4120   21.4780 N.3   160  THR160     -0.1203
    143  CA       -18.2260   19.2530   22.6330 C.3   160  THR160      0.1994
    144  C        -16.8950   18.9090   23.2410 C.2   160  THR160      0.2617
    145  O        -16.2970   17.8620   22.9690 O.2   160  THR160     -0.2717
    146  CB       -19.3140   19.0740   23.6900 C.3   160  THR160      0.1784
    147  OG1      -19.3750   17.7080   24.0750 O.3   160  THR160     -0.2211
    148  CG2      -20.7200   19.4920   23.1120 C.3   160  THR160      0.0376
    149  N        -16.4140   19.8080   24.0740 N.am  161  LEU161     -0.1979
    150  CA       -15.1370   19.6140   24.7090 C.3   161  LEU161      0.1596
    151  C        -15.2630   20.1430   26.1360 C.2   161  LEU161      0.2287
    152  O        -16.1530   19.6840   26.8530 O.2   161  LEU161     -0.2864
    153  CB       -14.0430   20.2510   23.8540 C.3   161  LEU161      0.0297
    154  CG       -12.5860   19.8840   24.1150 C.3   161  LEU161      0.0022
    155  CD1      -12.3660   18.4040   23.9060 C.3   161  LEU161      0.0001
    156  CD2      -11.6830   20.6390   23.1500 C.3   161  LEU161      0.0001
    157  N         -5.2320   15.2610   28.7390 N.3   179  CYS179     -0.1221
    158  CA        -5.7000   14.6720   27.4930 C.3   179  CYS179      0.1808
    159  C         -4.5500   13.9610   26.8020 C.2   179  CYS179      0.2601
    160  O         -3.4700   14.4940   26.7310 O.2   179  CYS179     -0.2717
    161  CB        -6.2280   15.7680   26.5440 C.3   179  CYS179      0.0970
    162  SG        -7.1940   14.9630   25.2340 S.3   179  CYS179     -0.0800
    163  N         -4.7560   12.7900   26.2580 N.am  180  ASN180     -0.1961
    164  CA        -3.6780   12.1810   25.4280 C.3   180  ASN180      0.1804
    165  C         -4.2510   11.6940   24.1080 C.2   180  ASN180      0.2463
    166  O         -5.4470   11.9000   23.8910 O.2   180  ASN180     -0.2730
    167  CB        -2.9300   11.1010   26.2410 C.3   180  ASN180      0.1195
    168  CG        -3.6910    9.8120   26.3240 C.2   180  ASN180      0.2630
    169  OD1       -4.8860    9.8320   26.5790 O.2   180  ASN180     -0.2716
    170  ND2       -3.0110    8.6850   26.1340 N.am  180  ASN180     -0.0877
    171  N         -3.4000   11.0870   23.2140 N.am  181  PRO181     -0.2716
    172  CA        -3.8590   10.4860   21.9270 C.3   181  PRO181      0.1521
    173  C         -4.5600    9.0970   22.1050 C.2   181  PRO181      0.2440
    174  O         -4.4640    8.5190   23.2240 O.2   181  PRO181     -0.2731
    175  CB        -2.5270   10.3150   21.1220 C.3   181  PRO181      0.0310
    176  CG        -1.4130   10.8970   21.9850 C.3   181  PRO181      0.0237
    177  CD        -1.9370   10.8610   23.3870 C.3   181  PRO181      0.0939
    178  N         -5.2390    8.5450   21.0630 N.am  182  PRO182     -0.2716
    179  CA        -5.3320    9.1050   19.6690 C.3   182  PRO182      0.1536
    180  C         -6.3800   10.2150   19.4630 C.2   182  PRO182      0.2598
    181  O         -7.3660   10.3040   20.1900 O.2   182  PRO182     -0.2715
    182  CB        -5.7070    7.8650   18.8270 C.3   182  PRO182      0.0310
    183  CG        -6.4660    6.9750   19.7750 C.3   182  PRO182      0.0237
    184  CD        -6.0160    7.2860   21.1890 C.3   182  PRO182      0.0939
    185  N         -6.1620   11.0300   18.4460 N.am  183  PHE183     -0.1974
    186  CA        -7.0030   12.2110   18.1890 C.3   183  PHE183      0.1639
    187  C         -7.8240   12.1560   16.8620 C.2   183  PHE183      0.2290
    188  O         -7.3060   11.9080   15.7570 O.2   183  PHE183     -0.2864
    189  CB        -6.1170   13.4720   18.2660 C.3   183  PHE183      0.0560
    190  CG        -5.4800   13.7070   19.6370 C.ar  183  PHE183     -0.0200
    191  CD1       -6.2600   14.0100   20.7490 C.ar  183  PHE183     -0.0042
    192  CD2       -4.0940   13.6350   19.8210 C.ar  183  PHE183     -0.0042
    193  CE1       -5.6820   14.2400   21.9900 C.ar  183  PHE183     -0.0003
    194  CE2       -3.5170   13.8730   21.0760 C.ar  183  PHE183     -0.0003
    195  CZ        -4.3120   14.1810   22.1560 C.ar  183  PHE183     -0.0000
    196  N         -7.2010   18.8310   17.2770 N.3   196  PHE196     -0.1241
    197  CA        -7.8740   18.5150   18.5250 C.3   196  PHE196      0.1605
    198  C         -7.3440   19.4000   19.6240 C.2   196  PHE196      0.2264
    199  O         -8.1140   20.0070   20.3500 O.2   196  PHE196     -0.2867
    200  CB        -7.6890   17.0670   18.9010 C.3   196  PHE196      0.0534
    201  CG        -8.5330   16.6510   20.0520 C.ar  196  PHE196     -0.0203
    202  CD1       -8.0750   16.8050   21.3400 C.ar  196  PHE196     -0.0042
    203  CD2       -9.8050   16.1600   19.8410 C.ar  196  PHE196     -0.0042
    204  CE1       -8.8520   16.4370   22.4160 C.ar  196  PHE196     -0.0003
    205  CE2      -10.6030   15.7910   20.9160 C.ar  196  PHE196     -0.0003
    206  CZ       -10.1230   15.9270   22.2120 C.ar  196  PHE196     -0.0000
    207  N         -8.7490   22.9560   19.5720 N.3   199  ARG199     -0.1245
    208  CA       -10.0420   23.0050   20.2710 C.3   199  ARG199      0.1563
    209  C         -9.8520   23.2030   21.7830 C.2   199  ARG199      0.2260
    210  O        -10.5630   23.9810   22.3890 O.2   199  ARG199     -0.2867
    211  CB       -10.8880   21.7510   19.9980 C.3   199  ARG199      0.0307
    212  CG       -11.3100   21.5970   18.5270 C.3   199  ARG199      0.0489
    213  CD       -11.9340   20.2260   18.2240 C.3   199  ARG199      0.2205
    214  NE       -13.1350   19.9680   19.0180 N.pl3 199  ARG199     -0.0865
    215  CZ       -13.6880   18.7630   19.1820 C.cat 199  ARG199      0.5346
    216  NH1      -13.1380   17.6840   18.6050 N.pl3 199  ARG199      0.1354
    217  NH2      -14.7840   18.6260   19.9340 N.pl3 199  ARG199      0.1354
@<TRIPOS>BOND
     1   188   187    2
     2   187   186    1
     3   196   197    1
     4   140   139    2
     5   139   138    1
     6   139   141   am
     7   138   137    1
     8   186   189    1
     9   186   185    1
    10   213   212    1
    11   213   214    1
    12   189   190    1
    13   185   180   am
    14   137   134    1
    15   197   200    1
    16   197   198    1
    17   212   211    1
    18   216   215    1
    19   182   179    1
    20   182   183    1
    21   200   201    1
    22   214   215    2
    23   215   217    1
    24   136   135    2
    25   180   179    1
    26   180   181    2
    27   135   134    1
    28   207   208    1
    29   198   199    2
    30   190   192   ar
    31   190   191   ar
    32   179   178    1
    33   183   184    1
    34   192   194   ar
    35   203   201   ar
    36   203   205   ar
    37   134   133    1
    38   211   208    1
    39   201   202   ar
    40   208   209    1
    41   191   193   ar
    42   118   117   ar
    43   205   206   ar
    44   178   184    1
    45   178   173   am
    46   194   195   ar
    47   175   172    1
    48   175   176    1
    49   202   204   ar
    50   142   143    1
    51   111   109    1
    52   209   210    2
    53   172   173    1
    54   172   171    1
    55   176   177    1
    56   117   116    1
    57   117   119   ar
    58   193   195   ar
    59   173   174    2
    60   206   204   ar
    61   109   110    1
    62   109   106    1
    63     7     6    1
    64   116   113    1
    65   108   107    2
    66   143   144    1
    67   143   146    1
    68     1     2    1
    69   113   112    1
    70   113   114    1
    71   145   144    2
    72   148   146    1
    73   107   112   am
    74   107   106    1
    75     5     2    1
    76     5     6    1
    77   156   154    1
    78     2     3    1
    79   171   177    1
    80   171   165   am
    81   144   149   am
    82     6     8    1
    83   106   105    1
    84   146   147    1
    85   114   115    2
    86   153   154    1
    87   153   150    1
    88   166   165    2
    89   155   154    1
    90   149   150    1
    91   165   164    1
    92   129   128    2
    93     3     4    2
    94   105    98   am
    95   125   124    1
    96   150   151    1
    97   104   102   ar
    98   128   127    1
    99   162   161    1
   100   164   167    1
   101   164   163    1
   102   120   121    1
   103   132   130    1
   104   124   121    1
   105   102   103   ar
   106   102   101    1
   107    98    99    2
   108    98    97    1
   109   170   168   am
   110   151   152    2
   111    41    39    1
   112   167   168    1
   113   163   159   am
   114   168   169    2
   115   127   130    1
   116   127   126    1
   117   121   122    1
   118   161   158    1
   119   130   131    1
   120    44    43    1
   121    44    45    1
   122   160   159    2
   123   159   158    1
   124    97   100    1
   125    97    96    1
   126    38    37    2
   127    46    45    2
   128    26    24    1
   129   101   100    1
   130     9    10    1
   131     9    15    1
   132    43    37   am
   133    45    47   am
   134   158   157    1
   135    39    40    1
   136    39    36    1
   137    37    36    1
   138    55    54    1
   139    55    56    1
   140    62    59    1
   141   122   123    2
   142    10    11    1
   143    10    13    1
   144    42    40    1
   145    58    56   am
   146    58    59    1
   147    96    91   am
   148    54    49   am
   149    24    23    2
   150    24    25    1
   151    11    12    2
   152    15    14    1
   153    36    35    1
   154    94    93    1
   155    23    22    1
   156    56    57    2
   157    47    48    1
   158    92    91    2
   159    59    60    1
   160    91    90    1
   161    13    14    1
   162    93    90    1
   163    93    95    1
   164    49    48    1
   165    49    50    2
   166    88    87    1
   167    48    51    1
   168    22    21    1
   169    35    29   am
   170    90    89    1
   171    60    63   am
   172    60    61    2
   173    86    87   ar
   174    86    84   ar
   175    63    64    1
   176    87    85   ar
   177    68    67    1
   178    33    32   ar
   179    29    30    2
   180    29    28    1
   181    21    20    1
   182    53    51    1
   183    51    52    1
   184    67    64    1
   185    84    82   ar
   186    16    17    1
   187    64    65    1
   188    32    34   ar
   189    32    31    1
   190    85    83   ar
   191    75    73    1
   192    17    20    1
   193    17    18    1
   194    28    31    1
   195    28    27    1
   196    65    66    2
   197    82    83   ar
   198    82    81    1
   199    73    70    1
   200    73    74    1
   201    76    74    1
   202    69    70    1
   203    18    19    2
   204    81    78    1
   205    70    71    1
   206    77    71   am
   207    77    78    1
   208    71    72    2
   209    78    79    1
   210    79    80    2
