@<TRIPOS>MOLECULE
tmp/6b94B00.pdb
 103 96 0 0 0
SMALL
GASTEIGER

@<TRIPOS>ATOM
      1  N          5.6580  -22.2670   17.3770 N.3    31  VAL31      -0.1245
      2  CA         7.0670  -22.0700   17.0920 C.3    31  VAL31       0.1561
      3  C          7.6150  -23.2270   16.3030 C.2    31  VAL31       0.2260
      4  O          7.3020  -24.3850   16.5990 O.2    31  VAL31      -0.2867
      5  CB         7.8580  -21.9840   18.4150 C.3    31  VAL31       0.0252
      6  CG1        9.3700  -22.0030   18.1850 C.3    31  VAL31       0.0019
      7  CG2        7.4680  -20.7380   19.1880 C.3    31  VAL31       0.0019
      8  N         14.2120  -19.1480   14.5840 N.3    44  HIS44      -0.1241
      9  CA        13.0930  -19.2930   15.5170 C.3    44  HIS44       0.1621
     10  C         11.9840  -18.5870   14.7810 C.2    44  HIS44       0.2264
     11  O         12.0530  -17.3800   14.5850 O.2    44  HIS44      -0.2867
     12  CB        13.4470  -18.6020   16.8370 C.3    44  HIS44       0.0745
     13  CG        12.3020  -18.3880   17.7790 C.ar   44  HIS44       0.0817
     14  ND1       11.7670  -19.3890   18.5570 N.ar   44  HIS44      -0.2268
     15  CD2       11.6210  -17.2650   18.0950 C.ar   44  HIS44       0.1154
     16  CE1       10.8060  -18.8920   19.3120 C.ar   44  HIS44       0.1986
     17  NE2       10.6860  -17.6080   19.0390 N.ar   44  HIS44      -0.2212
     18  N          8.0940  -17.7970   14.6940 N.3    46  ASN46      -0.1240
     19  CA         7.0830  -17.7230   15.7570 C.3    46  ASN46       0.1653
     20  C          5.8810  -16.8540   15.3860 C.2    46  ASN46       0.2266
     21  O          5.8300  -15.6570   15.7050 O.2    46  ASN46      -0.2867
     22  CB         7.7680  -17.2690   17.0530 C.3    46  ASN46       0.1155
     23  CG         6.8010  -17.0500   18.2180 C.2    46  ASN46       0.2627
     24  OD1        7.0820  -16.2270   19.0810 O.2    46  ASN46      -0.2716
     25  ND2        5.6570  -17.7450   18.2320 N.am   46  ASN46      -0.0877
     26  N          2.6040  -15.3430   16.0540 N.3    48  ARG48      -0.1245
     27  CA         1.8490  -14.9740   17.2480 C.3    48  ARG48       0.1563
     28  C          0.4530  -14.5170   16.8150 C.2    48  ARG48       0.2260
     29  O          0.2970  -13.4840   16.1600 O.2    48  ARG48      -0.2867
     30  CB         2.5790  -13.8660   17.9970 C.3    48  ARG48       0.0307
     31  CG         3.9290  -14.3240   18.5100 C.3    48  ARG48       0.0489
     32  CD         4.6690  -13.2400   19.2590 C.3    48  ARG48       0.2205
     33  NE         5.9800  -13.7020   19.7060 N.pl3  48  ARG48      -0.0865
     34  CZ         6.8570  -12.9550   20.3720 C.cat  48  ARG48       0.5346
     35  NH1        6.5710  -11.6970   20.6940 N.pl3  48  ARG48       0.1354
     36  NH2        8.0260  -13.4730   20.7240 N.pl3  48  ARG48       0.1354
     37  N          2.2600  -12.1090   23.9290 N.3    52  HIS52      -0.1241
     38  CA         3.3120  -11.1180   24.2360 C.3    52  HIS52       0.1621
     39  C          3.0120   -9.7120   23.7080 C.2    52  HIS52       0.2264
     40  O          3.9240   -8.9640   23.3620 O.2    52  HIS52      -0.2867
     41  CB         4.6750  -11.5990   23.7170 C.3    52  HIS52       0.0745
     42  CG         5.1570  -12.8530   24.3700 C.ar   52  HIS52       0.0817
     43  ND1        5.1100  -14.0830   23.7490 N.ar   52  HIS52      -0.2268
     44  CD2        5.6900  -13.0690   25.5950 C.ar   52  HIS52       0.1154
     45  CE1        5.5950  -15.0020   24.5640 C.ar   52  HIS52       0.1986
     46  NE2        5.9540  -14.4130   25.6900 N.ar   52  HIS52      -0.2212
     47  N          1.5900   -9.0690   20.8490 N.3    54  ASP54      -0.1239
     48  CA         1.5160   -9.0860   19.3870 C.3    54  ASP54       0.1674
     49  C          0.2650   -9.8270   18.9470 C.2    54  ASP54       0.2266
     50  O         -0.0320  -10.9070   19.4720 O.2    54  ASP54      -0.2867
     51  CB         2.7570   -9.7650   18.8040 C.3    54  ASP54       0.1410
     52  CG         4.0310   -9.0490   19.1810 C.2    54  ASP54       0.3668
     53  OD1        4.0400   -7.7900   19.1380 O.co2  54  ASP54      -0.2456
     54  OD2        5.0220   -9.7290   19.5310 O.co2  54  ASP54      -0.2456
     55  N          7.0210  -13.2780   14.3870 N.3    59  VAL59      -0.1245
     56  CA         8.2790  -12.8670   14.9810 C.3    59  VAL59       0.1561
     57  C          9.3250  -13.9160   14.6230 C.2    59  VAL59       0.2260
     58  O          9.1190  -15.1100   14.8770 O.2    59  VAL59      -0.2867
     59  CB         8.1570  -12.7970   16.5150 C.3    59  VAL59       0.0252
     60  CG1        9.5110  -12.5330   17.1800 C.3    59  VAL59       0.0019
     61  CG2        7.1300  -11.7400   16.9110 C.3    59  VAL59       0.0019
     62  N         13.6530  -14.8360   14.9660 N.3    61  ASN61      -0.1240
     63  CA        14.9000  -14.5320   15.6410 C.3    61  ASN61       0.1653
     64  C         15.9120  -15.6530   15.4370 C.2    61  ASN61       0.2266
     65  O         15.5910  -16.7030   14.8620 O.2    61  ASN61      -0.2867
     66  CB        14.6410  -14.2720   17.1380 C.3    61  ASN61       0.1155
     67  CG        15.6560  -13.3330   17.7530 C.2    61  ASN61       0.2627
     68  OD1       16.7040  -13.0450   17.1520 O.2    61  ASN61      -0.2716
     69  ND2       15.3630  -12.8510   18.9550 N.am   61  ASN61      -0.0877
     70  N         19.5140  -14.9470   22.5480 N.3    68  TRP68      -0.1241
     71  CA        18.5960  -14.4910   21.5020 C.3    68  TRP68       0.1605
     72  C         19.2070  -13.3130   20.7660 C.2    68  TRP68       0.2264
     73  O         19.8460  -12.4340   21.3780 O.2    68  TRP68      -0.2867
     74  CB        17.2500  -14.0590   22.0760 C.3    68  TRP68       0.0550
     75  CG        16.3290  -15.1350   22.5640 C.ar   68  TRP68       0.0003
     76  CD1       15.8590  -15.2910   23.8390 C.ar   68  TRP68       0.0946
     77  CD2       15.7170  -16.1660   21.7880 C.ar   68  TRP68       0.0152
     78  NE1       15.0010  -16.3570   23.9090 N.ar   68  TRP68      -0.2442
     79  CE2       14.8910  -16.9130   22.6620 C.ar   68  TRP68       0.0810
     80  CE3       15.7850  -16.5380   20.4390 C.ar   68  TRP68       0.0012
     81  CZ2       14.1500  -18.0230   22.2320 C.ar   68  TRP68       0.0191
     82  CZ3       15.0440  -17.6330   20.0100 C.ar   68  TRP68       0.0001
     83  CH2       14.2440  -18.3690   20.9070 C.ar   68  TRP68       0.0015
     84  N         15.0520   -9.4260   17.1220 N.3    71  GLU71      -0.1245
     85  CA        13.8450   -9.9060   16.4350 C.3    71  GLU71       0.1567
     86  C         13.5650   -9.1560   15.1390 C.2    71  GLU71       0.2260
     87  O         13.7160   -7.9380   15.0640 O.2    71  GLU71      -0.2867
     88  CB        12.6180   -9.7700   17.3160 C.3    71  GLU71       0.0388
     89  CG        12.6250  -10.6970   18.5070 C.3    71  GLU71       0.1160
     90  CD        11.4630  -10.4410   19.4520 C.2    71  GLU71       0.3649
     91  OE1       10.8520   -9.3430   19.4270 O.co2  71  GLU71      -0.2457
     92  OE2       11.1580  -11.3540   20.2320 O.co2  71  GLU71      -0.2457
     93  N         10.2890   -8.6990   12.5210 N.3    73  ARG73      -0.1245
     94  CA         8.8520   -8.8380   12.5020 C.3    73  ARG73       0.1563
     95  C          8.2770   -8.5280   11.1250 C.2    73  ARG73       0.2260
     96  O          8.8460   -7.7860   10.3400 O.2    73  ARG73      -0.2867
     97  CB         8.2450   -7.9650   13.5980 C.3    73  ARG73       0.0307
     98  CG         8.4690   -8.5770   14.9720 C.3    73  ARG73       0.0489
     99  CD         9.0840   -7.6320   16.0050 C.3    73  ARG73       0.2205
    100  NE         8.9230   -8.1610   17.3680 N.pl3  73  ARG73      -0.0865
    101  CZ         7.7710   -8.1870   18.0430 C.cat  73  ARG73       0.5346
    102  NH1        6.6500   -7.7040   17.5070 N.pl3  73  ARG73       0.1354
    103  NH2        7.7290   -8.7100   19.2570 N.pl3  73  ARG73       0.1354
@<TRIPOS>BOND
     1    96    95    2
     2    95    94    1
     3    94    93    1
     4    94    97    1
     5    97    98    1
     6    55    56    1
     7     8     9    1
     8    11    10    2
     9    57    58    2
    10    57    56    1
    11    18    19    1
    12    10     9    1
    13    65    64    2
    14    62    63    1
    15    98    99    1
    16    56    59    1
    17    87    86    2
    18    86    85    1
    19    20    21    2
    20    20    19    1
    21    64    63    1
    22     9    12    1
    23    63    66    1
    24    19    22    1
    25    99   100    1
    26    26    27    1
    27    29    28    2
    28     3     4    2
    29     3     2    1
    30    85    84    1
    31    85    88    1
    32    59    61    1
    33    59    60    1
    34    28    27    1
    35    12    13    1
    36    22    23    1
    37     2     1    1
    38     2     5    1
    39    66    67    1
    40    68    67    2
    41    27    30    1
    42    88    89    1
    43   100   101    2
    44   102   101    1
    45    67    69   am
    46    13    15   ar
    47    13    14   ar
    48    30    31    1
    49   101   103    1
    50    15    17   ar
    51     6     5    1
    52    23    25   am
    53    23    24    2
    54     5     7    1
    55    89    90    1
    56    31    32    1
    57    14    16   ar
    58    51    52    1
    59    51    48    1
    60    49    48    1
    61    49    50    2
    62    17    16   ar
    63    53    52   ar
    64    52    54   ar
    65    32    33    1
    66    48    47    1
    67    91    90   ar
    68    90    92   ar
    69    33    34    2
    70    82    80   ar
    71    82    83   ar
    72    34    35    1
    73    34    36    1
    74    80    77   ar
    75    72    73    2
    76    72    71    1
    77    83    81   ar
    78    71    74    1
    79    71    70    1
    80    77    75   ar
    81    77    79   ar
    82    74    75    1
    83    81    79   ar
    84    75    76   ar
    85    79    78   ar
    86    40    39    2
    87    39    38    1
    88    41    38    1
    89    41    42    1
    90    43    42   ar
    91    43    45   ar
    92    76    78   ar
    93    37    38    1
    94    42    44   ar
    95    45    46   ar
    96    44    46   ar
