@<TRIPOS>MOLECULE
tmp/6b95A01.pdb
 111 101 0 0 0
SMALL
GASTEIGER

@<TRIPOS>ATOM
      1  N        141.2060   17.8040   -7.2190 N.3   105  ARG105     -0.1245
      2  CA       141.4180   19.1930   -7.5370 C.3   105  ARG105      0.1563
      3  C        140.9440   20.1070   -6.4280 C.2   105  ARG105      0.2260
      4  O        141.5410   21.1600   -6.2100 O.2   105  ARG105     -0.2867
      5  CB       140.6740   19.5060   -8.8570 C.3   105  ARG105      0.0307
      6  CG       140.3470   20.9350   -9.1640 C.3   105  ARG105      0.0489
      7  CD       141.5640   21.6740   -9.5510 C.3   105  ARG105      0.2205
      8  NE       141.2140   22.9220  -10.1920 N.pl3 105  ARG105     -0.0865
      9  CZ       142.0880   23.8870  -10.4230 C.cat 105  ARG105      0.5346
     10  NH1      143.3500   23.7310  -10.0540 N.pl3 105  ARG105      0.1354
     11  NH2      141.6980   25.0020  -11.0090 N.pl3 105  ARG105      0.1354
     12  N        147.4530   31.7280   -2.7350 N.3   146  SER146     -0.1217
     13  CA       146.5290   32.8490   -2.7570 C.3   146  SER146      0.1889
     14  C        145.3400   32.4960   -1.8870 C.2   146  SER146      0.2288
     15  O        145.0140   31.3230   -1.6880 O.2   146  SER146     -0.2866
     16  CB       146.0590   33.1890   -4.1780 C.3   146  SER146      0.2089
     17  OG       144.9680   32.3680   -4.5680 O.3   146  SER146     -0.2183
     18  N        141.3450   34.1240   -0.8790 N.3   148  ASP148     -0.1239
     19  CA       140.2500   35.0420   -1.1970 C.3   148  ASP148      0.1674
     20  C        139.1870   34.9230   -0.1100 C.2   148  ASP148      0.2266
     21  O        138.3060   34.0580   -0.1690 O.2   148  ASP148     -0.2867
     22  CB       139.6770   34.7350   -2.5700 C.3   148  ASP148      0.1410
     23  CG       138.6210   35.7270   -3.0020 C.2   148  ASP148      0.3668
     24  OD1      138.5910   36.8490   -2.4640 O.co2 148  ASP148     -0.2456
     25  OD2      137.8180   35.3770   -3.8910 O.co2 148  ASP148     -0.2456
     26  N        135.9870   35.8440    1.8390 N.3   150  LYS150     -0.1245
     27  CA       134.6960   36.4150    1.5640 C.3   150  LYS150      0.1561
     28  C        133.8990   36.3710    2.8350 C.2   150  LYS150      0.2260
     29  O        134.3640   35.8820    3.8600 O.2   150  LYS150     -0.2867
     30  CB       133.9820   35.6750    0.4470 C.3   150  LYS150      0.0271
     31  CG       134.8020   35.5710   -0.8160 C.3   150  LYS150      0.0035
     32  CD       133.9620   35.0000   -1.9680 C.3   150  LYS150      0.0206
     33  CE       134.7490   34.9210   -3.2870 C.3   150  LYS150      0.1093
     34  NZ       133.9660   34.2680   -4.3830 N.3   150  LYS150     -0.1314
     35  N        132.7320   32.4800    3.3250 N.3   153  TYR153     -0.1241
     36  CA       133.6870   31.4230    3.0930 C.3   153  TYR153      0.1605
     37  C        134.9340   32.0340    2.5150 C.2   153  TYR153      0.2264
     38  O        134.9510   33.1880    2.0990 O.2   153  TYR153     -0.2867
     39  CB       133.1300   30.3360    2.1490 C.3   153  TYR153      0.0534
     40  CG       132.6220   30.8290    0.8200 C.ar  153  TYR153     -0.0201
     41  CD1      133.4550   30.9300   -0.2740 C.ar  153  TYR153     -0.0009
     42  CD2      131.2850   31.1420    0.6500 C.ar  153  TYR153     -0.0009
     43  CE1      132.9760   31.3640   -1.4970 C.ar  153  TYR153      0.0417
     44  CE2      130.7990   31.5670   -0.5700 C.ar  153  TYR153      0.0417
     45  CZ       131.6460   31.6700   -1.6330 C.ar  153  TYR153      0.1957
     46  OH       131.1520   32.0970   -2.8480 O.3   153  TYR153     -0.2866
     47  N        138.2030   30.9970   -0.2170 N.3   155  VAL155     -0.1245
     48  CA       138.7620   30.1110   -1.2330 C.3   155  VAL155      0.1561
     49  C        140.2570   30.3140   -1.2640 C.2   155  VAL155      0.2260
     50  O        140.7280   31.4460   -1.3580 O.2   155  VAL155     -0.2867
     51  CB       138.1630   30.3820   -2.6180 C.3   155  VAL155      0.0252
     52  CG1      138.6540   29.3670   -3.6160 C.3   155  VAL155      0.0019
     53  CG2      136.6420   30.4010   -2.5330 C.3   155  VAL155      0.0019
     54  N        144.0350   29.0210   -3.0580 N.3   157  GLN157     -0.1245
     55  CA       144.8350   28.2870   -4.0200 C.3   157  GLN157      0.1566
     56  C        146.0560   27.7470   -3.3170 C.2   157  GLN157      0.2260
     57  O        146.7930   28.5010   -2.6770 O.2   157  GLN157     -0.2867
     58  CB       145.2820   29.1590   -5.1930 C.3   157  GLN157      0.0367
     59  CG       144.2690   29.3580   -6.2790 C.3   157  GLN157      0.0905
     60  CD       144.7560   30.3360   -7.3370 C.2   157  GLN157      0.2608
     61  OE1      144.0320   31.2660   -7.7110 O.2   157  GLN157     -0.2717
     62  NE2      145.9990   30.1440   -7.8070 N.am  157  GLN157     -0.0878
     63  N        147.9680   22.2750   -8.4810 N.3   170  GLU170     -0.1245
     64  CA       147.2100   23.3020   -7.8350 C.3   170  GLU170      0.1567
     65  C        145.9720   22.6710   -7.2270 C.2   170  GLU170      0.2260
     66  O        145.2120   21.9870   -7.9130 O.2   170  GLU170     -0.2867
     67  CB       146.8340   24.3680   -8.8510 C.3   170  GLU170      0.0388
     68  CG       145.7670   25.3760   -8.3990 C.3   170  GLU170      0.1160
     69  CD       145.6170   26.5070   -9.3960 C.2   170  GLU170      0.3649
     70  OE1      146.5980   27.2640   -9.5810 O.co2 170  GLU170     -0.2457
     71  OE2      144.5460   26.6110  -10.0240 O.co2 170  GLU170     -0.2457
     72  N        142.5270   23.6520   -5.0270 N.3   172  LEU172     -0.1245
     73  CA       141.6500   24.6630   -4.4950 C.3   172  LEU172      0.1561
     74  C        141.0410   24.1930   -3.1880 C.2   172  LEU172      0.2260
     75  O        140.5220   23.0820   -3.1060 O.2   172  LEU172     -0.2867
     76  CB       140.5480   24.9490   -5.5000 C.3   172  LEU172      0.0270
     77  CG       141.0840   25.3520   -6.8860 C.3   172  LEU172      0.0019
     78  CD1      139.8940   25.6470   -7.8340 C.3   172  LEU172      0.0001
     79  CD2      142.0000   26.5650   -6.8020 C.3   172  LEU172      0.0001
     80  N        138.1740   25.1640   -0.4870 N.3   174  PHE174     -0.1241
     81  CA       136.9330   25.8980   -0.3230 C.3   174  PHE174      0.1605
     82  C        136.5360   25.7250    1.1230 C.2   174  PHE174      0.2264
     83  O        136.1800   24.6200    1.5390 O.2   174  PHE174     -0.2867
     84  CB       135.8580   25.3750   -1.2670 C.3   174  PHE174      0.0534
     85  CG       136.2780   25.3550   -2.7310 C.ar  174  PHE174     -0.0203
     86  CD1      135.9860   26.4150   -3.5470 C.ar  174  PHE174     -0.0042
     87  CD2      136.9500   24.2780   -3.2720 C.ar  174  PHE174     -0.0042
     88  CE1      136.3710   26.3870   -4.8690 C.ar  174  PHE174     -0.0003
     89  CE2      137.3320   24.2610   -4.6020 C.ar  174  PHE174     -0.0003
     90  CZ       137.0600   25.3290   -5.3850 C.ar  174  PHE174     -0.0000
     91  N        130.0690   27.9460   -5.8610 N.3   197  CYS197     -0.1235
     92  CA       131.4740   28.3110   -6.0410 C.3   197  CYS197      0.1677
     93  C        132.3340   27.0810   -6.2980 C.2   197  CYS197      0.2270
     94  O        133.1840   27.0810   -7.2020 O.2   197  CYS197     -0.2867
     95  CB       131.9680   29.0960   -4.8030 C.3   197  CYS197      0.0956
     96  SG       133.7030   29.4840   -4.8290 S.3   197  CYS197     -0.0801
     97  N        131.6290   25.9290   -9.8810 N.3   200  GLU200     -0.1231
     98  CA       132.2230   26.8320  -10.8670 C.3   200  GLU200      0.1699
     99  C        133.7210   26.6460  -10.9980 C.2   200  GLU200      0.2592
    100  O        134.2910   26.9030  -12.0620 O.2   200  GLU200     -0.2718
    101  CB       131.9300   28.2560  -10.4750 C.3   200  GLU200      0.0402
    102  CG       130.4920   28.7070  -10.6560 C.3   200  GLU200      0.1161
    103  CD       130.3830   30.2230  -10.6000 C.2   200  GLU200      0.3649
    104  OE1      131.4070   30.8830  -10.9120 O.co2 200  GLU200     -0.2457
    105  OE2      129.2930   30.7450  -10.2410 O.co2 200  GLU200     -0.2457
    106  N        134.3920   26.2590   -9.9250 N.am  201  SER201     -0.1952
    107  CA       135.8370   26.1040  -10.0000 C.3   201  SER201      0.1924
    108  C        136.2720   24.9670  -10.9030 C.2   201  SER201      0.2314
    109  O        137.4730   24.8370  -11.1840 O.2   201  SER201     -0.2863
    110  CB       136.3770   25.8500   -8.5930 C.3   201  SER201      0.2116
    111  OG       136.1320   24.4970   -8.2320 O.3   201  SER201     -0.2180
@<TRIPOS>BOND
     1   100    99    2
     2   109   108    2
     3    11     9    1
     4    99    98    1
     5    99   106   am
     6   104   103   ar
     7   108   107    1
     8    98   101    1
     9    98    97    1
    10   102   103    1
    11   102   101    1
    12   103   105   ar
    13     9     8    2
    14     9    10    1
    15     8     7    1
    16    71    69   ar
    17   107   106    1
    18   107   110    1
    19    70    69   ar
    20     7     6    1
    21    69    68    1
    22     6     5    1
    23     5     2    1
    24    67    68    1
    25    67    64    1
    26   110   111    1
    27    63    64    1
    28    66    65    2
    29    64    65    1
    30    78    77    1
    31    62    60   am
    32    61    60    2
    33     2     1    1
    34     2     3    1
    35    60    59    1
    36    94    93    2
    37    77    79    1
    38    77    76    1
    39     3     4    2
    40    93    92    1
    41    59    58    1
    42    92    91    1
    43    92    95    1
    44    76    73    1
    45    90    88   ar
    46    90    89   ar
    47    58    55    1
    48    72    73    1
    49    88    86   ar
    50    96    95    1
    51    89    87   ar
    52    17    16    1
    53    73    74    1
    54    34    33    1
    55    16    13    1
    56    55    56    1
    57    55    54    1
    58    25    23   ar
    59    52    51    1
    60    86    85   ar
    61    56    57    2
    62    33    32    1
    63    87    85   ar
    64    74    75    2
    65    23    22    1
    66    23    24   ar
    67    46    45    1
    68    13    12    1
    69    13    14    1
    70    85    84    1
    71    51    53    1
    72    51    48    1
    73    22    19    1
    74    32    31    1
    75    14    15    2
    76    45    43   ar
    77    45    44   ar
    78    43    41   ar
    79    50    49    2
    80    84    81    1
    81    49    48    1
    82    48    47    1
    83    19    18    1
    84    19    20    1
    85    31    30    1
    86    44    42   ar
    87    80    81    1
    88    81    82    1
    89    41    40   ar
    90    21    20    2
    91    30    27    1
    92    42    40   ar
    93    40    39    1
    94    82    83    2
    95    27    26    1
    96    27    28    1
    97    38    37    2
    98    39    36    1
    99    37    36    1
   100    28    29    2
   101    36    35    1
