@<TRIPOS>MOLECULE
tmp/6b96A00.pdb
 186 178 0 0 0
SMALL
GASTEIGER

@<TRIPOS>ATOM
      1  N         28.3880  -14.0320   18.6260 N.3    82  TYR82      -0.1227
      2  CA        29.2720  -12.8970   18.8980 C.3    82  TYR82       0.1736
      3  C         28.8270  -11.9500   20.0350 C.2    82  TYR82       0.2595
      4  O         29.6130  -11.7030   20.9490 O.2    82  TYR82      -0.2718
      5  CB        29.5140  -12.0900   17.6160 C.3    82  TYR82       0.0548
      6  CG        30.4800  -10.9350   17.8070 C.ar   82  TYR82      -0.0200
      7  CD1       31.8550  -11.1550   17.8810 C.ar   82  TYR82      -0.0009
      8  CD2       30.0170   -9.6330   17.9670 C.ar   82  TYR82      -0.0009
      9  CE1       32.7510  -10.0980   18.0570 C.ar   82  TYR82       0.0417
     10  CE2       30.9040   -8.5640   18.1280 C.ar   82  TYR82       0.0417
     11  CZ        32.2680   -8.8070   18.1830 C.ar   82  TYR82       0.1957
     12  OH        33.1500   -7.7740   18.3360 O.3    82  TYR82      -0.2866
     13  N         27.6210  -11.4000   19.9520 N.am   83  HIS83      -0.1975
     14  CA        27.1350  -10.4250   20.9380 C.3    83  HIS83       0.1656
     15  C         26.6510  -11.0420   22.2770 C.2    83  HIS83       0.2291
     16  O         25.4860  -10.9460   22.6520 O.2    83  HIS83      -0.2864
     17  CB        26.0710   -9.5390   20.3130 C.3    83  HIS83       0.0771
     18  CG        26.6180   -8.5920   19.2870 C.ar   83  HIS83       0.0820
     19  ND1       26.4050   -8.7880   17.9360 N.ar   83  HIS83      -0.2267
     20  CD2       27.3460   -7.4660   19.4480 C.ar   83  HIS83       0.1154
     21  CE1       26.9990   -7.7800   17.3210 C.ar   83  HIS83       0.1986
     22  NE2       27.5970   -6.9720   18.1840 N.ar   83  HIS83      -0.2212
     23  N         28.0360    3.5840   19.9580 N.3   195  THR195     -0.1203
     24  CA        28.3580    2.2210   19.4390 C.3   195  THR195      0.1994
     25  C         27.5800    1.8810   18.1620 C.2   195  THR195      0.2618
     26  O         27.8110    0.8230   17.5640 O.2   195  THR195     -0.2717
     27  CB        28.1650    1.1220   20.4960 C.3   195  THR195      0.1784
     28  OG1       26.7810    1.0190   20.8270 O.3   195  THR195     -0.2211
     29  CG2       28.9790    1.3530   21.7460 C.3   195  THR195      0.0376
     30  N         26.6530    2.7630   17.7430 N.am  196  ASP196     -0.1959
     31  CA        25.9000    2.5450   16.5130 C.3   196  ASP196      0.1840
     32  C         26.8220    2.9880   15.3840 C.2   196  ASP196      0.2621
     33  O         27.2380    4.1450   15.3360 O.2   196  ASP196     -0.2715
     34  CB        24.5750    3.3360   16.4920 C.3   196  ASP196      0.1450
     35  CG        23.6910    3.1070   15.2580 C.2   196  ASP196      0.3671
     36  OD1       24.1160    2.3600   14.3420 O.co2 196  ASP196     -0.2456
     37  OD2       22.5760    3.6780   15.2070 O.co2 196  ASP196     -0.2456
     38  N         27.1520    2.0660   14.4830 N.am  197  LEU197     -0.1977
     39  CA        28.0080    2.3820   13.3490 C.3   197  LEU197      0.1596
     40  C         27.4840    3.5950   12.5630 C.2   197  LEU197      0.2287
     41  O         28.2920    4.4260   12.1510 O.2   197  LEU197     -0.2864
     42  CB        28.2130    1.1730   12.4320 C.3   197  LEU197      0.0297
     43  CG        29.1690    1.3770   11.2330 C.3   197  LEU197      0.0022
     44  CD1       30.5210    2.0040   11.6610 C.3   197  LEU197      0.0001
     45  CD2       29.3850    0.0810   10.5080 C.3   197  LEU197      0.0001
     46  N         28.8050    6.6730   14.1400 N.3   200  HIS200     -0.1241
     47  CA        30.2220    6.8400   13.8330 C.3   200  HIS200      0.1621
     48  C         30.3860    7.4630   12.4430 C.2   200  HIS200      0.2264
     49  O         31.1970    8.3840   12.3010 O.2   200  HIS200     -0.2867
     50  CB        30.9970    5.5010   13.9260 C.3   200  HIS200      0.0745
     51  CG        32.4220    5.6460   13.5000 C.ar  200  HIS200      0.0817
     52  ND1       33.3440    6.3360   14.2820 N.ar  200  HIS200     -0.2268
     53  CD2       33.0310    5.2370   12.3590 C.ar  200  HIS200      0.1154
     54  CE1       34.4770    6.3120   13.6000 C.ar  200  HIS200      0.1986
     55  NE2       34.3410    5.6510   12.4400 N.ar  200  HIS200     -0.2212
     56  N         34.1840    3.2810   20.2970 N.3   232  THR232     -0.1218
     57  CA        34.2690    2.4880   19.0500 C.3   232  THR232      0.1862
     58  C         35.6030    1.6830   19.0000 C.2   232  THR232      0.2287
     59  O         35.6050    0.5520   18.4840 O.2   232  THR232     -0.2866
     60  CB        33.9840    3.3300   17.7870 C.3   232  THR232      0.1770
     61  OG1       34.9630    4.3620   17.6340 O.3   232  THR232     -0.2211
     62  CG2       32.5750    3.9390   17.7940 C.3   232  THR232      0.0375
     63  N         34.9700   -1.2780   21.2090 N.3   235  ASP235     -0.1225
     64  CA        34.0280   -2.1720   20.5280 C.3   235  ASP235      0.1805
     65  C         34.7080   -3.0340   19.4530 C.2   235  ASP235      0.2597
     66  O         34.3500   -4.1980   19.2870 O.2   235  ASP235     -0.2718
     67  CB        32.8920   -1.3780   19.8880 C.3   235  ASP235      0.1424
     68  CG        31.5090   -2.0120   19.9580 C.2   235  ASP235      0.3668
     69  OD1       31.4170   -3.2360   20.2570 O.co2 235  ASP235     -0.2456
     70  OD2       30.5250   -1.2890   19.7280 O.co2 235  ASP235     -0.2456
     71  N         35.6790   -2.4640   18.7430 N.am  236  LEU236     -0.1979
     72  CA        36.3750   -3.1810   17.6590 C.3   236  LEU236      0.1596
     73  C         37.7400   -3.7250   18.0560 C.2   236  LEU236      0.2287
     74  O         38.5010   -4.1530   17.1890 O.2   236  LEU236     -0.2864
     75  CB        36.5020   -2.2380   16.4310 C.3   236  LEU236      0.0297
     76  CG        35.1950   -1.6830   15.8570 C.3   236  LEU236      0.0022
     77  CD1       35.4690   -0.8410   14.6320 C.3   236  LEU236      0.0001
     78  CD2       34.1950   -2.8360   15.4870 C.3   236  LEU236      0.0001
     79  N         38.8950   -6.4680   19.1520 N.3   238  ASP238     -0.1225
     80  CA        39.2770   -7.8450   18.7660 C.3   238  ASP238      0.1805
     81  C         40.1660   -7.7850   17.5200 C.2   238  ASP238      0.2597
     82  O         40.9000   -8.7370   17.2430 O.2   238  ASP238     -0.2718
     83  CB        38.0580   -8.7070   18.4020 C.3   238  ASP238      0.1424
     84  CG        37.0960   -9.0470   19.5150 C.2   238  ASP238      0.3668
     85  OD1       37.5680   -9.3860   20.6340 O.co2 238  ASP238     -0.2456
     86  OD2       35.8560   -8.9980   19.2640 O.co2 238  ASP238     -0.2456
     87  N         40.0810   -6.6670   16.7540 N.am  239  GLN239     -0.1979
     88  CA        40.8740   -6.4460   15.5370 C.3   239  GLN239      0.1601
     89  C         42.3470   -6.1050   15.8340 C.2   239  GLN239      0.2287
     90  O         43.1890   -6.2070   14.9440 O.2   239  GLN239     -0.2864
     91  CB        40.2400   -5.3350   14.6760 C.3   239  GLN239      0.0394
     92  CG        38.7700   -5.5960   14.2680 C.3   239  GLN239      0.0908
     93  CD        38.5990   -6.9560   13.6490 C.2   239  GLN239      0.2608
     94  OE1       37.8060   -7.7820   14.1140 O.2   239  GLN239     -0.2717
     95  NE2       39.3700   -7.2310   12.6090 N.am  239  GLN239     -0.0878
     96  N         37.1010  -14.4300   15.5650 N.3   249  ILE249     -0.1245
     97  CA        36.0370  -13.4430   15.7330 C.3   249  ILE249      0.1561
     98  C         35.2600  -13.2740   14.4120 C.2   249  ILE249      0.2260
     99  O         34.0260  -13.1740   14.4620 O.2   249  ILE249     -0.2867
    100  CB        36.5610  -12.1450   16.3900 C.3   249  ILE249      0.0252
    101  CG1       36.5210  -12.2820   17.9490 C.3   249  ILE249      0.0019
    102  CG2       35.7510  -10.8890   15.9640 C.3   249  ILE249      0.0019
    103  CD1       37.2880  -13.4350   18.6080 C.3   249  ILE249      0.0001
    104  N         31.2100  -13.6030   14.0380 N.3   253  ILE253     -0.1231
    105  CA        30.4410  -12.5140   13.4250 C.3   253  ILE253      0.1692
    106  C         29.5900  -13.0780   12.2890 C.2   253  ILE253      0.2592
    107  O         28.3900  -12.8270   12.2580 O.2   253  ILE253     -0.2718
    108  CB        31.3920  -11.3940   12.9200 C.3   253  ILE253      0.0266
    109  CG1       31.8980  -10.4830   14.0780 C.3   253  ILE253      0.0019
    110  CG2       30.7830  -10.5760   11.7780 C.3   253  ILE253      0.0020
    111  CD1       30.8820   -9.4490   14.6030 C.3   253  ILE253      0.0001
    112  N         30.2050  -13.8760   11.3880 N.am  254  TYR254     -0.1976
    113  CA        29.4400  -14.4120   10.2600 C.3   254  TYR254      0.1639
    114  C         28.4830  -15.5330   10.6580 C.2   254  TYR254      0.2290
    115  O         27.4120  -15.6270   10.0510 O.2   254  TYR254     -0.2864
    116  CB        30.3380  -14.7600    9.0810 C.3   254  TYR254      0.0560
    117  CG        30.8640  -13.4680    8.4990 C.ar  254  TYR254     -0.0198
    118  CD1       30.0550  -12.6590    7.7010 C.ar  254  TYR254     -0.0009
    119  CD2       32.1290  -12.9980    8.8330 C.ar  254  TYR254     -0.0009
    120  CE1       30.5160  -11.4390    7.2070 C.ar  254  TYR254      0.0417
    121  CE2       32.6010  -11.7820    8.3470 C.ar  254  TYR254      0.0417
    122  CZ        31.7920  -11.0060    7.5360 C.ar  254  TYR254      0.1957
    123  OH        32.2660   -9.8010    7.0870 O.3   254  TYR254     -0.2866
    124  N         25.6630  -13.2290   11.7200 N.3   257  PHE257     -0.1241
    125  CA        25.0940  -12.5630   10.5380 C.3   257  PHE257      0.1605
    126  C         24.3320  -13.5390    9.6130 C.2   257  PHE257      0.2264
    127  O         23.2350  -13.2140    9.1530 O.2   257  PHE257     -0.2867
    128  CB        26.2220  -11.9220    9.7220 C.3   257  PHE257      0.0534
    129  CG        26.7750  -10.6200   10.2330 C.ar  257  PHE257     -0.0203
    130  CD1       26.3470  -10.0870   11.4480 C.ar  257  PHE257     -0.0042
    131  CD2       27.7230   -9.9140    9.4970 C.ar  257  PHE257     -0.0042
    132  CE1       26.8800   -8.8870   11.9240 C.ar  257  PHE257     -0.0003
    133  CE2       28.2300   -8.7050    9.9600 C.ar  257  PHE257     -0.0003
    134  CZ        27.8050   -8.1970   11.1680 C.ar  257  PHE257     -0.0000
    135  N         26.1670   -9.3770    2.8000 N.3   274  MET274     -0.1245
    136  CA        27.0440   -9.8060    3.9000 C.3   274  MET274      0.1570
    137  C         26.3580  -10.7400    4.9220 C.2   274  MET274      0.2261
    138  O         27.0500  -11.3930    5.7080 O.2   274  MET274     -0.2867
    139  CB        27.6920   -8.6010    4.6030 C.3   274  MET274      0.0387
    140  CG        26.7460   -7.8320    5.5260 C.3   274  MET274      0.0595
    141  SD        27.6200   -6.6250    6.5570 S.3   274  MET274     -0.1393
    142  CE        28.0640   -5.4100    5.3150 C.3   274  MET274      0.0692
    143  N         34.7880   -9.1020    2.4140 N.3   285  LEU285     -0.1231
    144  CA        33.9680   -8.3410    3.3670 C.3   285  LEU285      0.1693
    145  C         34.8140   -7.8390    4.5240 C.2   285  LEU285      0.2591
    146  O         34.6800   -6.6860    4.8940 O.2   285  LEU285     -0.2718
    147  CB        32.7570   -9.1750    3.8570 C.3   285  LEU285      0.0284
    148  CG        31.7410   -9.5120    2.7600 C.3   285  LEU285      0.0019
    149  CD1       30.8560  -10.6570    3.1960 C.3   285  LEU285      0.0001
    150  CD2       30.9390   -8.2660    2.3280 C.3   285  LEU285      0.0001
    151  N         35.7300   -8.6700    5.0390 N.am  286  GLN286     -0.1979
    152  CA        36.6120   -8.2590    6.1340 C.3   286  GLN286      0.1601
    153  C         37.6340   -7.2060    5.6840 C.2   286  GLN286      0.2287
    154  O         37.8970   -6.2810    6.4440 O.2   286  GLN286     -0.2864
    155  CB        37.2520   -9.4650    6.8330 C.3   286  GLN286      0.0394
    156  CG        36.2140  -10.1790    7.7160 C.3   286  GLN286      0.0908
    157  CD        35.7010   -9.2480    8.8030 C.2   286  GLN286      0.2608
    158  OE1       36.4520   -8.8180    9.6780 O.2   286  GLN286     -0.2717
    159  NE2       34.4260   -8.8940    8.7590 N.am  286  GLN286     -0.0878
    160  N         35.6650   -3.9450    5.5680 N.3   289  PHE289     -0.1241
    161  CA        35.3880   -3.5690    6.9560 C.3   289  PHE289      0.1605
    162  C         36.6620   -3.0120    7.6180 C.2   289  PHE289      0.2264
    163  O         36.6050   -1.9800    8.2750 O.2   289  PHE289     -0.2867
    164  CB        34.8200   -4.7540    7.7610 C.3   289  PHE289      0.0534
    165  CG        34.6620   -4.4220    9.2310 C.ar  289  PHE289     -0.0203
    166  CD1       33.5710   -3.6860    9.6810 C.ar  289  PHE289     -0.0042
    167  CD2       35.6310   -4.8030   10.1560 C.ar  289  PHE289     -0.0042
    168  CE1       33.4470   -3.3440   11.0380 C.ar  289  PHE289     -0.0003
    169  CE2       35.5120   -4.4460   11.5100 C.ar  289  PHE289     -0.0003
    170  CZ        34.4200   -3.7290   11.9360 C.ar  289  PHE289     -0.0000
    171  N         36.2050    0.8450    8.1950 N.3   293  ILE293     -0.1245
    172  CA        35.7690    1.0470    9.5820 C.3   293  ILE293      0.1561
    173  C         36.8840    0.9910   10.6400 C.2   293  ILE293      0.2260
    174  O         37.1230    2.0100   11.2910 O.2   293  ILE293     -0.2867
    175  CB        34.6000    0.0580    9.9510 C.3   293  ILE293      0.0252
    176  CG1       33.4680    0.0190    8.8620 C.3   293  ILE293      0.0019
    177  CG2       34.0320    0.3480   11.3640 C.3   293  ILE293      0.0019
    178  CD1       32.7760    1.4380    8.5040 C.3   293  ILE293      0.0001
    179  N         39.5370    4.2460   12.4440 N.3   297  ILE297     -0.1245
    180  CA        39.3410    4.4180   13.8830 C.3   297  ILE297      0.1561
    181  C         40.6880    4.3450   14.6330 C.2   297  ILE297      0.2260
    182  O         40.9780    5.2230   15.4440 O.2   297  ILE297     -0.2867
    183  CB        38.2750    3.4250   14.4600 C.3   297  ILE297      0.0252
    184  CG1       36.8570    3.9380   14.1450 C.3   297  ILE297      0.0019
    185  CG2       38.4430    3.2150   15.9850 C.3   297  ILE297      0.0019
    186  CD1       35.6800    2.9330   14.3340 C.3   297  ILE297      0.0001
@<TRIPOS>BOND
     1   150   148    1
     2   143   144    1
     3   148   149    1
     4   148   147    1
     5   135   136    1
     6   144   147    1
     7   144   145    1
     8   136   139    1
     9   136   137    1
    10   145   146    2
    11   145   151   am
    12   139   140    1
    13   137   138    2
    14   151   152    1
    15   142   141    1
    16   140   141    1
    17   160   161    1
    18   153   152    1
    19   153   154    2
    20   152   155    1
    21   155   156    1
    22   161   162    1
    23   161   164    1
    24   123   122    1
    25   120   122   ar
    26   120   118   ar
    27   122   121   ar
    28   162   163    2
    29   118   117   ar
    30   156   157    1
    31   164   165    1
    32   171   172    1
    33   121   119   ar
    34   117   119   ar
    35   117   116    1
    36   178   176    1
    37   159   157   am
    38   157   158    2
    39   176   175    1
    40   116   113    1
    41   127   126    2
    42   165   166   ar
    43   165   167   ar
    44   131   133   ar
    45   131   129   ar
    46   172   175    1
    47   172   173    1
    48   126   125    1
    49   166   168   ar
    50   128   129    1
    51   128   125    1
    52   175   177    1
    53   133   134   ar
    54   115   114    2
    55   167   169   ar
    56   129   130   ar
    57   113   114    1
    58   113   112    1
    59    45    43    1
    60   125   124    1
    61   173   174    2
    62   168   170   ar
    63   134   132   ar
    64    43    44    1
    65    43    42    1
    66   112   106   am
    67   130   132   ar
    68   169   170   ar
    69   110   108    1
    70    41    40    2
    71   107   106    2
    72   106   105    1
    73    49    48    2
    74    53    55   ar
    75    53    51   ar
    76    42    39    1
    77    55    54   ar
    78    48    47    1
    79   179   180    1
    80    40    39    1
    81    95    93   am
    82   108   105    1
    83   108   109    1
    84    39    38    1
    85   105   104    1
    86    51    50    1
    87    51    52   ar
    88    54    52   ar
    89    93    94    2
    90    93    92    1
    91    47    50    1
    92    47    46    1
    93   180   183    1
    94   180   181    1
    95   109   111    1
    96   184   186    1
    97   184   183    1
    98    92    91    1
    99    36    35   ar
   100    98    99    2
   101    98    97    1
   102   183   185    1
   103    38    32   am
   104    77    76    1
   105   181   182    2
   106    91    88    1
   107    90    89    2
   108    37    35   ar
   109    35    34    1
   110    33    32    2
   111    32    31    1
   112    78    76    1
   113    88    89    1
   114    88    87    1
   115    96    97    1
   116    97   100    1
   117    76    75    1
   118   102   100    1
   119   100   101    1
   120    75    72    1
   121    34    31    1
   122    31    30    1
   123    87    81   am
   124    74    73    2
   125    82    81    2
   126    21    19   ar
   127    21    22   ar
   128    81    80    1
   129    26    25    2
   130     5     6    1
   131     5     2    1
   132    61    60    1
   133    72    73    1
   134    72    71    1
   135    30    25   am
   136    60    62    1
   137    60    57    1
   138     6     7   ar
   139     6     8   ar
   140     7     9   ar
   141    19    18   ar
   142   101   103    1
   143     8    10   ar
   144     9    11   ar
   145    10    11   ar
   146    25    24    1
   147    11    12    1
   148    22    20   ar
   149    83    80    1
   150    83    84    1
   151    59    58    2
   152     1     2    1
   153    71    65   am
   154    80    79    1
   155     2     3    1
   156    58    57    1
   157    57    56    1
   158    86    84   ar
   159    66    65    2
   160    18    20   ar
   161    18    17    1
   162    24    23    1
   163    24    27    1
   164    65    64    1
   165    84    85   ar
   166    70    68   ar
   167    67    68    1
   168    67    64    1
   169    13     3   am
   170    13    14    1
   171    68    69   ar
   172     3     4    2
   173    17    14    1
   174    27    28    1
   175    27    29    1
   176    64    63    1
   177    14    15    1
   178    15    16    2
