@<TRIPOS>MOLECULE
tmp/6b97A00.pdb
 198 190 0 0 0
SMALL
GASTEIGER

@<TRIPOS>ATOM
      1  N         28.4010  -14.0520   18.5400 N.3    82  TYR82      -0.1227
      2  CA        29.2600  -12.9010   18.8090 C.3    82  TYR82       0.1736
      3  C         28.7890  -11.9630   19.9370 C.2    82  TYR82       0.2595
      4  O         29.5560  -11.7170   20.8620 O.2    82  TYR82      -0.2718
      5  CB        29.5150  -12.0740   17.5200 C.3    82  TYR82       0.0548
      6  CG        30.4950  -10.9360   17.7190 C.ar   82  TYR82      -0.0200
      7  CD1       31.8730  -11.1770   17.8080 C.ar   82  TYR82      -0.0009
      8  CD2       30.0510   -9.6250   17.8680 C.ar   82  TYR82      -0.0009
      9  CE1       32.7790  -10.1320   18.0130 C.ar   82  TYR82       0.0417
     10  CE2       30.9530   -8.5690   18.0360 C.ar   82  TYR82       0.0417
     11  CZ        32.3130   -8.8320   18.1160 C.ar   82  TYR82       0.1957
     12  OH        33.1900   -7.7980   18.2930 O.3    82  TYR82      -0.2866
     13  N         27.5680  -11.4370   19.8510 N.am   83  HIS83      -0.1975
     14  CA        27.0650  -10.4460   20.8230 C.3    83  HIS83       0.1656
     15  C         26.5940  -11.0590   22.1390 C.2    83  HIS83       0.2291
     16  O         25.4100  -10.9900   22.5010 O.2    83  HIS83      -0.2864
     17  CB        25.9770   -9.5850   20.1620 C.3    83  HIS83       0.0771
     18  CG        26.5370   -8.6450   19.1320 C.ar   83  HIS83       0.0820
     19  ND1       26.3720   -8.8810   17.7810 N.ar   83  HIS83      -0.2267
     20  CD2       27.2710   -7.5210   19.2930 C.ar   83  HIS83       0.1154
     21  CE1       26.9770   -7.8790   17.1610 C.ar   83  HIS83       0.1986
     22  NE2       27.5570   -7.0470   18.0310 N.ar   83  HIS83      -0.2212
     23  N         21.2890   -8.1240   23.4480 N.3   127  HIS127     -0.1241
     24  CA        21.3830   -8.1250   21.9920 C.3   127  HIS127      0.1621
     25  C         20.7660   -9.4860   21.5010 C.2   127  HIS127      0.2264
     26  O         20.9280  -10.5160   22.1470 O.2   127  HIS127     -0.2867
     27  CB        22.8760   -8.0050   21.5760 C.3   127  HIS127      0.0745
     28  CG        23.0810   -7.6360   20.1430 C.ar  127  HIS127      0.0817
     29  ND1       22.8300   -8.5410   19.1200 N.ar  127  HIS127     -0.2268
     30  CD2       23.5460   -6.4820   19.6080 C.ar  127  HIS127      0.1154
     31  CE1       23.1030   -7.8890   18.0010 C.ar  127  HIS127      0.1986
     32  NE2       23.5210   -6.6380   18.2500 N.ar  127  HIS127     -0.2212
     33  N         27.0050    5.8020   20.9000 N.3   194  ALA194     -0.1231
     34  CA        28.1510    5.9570   19.9910 C.3   194  ALA194      0.1694
     35  C         28.5220    4.6080   19.3350 C.2   194  ALA194      0.2593
     36  O         29.2450    4.5960   18.3320 O.2   194  ALA194     -0.2718
     37  CB        29.3530    6.5230   20.7520 C.3   194  ALA194      0.0304
     38  N         28.0350    3.4770   19.9030 N.am  195  THR195     -0.1939
     39  CA        28.3200    2.1350   19.3410 C.3   195  THR195      0.2028
     40  C         27.5380    1.8430   18.0510 C.2   195  THR195      0.2642
     41  O         27.8030    0.8210   17.3990 O.2   195  THR195     -0.2714
     42  CB        28.1320    1.0330   20.3720 C.3   195  THR195      0.1808
     43  OG1       26.7590    1.0270   20.7580 O.3   195  THR195     -0.2208
     44  CG2       29.0360    1.1900   21.5710 C.3   195  THR195      0.0379
     45  N         26.5910    2.7310   17.6520 N.am  196  ASP196     -0.1957
     46  CA        25.8770    2.5170   16.4010 C.3   196  ASP196      0.1840
     47  C         26.8060    2.9990   15.2970 C.2   196  ASP196      0.2621
     48  O         27.1830    4.1710   15.2940 O.2   196  ASP196     -0.2715
     49  CB        24.5720    3.3170   16.3610 C.3   196  ASP196      0.1450
     50  CG        23.6840    3.0690   15.1500 C.2   196  ASP196      0.3671
     51  OD1       22.5510    3.5750   15.1440 O.co2 196  ASP196     -0.2456
     52  OD2       24.1310    2.3600   14.2030 O.co2 196  ASP196     -0.2456
     53  N         27.1760    2.0890   14.3620 N.am  197  LEU197     -0.1977
     54  CA        28.0510    2.4180   13.2340 C.3   197  LEU197      0.1596
     55  C         27.5070    3.6360   12.4770 C.2   197  LEU197      0.2287
     56  O         28.2920    4.4990   12.0900 O.2   197  LEU197     -0.2864
     57  CB        28.2070    1.2200   12.2830 C.3   197  LEU197      0.0297
     58  CG        29.0940    1.4420   11.0320 C.3   197  LEU197      0.0022
     59  CD1       30.4850    1.9990   11.4100 C.3   197  LEU197      0.0001
     60  CD2       29.2650    0.1570   10.2680 C.3   197  LEU197      0.0001
     61  N         28.7470    6.6630   14.0820 N.3   200  HIS200     -0.1241
     62  CA        30.1680    6.8120   13.7870 C.3   200  HIS200      0.1621
     63  C         30.3300    7.4110   12.3730 C.2   200  HIS200      0.2264
     64  O         31.1170    8.3410   12.2210 O.2   200  HIS200     -0.2867
     65  CB        30.9230    5.4780   13.8950 C.3   200  HIS200      0.0745
     66  CG        32.3550    5.6230   13.4850 C.ar  200  HIS200      0.0817
     67  ND1       33.2510    6.3590   14.2510 N.ar  200  HIS200     -0.2268
     68  CD2       32.9910    5.1660   12.3810 C.ar  200  HIS200      0.1154
     69  CE1       34.4010    6.3170   13.5950 C.ar  200  HIS200      0.1986
     70  NE2       34.2970    5.6090   12.4670 N.ar  200  HIS200     -0.2212
     71  N         34.1380    3.2140   20.3170 N.3   232  THR232     -0.1218
     72  CA        34.2240    2.4120   19.0690 C.3   232  THR232      0.1862
     73  C         35.5460    1.6060   19.0140 C.2   232  THR232      0.2287
     74  O         35.5510    0.4930   18.4630 O.2   232  THR232     -0.2866
     75  CB        33.9660    3.2460   17.8100 C.3   232  THR232      0.1770
     76  OG1       34.9730    4.2460   17.6570 O.3   232  THR232     -0.2211
     77  CG2       32.5380    3.8530   17.7740 C.3   232  THR232      0.0375
     78  N         34.9020   -1.3600   21.1540 N.3   235  ASP235     -0.1225
     79  CA        33.9830   -2.2410   20.4430 C.3   235  ASP235      0.1805
     80  C         34.6400   -3.1200   19.4020 C.2   235  ASP235      0.2597
     81  O         34.3030   -4.2900   19.3020 O.2   235  ASP235     -0.2718
     82  CB        32.8180   -1.4670   19.8150 C.3   235  ASP235      0.1424
     83  CG        31.4620   -2.1440   19.9040 C.2   235  ASP235      0.3668
     84  OD1       31.4120   -3.3710   20.2140 O.co2 235  ASP235     -0.2456
     85  OD2       30.4560   -1.4570   19.6720 O.co2 235  ASP235     -0.2456
     86  N         35.5930   -2.5710   18.6680 N.am  236  LEU236     -0.1979
     87  CA        36.2870   -3.2760   17.5830 C.3   236  LEU236      0.1596
     88  C         37.6560   -3.7760   17.9780 C.2   236  LEU236      0.2287
     89  O         38.3950   -4.2270   17.1110 O.2   236  LEU236     -0.2864
     90  CB        36.4090   -2.2940   16.3920 C.3   236  LEU236      0.0297
     91  CG        35.0960   -1.7320   15.8230 C.3   236  LEU236      0.0022
     92  CD1       35.3700   -0.8790   14.6080 C.3   236  LEU236      0.0001
     93  CD2       34.0850   -2.8540   15.4670 C.3   236  LEU236      0.0001
     94  N         40.0460   -6.6940   16.6430 N.3   239  GLN239     -0.1245
     95  CA        40.8550   -6.4550   15.4320 C.3   239  GLN239      0.1566
     96  C         42.3280   -6.0980   15.7040 C.2   239  GLN239      0.2260
     97  O         43.1800   -6.1820   14.7890 O.2   239  GLN239     -0.2867
     98  CB        40.1920   -5.3870   14.5350 C.3   239  GLN239      0.0367
     99  CG        38.7500   -5.7170   14.1120 C.3   239  GLN239      0.0905
    100  CD        38.6470   -7.0860   13.4720 C.2   239  GLN239      0.2608
    101  OE1       39.3600   -7.4350   12.5270 O.2   239  GLN239     -0.2717
    102  NE2       37.7770   -7.9020   13.9900 N.am  239  GLN239     -0.0878
    103  N         36.9190  -14.3020   15.3850 N.3   249  ILE249     -0.1231
    104  CA        35.8290  -13.3270   15.5110 C.3   249  ILE249      0.1692
    105  C         35.0660  -13.2270   14.1740 C.2   249  ILE249      0.2591
    106  O         33.8440  -13.1420   14.2120 O.2   249  ILE249     -0.2718
    107  CB        36.3170  -11.9900   16.1360 C.3   249  ILE249      0.0266
    108  CG1       36.2740  -12.0880   17.6910 C.3   249  ILE249      0.0019
    109  CG2       35.5000  -10.7730   15.6560 C.3   249  ILE249      0.0020
    110  CD1       36.9420  -13.2670   18.3880 C.3   249  ILE249      0.0001
    111  N         35.7640  -13.3510   13.0160 N.am  250  ALA250     -0.1980
    112  CA        35.1010  -13.3430   11.7050 C.3   250  ALA250      0.1597
    113  C         34.1460  -14.5360   11.6410 C.2   250  ALA250      0.2287
    114  O         33.0130  -14.3820   11.2040 O.2   250  ALA250     -0.2864
    115  CB        36.1260  -13.4190   10.5730 C.3   250  ALA250      0.0319
    116  N         31.0830  -13.6210   14.0430 N.3   253  ILE253     -0.1231
    117  CA        30.3120  -12.5160   13.4500 C.3   253  ILE253      0.1692
    118  C         29.5160  -13.0110   12.2470 C.2   253  ILE253      0.2592
    119  O         28.3210  -12.7670   12.1720 O.2   253  ILE253     -0.2718
    120  CB        31.2730  -11.3190   13.1140 C.3   253  ILE253      0.0266
    121  CG1       31.2790  -10.2860   14.2570 C.3   253  ILE253      0.0019
    122  CG2       30.9770  -10.6280   11.7610 C.3   253  ILE253      0.0020
    123  CD1       29.9220   -9.3720   14.3340 C.3   253  ILE253      0.0001
    124  N         30.1630  -13.7530   11.3340 N.am  254  TYR254     -0.1976
    125  CA        29.4470  -14.2420   10.1570 C.3   254  TYR254      0.1639
    126  C         28.4450  -15.3530   10.4770 C.2   254  TYR254      0.2290
    127  O         27.3850  -15.3670    9.8570 O.2   254  TYR254     -0.2864
    128  CB        30.4190  -14.5860    9.0170 C.3   254  TYR254      0.0560
    129  CG        30.9390  -13.2850    8.4540 C.ar  254  TYR254     -0.0198
    130  CD1       32.1500  -12.7550    8.8850 C.ar  254  TYR254     -0.0009
    131  CD2       30.1520  -12.5050    7.6080 C.ar  254  TYR254     -0.0009
    132  CE1       32.6010  -11.5170    8.4310 C.ar  254  TYR254      0.0417
    133  CE2       30.5900  -11.2630    7.1590 C.ar  254  TYR254      0.0417
    134  CZ        31.8180  -10.7770    7.5710 C.ar  254  TYR254      0.1957
    135  OH        32.2780   -9.5640    7.1300 O.3   254  TYR254     -0.2866
    136  N         25.5420  -13.2510   11.5870 N.3   257  PHE257     -0.1241
    137  CA        24.9840  -12.5580   10.4200 C.3   257  PHE257      0.1605
    138  C         24.2150  -13.5110    9.5180 C.2   257  PHE257      0.2264
    139  O         23.0910  -13.1900    9.0960 O.2   257  PHE257     -0.2867
    140  CB        26.1240  -11.8950    9.6070 C.3   257  PHE257      0.0534
    141  CG        26.7390  -10.6470   10.1900 C.ar  257  PHE257     -0.0203
    142  CD1       26.3150  -10.1460   11.4230 C.ar  257  PHE257     -0.0042
    143  CD2       27.7350   -9.9610    9.5040 C.ar  257  PHE257     -0.0042
    144  CE1       26.8770   -8.9870   11.9550 C.ar  257  PHE257     -0.0003
    145  CE2       28.2900   -8.7900   10.0320 C.ar  257  PHE257     -0.0003
    146  CZ        27.8540   -8.3130   11.2530 C.ar  257  PHE257     -0.0000
    147  N         26.0530   -9.3200    2.6990 N.3   274  MET274     -0.1245
    148  CA        26.9810   -9.7360    3.7760 C.3   274  MET274      0.1570
    149  C         26.3540  -10.6670    4.8070 C.2   274  MET274      0.2261
    150  O         27.0670  -11.3320    5.5700 O.2   274  MET274     -0.2867
    151  CB        27.6330   -8.5280    4.4640 C.3   274  MET274      0.0387
    152  CG        26.6780   -7.7010    5.3310 C.3   274  MET274      0.0595
    153  SD        27.5450   -6.5410    6.4130 S.3   274  MET274     -0.1393
    154  CE        28.1670   -5.3580    5.2000 C.3   274  MET274      0.0692
    155  N         34.7090   -9.0720    2.5140 N.3   285  LEU285     -0.1231
    156  CA        33.9080   -8.3100    3.4620 C.3   285  LEU285      0.1693
    157  C         34.7310   -7.8550    4.6570 C.2   285  LEU285      0.2591
    158  O         34.5850   -6.7100    5.0760 O.2   285  LEU285     -0.2718
    159  CB        32.7040   -9.1310    3.9140 C.3   285  LEU285      0.0284
    160  CG        31.6780   -9.4330    2.8300 C.3   285  LEU285      0.0019
    161  CD1       30.7390  -10.5100    3.3030 C.3   285  LEU285      0.0001
    162  CD2       30.9170   -8.1700    2.4070 C.3   285  LEU285      0.0001
    163  N         35.5870   -8.7410    5.1880 N.am  286  GLN286     -0.1979
    164  CA        36.4710   -8.4640    6.3270 C.3   286  GLN286      0.1601
    165  C         37.4820   -7.4010    5.9470 C.2   286  GLN286      0.2287
    166  O         37.6790   -6.4670    6.7230 O.2   286  GLN286     -0.2864
    167  CB        37.1360   -9.7570    6.8030 C.3   286  GLN286      0.0394
    168  CG        38.2200   -9.5910    7.8490 C.3   286  GLN286      0.0908
    169  CD        37.7320   -9.4400    9.2790 C.2   286  GLN286      0.2608
    170  OE1       36.5940   -9.7930    9.6250 O.2   286  GLN286     -0.2717
    171  NE2       38.6010   -8.9060   10.1430 N.am  286  GLN286     -0.0878
    172  N         35.6740   -4.0750    5.7310 N.3   289  PHE289     -0.1241
    173  CA        35.3580   -3.6310    7.0900 C.3   289  PHE289      0.1605
    174  C         36.6230   -3.0780    7.7540 C.2   289  PHE289      0.2264
    175  O         36.5730   -2.0340    8.4000 O.2   289  PHE289     -0.2867
    176  CB        34.7690   -4.7930    7.9290 C.3   289  PHE289      0.0534
    177  CG        34.4360   -4.3560    9.3350 C.ar  289  PHE289     -0.0203
    178  CD1       33.2400   -3.6990    9.6120 C.ar  289  PHE289     -0.0042
    179  CD2       35.3390   -4.5570   10.3770 C.ar  289  PHE289     -0.0042
    180  CE1       32.9510   -3.2570   10.9050 C.ar  289  PHE289     -0.0003
    181  CE2       35.0460   -4.1220   11.6740 C.ar  289  PHE289     -0.0003
    182  CZ        33.8520   -3.4850   11.9280 C.ar  289  PHE289     -0.0000
    183  N         36.1470    0.7810    8.1790 N.3   293  ILE293     -0.1245
    184  CA        35.7110    1.0080    9.5450 C.3   293  ILE293      0.1561
    185  C         36.8110    0.9180   10.6080 C.2   293  ILE293      0.2260
    186  O         37.0320    1.9120   11.3000 O.2   293  ILE293     -0.2867
    187  CB        34.5090    0.0650    9.9010 C.3   293  ILE293      0.0252
    188  CG1       33.3860    0.0790    8.7980 C.3   293  ILE293      0.0019
    189  CG2       33.9590    0.3700   11.2970 C.3   293  ILE293      0.0019
    190  CD1       32.7970    1.4940    8.3790 C.3   293  ILE293      0.0001
    191  N         39.5380    4.1570   12.5420 N.3   297  ILE297     -0.1245
    192  CA        39.3210    4.3900   13.9660 C.3   297  ILE297      0.1561
    193  C         40.6870    4.3090   14.7100 C.2   297  ILE297      0.2260
    194  O         41.0100    5.1690   15.5380 O.2   297  ILE297     -0.2867
    195  CB        38.2470    3.4040   14.5380 C.3   297  ILE297      0.0252
    196  CG1       36.8280    3.9100   14.2000 C.3   297  ILE297      0.0019
    197  CG2       38.3800    3.2140   16.0580 C.3   297  ILE297      0.0019
    198  CD1       35.6680    2.8930   14.4920 C.3   297  ILE297      0.0001
@<TRIPOS>BOND
     1   162   160    1
     2   155   156    1
     3   147   148    1
     4   160   161    1
     5   160   159    1
     6   156   159    1
     7   156   157    1
     8   148   151    1
     9   148   149    1
    10   151   152    1
    11   157   158    2
    12   157   163   am
    13   149   150    2
    14   163   164    1
    15   154   153    1
    16   152   153    1
    17   172   173    1
    18   165   164    1
    19   165   166    2
    20   164   167    1
    21   167   168    1
    22   173   174    1
    23   173   176    1
    24   135   134    1
    25   133   134   ar
    26   133   131   ar
    27   134   132   ar
    28   131   129   ar
    29   174   175    2
    30   168   169    1
    31   176   177    1
    32   183   184    1
    33   190   188    1
    34   132   130   ar
    35   129   130   ar
    36   129   128    1
    37   188   187    1
    38   128   125    1
    39   139   138    2
    40   169   170    2
    41   169   171   am
    42   177   178   ar
    43   177   179   ar
    44   143   145   ar
    45   143   141   ar
    46   138   137    1
    47   184   187    1
    48   184   185    1
    49   140   141    1
    50   140   137    1
    51   178   180   ar
    52   127   126    2
    53   187   189    1
    54   145   146   ar
    55   125   126    1
    56   125   124    1
    57   141   142   ar
    58    60    58    1
    59   179   181   ar
    60   137   136    1
    61   115   112    1
    62   185   186    2
    63   180   182   ar
    64    58    59    1
    65    58    57    1
    66   114   113    2
    67   146   144   ar
    68   124   118   am
    69   142   144   ar
    70   113   112    1
    71   181   182   ar
    72   112   111    1
    73   122   120    1
    74    56    55    2
    75   119   118    2
    76    64    63    2
    77   118   117    1
    78    57    54    1
    79    63    62    1
    80    68    70   ar
    81    68    66   ar
    82    70    69   ar
    83    55    54    1
    84   101   100    2
    85   191   192    1
    86   111   105   am
    87   120   117    1
    88   120   121    1
    89    54    53    1
    90   117   116    1
    91   100   102   am
    92   100    99    1
    93    66    65    1
    94    66    67   ar
    95    69    67   ar
    96    62    65    1
    97    62    61    1
    98   192   195    1
    99   192   193    1
   100    99    98    1
   101   105   106    2
   102   105   104    1
   103   196   198    1
   104   196   195    1
   105    52    50   ar
   106   121   123    1
   107    53    47   am
   108    98    95    1
   109   195   197    1
   110    92    91    1
   111   193   194    2
   112    97    96    2
   113    51    50   ar
   114    50    49    1
   115    48    47    2
   116    47    46    1
   117   103   104    1
   118    95    96    1
   119    95    94    1
   120    93    91    1
   121   104   107    1
   122   109   107    1
   123    91    90    1
   124   107   108    1
   125    49    46    1
   126    90    87    1
   127    46    45    1
   128    89    88    2
   129    21    19   ar
   130    21    22   ar
   131    41    40    2
   132     5     6    1
   133     5     2    1
   134    87    88    1
   135    87    86    1
   136    45    40   am
   137    76    75    1
   138   108   110    1
   139     6     7   ar
   140     6     8   ar
   141    77    75    1
   142    19    18   ar
   143     7     9   ar
   144    75    72    1
   145     8    10   ar
   146    31    32   ar
   147    31    29   ar
   148     9    11   ar
   149    22    20   ar
   150    10    11   ar
   151    40    39    1
   152    11    12    1
   153    32    30   ar
   154    36    35    2
   155    74    73    2
   156     1     2    1
   157    86    80   am
   158     2     3    1
   159    73    72    1
   160    72    71    1
   161    29    28   ar
   162    18    20   ar
   163    18    17    1
   164    81    80    2
   165    35    38   am
   166    35    34    1
   167    39    38    1
   168    39    42    1
   169    80    79    1
   170    30    28   ar
   171    85    83   ar
   172    82    83    1
   173    82    79    1
   174    13     3   am
   175    13    14    1
   176    83    84   ar
   177     3     4    2
   178    34    37    1
   179    34    33    1
   180    28    27    1
   181    17    14    1
   182    42    43    1
   183    42    44    1
   184    79    78    1
   185    14    15    1
   186    25    24    1
   187    25    26    2
   188    27    24    1
   189    24    23    1
   190    15    16    2
