@<TRIPOS>MOLECULE
tmp/6b98A00.pdb
 135 130 0 0 0
SMALL
GASTEIGER

@<TRIPOS>ATOM
      1  N         28.5800  -13.5350   18.4260 N.3    83  TYR83      -0.1227
      2  CA        29.4690  -12.4090   18.6940 C.3    83  TYR83       0.1736
      3  C         29.0000  -11.4440   19.7900 C.2    83  TYR83       0.2595
      4  O         29.8030  -11.1320   20.6770 O.2    83  TYR83      -0.2718
      5  CB        29.7920  -11.6200   17.3940 C.3    83  TYR83       0.0548
      6  CG        30.7970  -10.5000   17.5980 C.ar   83  TYR83      -0.0200
      7  CD1       32.1540  -10.7700   17.7200 C.ar   83  TYR83      -0.0009
      8  CD2       30.3800   -9.1750   17.7250 C.ar   83  TYR83      -0.0009
      9  CE1       33.0780   -9.7520   17.9420 C.ar   83  TYR83       0.0417
     10  CE2       31.2990   -8.1470   17.9400 C.ar   83  TYR83       0.0417
     11  CZ        32.6490   -8.4420   18.0320 C.ar   83  TYR83       0.1957
     12  OH        33.5750   -7.4500   18.2130 O.3    83  TYR83      -0.2866
     13  N         27.7420  -10.9350   19.7190 N.am   84  HIS84      -0.1975
     14  CA        27.2550   -9.9260   20.6740 C.3    84  HIS84       0.1656
     15  C         26.7810  -10.5220   22.0010 C.2    84  HIS84       0.2291
     16  O         25.6200  -10.3910   22.3910 O.2    84  HIS84      -0.2864
     17  CB        26.1920   -9.0250   20.0320 C.3    84  HIS84       0.0771
     18  CG        26.7380   -8.1720   18.9280 C.ar   84  HIS84       0.0820
     19  ND1       26.6260   -8.5500   17.6130 N.ar   84  HIS84      -0.2267
     20  CD2       27.4190   -7.0060   18.9880 C.ar   84  HIS84       0.1154
     21  CE1       27.2210   -7.6030   16.9090 C.ar   84  HIS84       0.1986
     22  NE2       27.6990   -6.6440   17.6940 N.ar   84  HIS84      -0.2212
     23  N         27.3100    2.1550   14.2920 N.3   198  LEU198     -0.1245
     24  CA        28.2260    2.4520   13.1800 C.3   198  LEU198      0.1561
     25  C         27.6550    3.5220   12.2160 C.2   198  LEU198      0.2260
     26  O         28.4280    4.2500   11.6000 O.2   198  LEU198     -0.2867
     27  CB        28.6540    1.1720   12.4350 C.3   198  LEU198      0.0270
     28  CG        30.0690    0.6140   12.7540 C.3   198  LEU198      0.0019
     29  CD1       30.2530    0.3250   14.2440 C.3   198  LEU198      0.0001
     30  CD2       30.3240   -0.6770   12.0030 C.3   198  LEU198      0.0001
     31  N         35.1370   -1.0280   21.0310 N.3   236  ASP236     -0.1225
     32  CA        34.2160   -1.9130   20.3270 C.3   236  ASP236      0.1805
     33  C         34.8810   -2.7600   19.2650 C.2   236  ASP236      0.2597
     34  O         34.5300   -3.9370   19.1190 O.2   236  ASP236     -0.2718
     35  CB        33.0630   -1.1130   19.7090 C.3   236  ASP236      0.1424
     36  CG        31.7380   -1.8670   19.6830 C.2   236  ASP236      0.3668
     37  OD1       31.6870   -3.0030   20.1880 O.co2 236  ASP236     -0.2456
     38  OD2       30.7530   -1.3070   19.1910 O.co2 236  ASP236     -0.2456
     39  N         35.8340   -2.1620   18.5150 N.am  237  LEU237     -0.1979
     40  CA        36.5190   -2.8680   17.4300 C.3   237  LEU237      0.1596
     41  C         37.9130   -3.3780   17.7840 C.2   237  LEU237      0.2287
     42  O         38.6420   -3.8310   16.9000 O.2   237  LEU237     -0.2864
     43  CB        36.5660   -1.9790   16.1830 C.3   237  LEU237      0.0297
     44  CG        35.2740   -1.3590   15.6630 C.3   237  LEU237      0.0022
     45  CD1       35.5420   -0.6690   14.3440 C.3   237  LEU237      0.0001
     46  CD2       34.1850   -2.4130   15.4330 C.3   237  LEU237      0.0001
     47  N         40.3070   -6.2530   16.4340 N.3   240  GLN240     -0.1245
     48  CA        41.1230   -6.0620   15.2180 C.3   240  GLN240      0.1566
     49  C         42.5830   -5.6980   15.5490 C.2   240  GLN240      0.2260
     50  O         43.4500   -5.7860   14.6750 O.2   240  GLN240     -0.2867
     51  CB        40.5090   -5.0040   14.2680 C.3   240  GLN240      0.0367
     52  CG        39.0800   -5.3160   13.7670 C.3   240  GLN240      0.0905
     53  CD        38.9280   -6.7250   13.2570 C.2   240  GLN240      0.2608
     54  OE1       39.6730   -7.1560   12.3790 O.2   240  GLN240     -0.2717
     55  NE2       37.9640   -7.4770   13.8060 N.am  240  GLN240     -0.0878
     56  N         37.0810  -13.8490   15.2850 N.3   250  ILE250     -0.1231
     57  CA        36.0160  -12.8360   15.3710 C.3   250  ILE250      0.1692
     58  C         35.2300  -12.7780   14.0590 C.2   250  ILE250      0.2591
     59  O         33.9940  -12.6640   14.0970 O.2   250  ILE250     -0.2718
     60  CB        36.5660  -11.4800   15.9030 C.3   250  ILE250      0.0266
     61  CG1       36.5640  -11.5120   17.4610 C.3   250  ILE250      0.0019
     62  CG2       35.7130  -10.2740   15.4670 C.3   250  ILE250      0.0020
     63  CD1       37.2750  -12.7260   18.2260 C.3   250  ILE250      0.0001
     64  N         35.9340  -12.9350   12.9120 N.am  251  ALA251     -0.1980
     65  CA        35.3050  -12.9770   11.5950 C.3   251  ALA251      0.1597
     66  C         34.3610  -14.1590   11.5530 C.2   251  ALA251      0.2287
     67  O         33.2330  -14.0160   11.1020 O.2   251  ALA251     -0.2864
     68  CB        36.3660  -13.1010   10.5060 C.3   251  ALA251      0.0319
     69  N         31.2450  -13.2030   13.9660 N.3   254  ILE254     -0.1231
     70  CA        30.3530  -12.1580   13.4840 C.3   254  ILE254      0.1692
     71  C         29.6080  -12.6260   12.2260 C.2   254  ILE254      0.2592
     72  O         28.4140  -12.3600   12.1310 O.2   254  ILE254     -0.2718
     73  CB        31.0050  -10.7620   13.3640 C.3   254  ILE254      0.0266
     74  CG1       29.9210   -9.6720   13.6390 C.3   254  ILE254      0.0019
     75  CG2       31.7310  -10.5350   12.0260 C.3   254  ILE254      0.0020
     76  CD1       30.4320   -8.4190   14.2100 C.3   254  ILE254      0.0001
     77  N         30.2700  -13.3700   11.3130 N.am  255  TYR255     -0.1976
     78  CA        29.5750  -13.8680   10.1130 C.3   255  TYR255      0.1639
     79  C         28.6350  -15.0030   10.4360 C.2   255  TYR255      0.2290
     80  O         27.6230  -15.1210    9.7610 O.2   255  TYR255     -0.2864
     81  CB        30.5350  -14.1890    8.9580 C.3   255  TYR255      0.0560
     82  CG        31.0890  -12.8930    8.4290 C.ar  255  TYR255     -0.0198
     83  CD1       30.2900  -12.0200    7.6910 C.ar  255  TYR255     -0.0009
     84  CD2       32.3670  -12.4680    8.7760 C.ar  255  TYR255     -0.0009
     85  CE1       30.7690  -10.7800    7.2700 C.ar  255  TYR255      0.0417
     86  CE2       32.8670  -11.2400    8.3380 C.ar  255  TYR255      0.0417
     87  CZ        32.0660  -10.4040    7.5780 C.ar  255  TYR255      0.1957
     88  OH        32.5520   -9.1840    7.1720 O.3   255  TYR255     -0.2866
     89  N         25.7410  -12.9040   11.5200 N.3   258  PHE258     -0.1241
     90  CA        25.1550  -12.2350   10.3520 C.3   258  PHE258      0.1605
     91  C         24.3650  -13.2040    9.4720 C.2   258  PHE258      0.2264
     92  O         23.2620  -12.8600    9.0400 O.2   258  PHE258     -0.2867
     93  CB        26.2380  -11.5340    9.5030 C.3   258  PHE258      0.0534
     94  CG        26.8150  -10.2420   10.0220 C.ar  258  PHE258     -0.0203
     95  CD1       26.3170   -9.6480   11.1830 C.ar  258  PHE258     -0.0042
     96  CD2       27.8490   -9.6020    9.3440 C.ar  258  PHE258     -0.0042
     97  CE1       26.8560   -8.4540   11.6550 C.ar  258  PHE258     -0.0003
     98  CE2       28.3860   -8.4040    9.8200 C.ar  258  PHE258     -0.0003
     99  CZ        27.8740   -7.8250   10.9530 C.ar  258  PHE258     -0.0000
    100  N         26.3030   -9.1220    2.7700 N.3   275  MET275     -0.1245
    101  CA        27.1810   -9.5800    3.8500 C.3   275  MET275      0.1570
    102  C         26.5130  -10.5460    4.8680 C.2   275  MET275      0.2261
    103  O         27.2270  -11.1880    5.6430 O.2   275  MET275     -0.2867
    104  CB        27.8490   -8.3920    4.5630 C.3   275  MET275      0.0387
    105  CG        27.0130   -7.7570    5.6720 C.3   275  MET275      0.0595
    106  SD        27.9060   -6.4940    6.6170 S.3   275  MET275     -0.1393
    107  CE        28.0650   -5.2020    5.3680 C.3   275  MET275      0.0692
    108  N         34.8700   -9.0030    2.4550 N.3   286  LEU286     -0.1231
    109  CA        34.0480   -8.2120    3.3890 C.3   286  LEU286      0.1693
    110  C         34.8700   -7.7470    4.5890 C.2   286  LEU286      0.2591
    111  O         34.7530   -6.5970    4.9990 O.2   286  LEU286     -0.2718
    112  CB        32.8080   -8.9880    3.8270 C.3   286  LEU286      0.0284
    113  CG        31.7970   -9.2810    2.7050 C.3   286  LEU286      0.0019
    114  CD1       30.8720  -10.3760    3.1110 C.3   286  LEU286      0.0001
    115  CD2       31.0170   -8.0380    2.2970 C.3   286  LEU286      0.0001
    116  N         35.7370   -8.6260    5.1080 N.am  287  GLN287     -0.1979
    117  CA        36.6250   -8.3160    6.2280 C.3   287  GLN287      0.1601
    118  C         37.6310   -7.2300    5.7970 C.2   287  GLN287      0.2287
    119  O         37.8430   -6.2710    6.5470 O.2   287  GLN287     -0.2864
    120  CB        37.3400   -9.5860    6.7280 C.3   287  GLN287      0.0394
    121  CG        38.4000   -9.3200    7.7930 C.3   287  GLN287      0.0908
    122  CD        37.8920   -9.1090    9.2060 C.2   287  GLN287      0.2608
    123  OE1       36.7790   -9.5250    9.5820 O.2   287  GLN287     -0.2717
    124  NE2       38.7170   -8.4570   10.0220 N.am  287  GLN287     -0.0878
    125  N         35.7790   -3.8350    5.5580 N.3   290  PHE290     -0.1241
    126  CA        35.5030   -3.3510    6.9130 C.3   290  PHE290      0.1605
    127  C         36.7920   -2.7980    7.5310 C.2   290  PHE290      0.2264
    128  O         36.7670   -1.7250    8.1180 O.2   290  PHE290     -0.2867
    129  CB        34.8740   -4.4720    7.7710 C.3   290  PHE290      0.0534
    130  CG        34.7330   -4.0980    9.2250 C.ar  290  PHE290     -0.0203
    131  CD1       33.6930   -3.2810    9.6500 C.ar  290  PHE290     -0.0042
    132  CD2       35.6500   -4.5530   10.1680 C.ar  290  PHE290     -0.0042
    133  CE1       33.5820   -2.9120   10.9880 C.ar  290  PHE290     -0.0003
    134  CE2       35.5350   -4.1860   11.5090 C.ar  290  PHE290     -0.0003
    135  CZ        34.4990   -3.3770   11.9090 C.ar  290  PHE290     -0.0000
@<TRIPOS>BOND
     1   115   113    1
     2   108   109    1
     3   113   114    1
     4   113   112    1
     5   100   101    1
     6   109   112    1
     7   109   110    1
     8   101   104    1
     9   101   102    1
    10   104   105    1
    11   110   111    2
    12   110   116   am
    13   102   103    2
    14   116   117    1
    15   107   106    1
    16   125   126    1
    17   105   106    1
    18   118   117    1
    19   118   119    2
    20   117   120    1
    21   120   121    1
    22   126   127    1
    23   126   129    1
    24    88    87    1
    25    85    87   ar
    26    85    83   ar
    27   127   128    2
    28    87    86   ar
    29    83    82   ar
    30   129   130    1
    31   121   122    1
    32    86    84   ar
    33    82    84   ar
    34    82    81    1
    35    81    78    1
    36    92    91    2
    37   122   123    2
    38   122   124   am
    39   130   131   ar
    40   130   132   ar
    41    96    98   ar
    42    96    94   ar
    43    91    90    1
    44    93    94    1
    45    93    90    1
    46   131   133   ar
    47    80    79    2
    48    98    99   ar
    49    94    95   ar
    50    78    79    1
    51    78    77    1
    52   132   134   ar
    53    90    89    1
    54    68    65    1
    55    99    97   ar
    56   133   135   ar
    57    67    66    2
    58    95    97   ar
    59    77    71   am
    60   134   135   ar
    61    66    65    1
    62    65    64    1
    63    26    25    2
    64    30    28    1
    65    75    73    1
    66    72    71    2
    67    25    24    1
    68    71    70    1
    69    54    53    2
    70    27    28    1
    71    27    24    1
    72    28    29    1
    73    64    58   am
    74    24    23    1
    75    53    52    1
    76    53    55   am
    77    73    70    1
    78    73    74    1
    79    70    69    1
    80    74    76    1
    81    52    51    1
    82    58    59    2
    83    58    57    1
    84    51    48    1
    85    45    44    1
    86    50    49    2
    87    48    49    1
    88    48    47    1
    89    56    57    1
    90    57    60    1
    91    46    44    1
    92    62    60    1
    93    44    43    1
    94    60    61    1
    95    43    40    1
    96    42    41    2
    97    21    19   ar
    98    21    22   ar
    99     5     6    1
   100     5     2    1
   101    40    41    1
   102    40    39    1
   103    61    63    1
   104     6     7   ar
   105     6     8   ar
   106    19    18   ar
   107    22    20   ar
   108     7     9   ar
   109     8    10   ar
   110    10    11   ar
   111     9    11   ar
   112    11    12    1
   113     1     2    1
   114    39    33   am
   115     2     3    1
   116    18    20   ar
   117    18    17    1
   118    34    33    2
   119    38    36   ar
   120    33    32    1
   121    36    35    1
   122    36    37   ar
   123    35    32    1
   124    13     3   am
   125    13    14    1
   126     3     4    2
   127    17    14    1
   128    32    31    1
   129    14    15    1
   130    15    16    2
