@<TRIPOS>MOLECULE
tmp/6b99A00.pdb
 137 127 0 0 0
SMALL
GASTEIGER

@<TRIPOS>ATOM
      1  N         -2.6780  -11.2350  -16.1850 N.3    33  LEU33      -0.1245
      2  CA        -3.2940  -11.8080  -17.3820 C.3    33  LEU33       0.1561
      3  C         -4.6270  -11.1180  -17.6810 C.2    33  LEU33       0.2260
      4  O         -4.9400  -10.8520  -18.8420 O.2    33  LEU33      -0.2867
      5  CB        -3.4910  -13.3080  -17.2230 C.3    33  LEU33       0.0270
      6  CG        -2.1890  -14.0960  -17.0720 C.3    33  LEU33       0.0019
      7  CD1       -2.5130  -15.5680  -16.8550 C.3    33  LEU33       0.0001
      8  CD2       -1.3320  -13.9220  -18.3080 C.3    33  LEU33       0.0001
      9  N         -3.8820   -7.8000  -19.2720 N.3    36  ASN36      -0.1225
     10  CA        -3.5110   -7.9820  -20.6700 C.3    36  ASN36       0.1785
     11  C         -4.7400   -8.1910  -21.5450 C.2    36  ASN36       0.2597
     12  O         -4.8310   -7.6380  -22.6530 O.2    36  ASN36      -0.2718
     13  CB        -2.5590   -9.1630  -20.8190 C.3    36  ASN36       0.1169
     14  CG        -1.1670   -8.8310  -20.3740 C.2    36  ASN36       0.2627
     15  OD1       -0.8370   -7.6610  -20.1510 O.2    36  ASN36      -0.2716
     16  ND2       -0.3300   -9.8490  -20.2530 N.am   36  ASN36      -0.0877
     17  N         -5.6820   -8.9930  -21.0470 N.am   37  SER37      -0.1952
     18  CA        -6.9560   -9.2000  -21.7440 C.3    37  SER37       0.1924
     19  C         -7.7370   -7.8990  -21.8810 C.2    37  SER37       0.2314
     20  O         -8.2980   -7.6180  -22.9430 O.2    37  SER37      -0.2863
     21  CB        -7.8300  -10.2170  -21.0070 C.3    37  SER37       0.2116
     22  OG        -7.2790  -11.5200  -21.0920 O.3    37  SER37      -0.2180
     23  N         -6.3540   -5.8480  -24.6120 N.3    40  ALA40      -0.1245
     24  CA        -6.6510   -6.3930  -25.9320 C.3    40  ALA40       0.1562
     25  C         -8.0910   -6.0770  -26.3140 C.2    40  ALA40       0.2260
     26  O         -8.4240   -5.9040  -27.4940 O.2    40  ALA40      -0.2867
     27  CB        -6.4030   -7.9100  -25.9530 C.3    40  ALA40       0.0290
     28  N         -8.3070   -2.4930  -27.4590 N.3    43  LYS43      -0.1245
     29  CA        -7.8010   -2.3360  -28.8250 C.3    43  LYS43       0.1561
     30  C         -8.8570   -2.6750  -29.8710 C.2    43  LYS43       0.2260
     31  O         -9.0070   -1.9460  -30.8510 O.2    43  LYS43      -0.2867
     32  CB        -6.5630   -3.2040  -29.0640 C.3    43  LYS43       0.0271
     33  CG        -5.2990   -2.6950  -28.4050 C.3    43  LYS43       0.0035
     34  CD        -4.1290   -3.6070  -28.6990 C.3    43  LYS43       0.0206
     35  CE        -4.0480   -4.7530  -27.7150 C.3    43  LYS43       0.1093
     36  NZ        -3.0260   -5.7290  -28.1710 N.3    43  LYS43      -0.1314
     37  N        -10.2520  -14.2460  -23.6050 N.3    78  ASP78      -0.1239
     38  CA       -10.8450  -12.9600  -23.9360 C.3    78  ASP78       0.1674
     39  C        -11.2670  -12.9310  -25.3920 C.2    78  ASP78       0.2266
     40  O        -10.8330  -13.7650  -26.1930 O.2    78  ASP78      -0.2867
     41  CB        -9.8800  -11.7970  -23.6280 C.3    78  ASP78       0.1410
     42  CG        -8.6280  -11.8070  -24.4990 C.2    78  ASP78       0.3668
     43  OD1       -8.7320  -11.6330  -25.7350 O.co2  78  ASP78      -0.2456
     44  OD2       -7.5220  -11.9500  -23.9350 O.co2  78  ASP78      -0.2456
     45  N         -6.6690  -10.2440  -30.3220 N.3    82  GLY82      -0.1210
     46  CA        -5.9360  -11.4330  -30.7420 C.3    82  GLY82       0.1956
     47  C         -4.5400  -11.0810  -31.2330 C.2    82  GLY82       0.2611
     48  O         -4.1460   -9.9050  -31.2410 O.2    82  GLY82      -0.2717
     49  N         -3.7940  -12.1040  -31.6340 N.am   83  MET83      -0.1979
     50  CA        -2.4360  -11.9330  -32.1510 C.3    83  MET83       0.1605
     51  C         -2.2380  -12.6910  -33.4580 C.2    83  MET83       0.2287
     52  O         -2.7130  -13.8150  -33.6140 O.2    83  MET83      -0.2864
     53  CB        -1.3990  -12.4090  -31.1220 C.3    83  MET83       0.0413
     54  CG        -1.1570  -11.4080  -29.9950 C.3    83  MET83       0.0598
     55  SD         0.0170  -12.0470  -28.7740 S.3    83  MET83      -0.1393
     56  CE        -1.1010  -13.0690  -27.8420 C.3    83  MET83       0.0692
     57  N          6.0820  -10.6450  -29.6970 N.3    91  ASN91      -0.1225
     58  CA         5.6500  -10.1650  -28.3890 C.3    91  ASN91       0.1785
     59  C          5.9550  -11.1190  -27.2520 C.2    91  ASN91       0.2597
     60  O          6.2160  -10.6750  -26.1370 O.2    91  ASN91      -0.2718
     61  CB         4.1510   -9.8660  -28.3890 C.3    91  ASN91       0.1169
     62  CG         3.7910   -8.7010  -29.2840 C.2    91  ASN91       0.2627
     63  OD1        4.6600   -7.9360  -29.7050 O.2    91  ASN91      -0.2716
     64  ND2        2.5050   -8.5670  -29.5910 N.am   91  ASN91      -0.0877
     65  N          5.9120  -12.4270  -27.5090 N.am   92  LEU92      -0.1980
     66  CA         6.1580  -13.3750  -26.4320 C.3    92  LEU92       0.1596
     67  C          7.6040  -13.8690  -26.4500 C.2    92  LEU92       0.2287
     68  O          8.1340  -14.3280  -25.4260 O.2    92  LEU92      -0.2864
     69  CB         5.1830  -14.5610  -26.5150 C.3    92  LEU92       0.0297
     70  CG         3.6980  -14.2060  -26.4160 C.3    92  LEU92       0.0022
     71  CD1        2.8380  -15.4780  -26.3350 C.3    92  LEU92       0.0001
     72  CD2        3.4350  -13.3040  -25.2070 C.3    92  LEU92       0.0001
     73  N         10.4860  -12.0970  -27.6370 N.3    94  THR94      -0.1218
     74  CA        11.5420  -11.0830  -27.6260 C.3    94  THR94       0.1862
     75  C         11.1760   -9.9400  -26.6870 C.2    94  THR94       0.2287
     76  O         10.0350   -9.8500  -26.2150 O.2    94  THR94      -0.2866
     77  CB        11.8130  -10.4910  -29.0360 C.3    94  THR94       0.1770
     78  OG1       10.7520   -9.5970  -29.4200 O.3    94  THR94      -0.2211
     79  CG2       11.9470  -11.5980  -30.0810 C.3    94  THR94       0.0375
     80  N          8.5230   -4.2410  -24.4780 N.3    98  SER98      -0.1217
     81  CA         8.4620   -4.4630  -23.0320 C.3    98  SER98       0.1889
     82  C          9.5770   -3.7710  -22.2640 C.2    98  SER98       0.2288
     83  O         10.6130   -3.4100  -22.8270 O.2    98  SER98      -0.2866
     84  CB         8.5220   -5.9580  -22.7240 C.3    98  SER98       0.2089
     85  OG         9.8630   -6.4280  -22.8070 O.3    98  SER98      -0.2183
     86  N          5.5590   -4.0550  -18.2720 N.3   120  GLY120     -0.1210
     87  CA         5.0330   -4.6240  -19.5050 C.3   120  GLY120      0.1956
     88  C          5.3760   -6.0820  -19.7600 C.2   120  GLY120      0.2612
     89  O          5.3180   -6.5500  -20.8970 O.2   120  GLY120     -0.2717
     90  N          5.7330   -6.8070  -18.7030 N.am  121  VAL121     -0.1965
     91  CA         6.0870   -8.2130  -18.8530 C.3   121  VAL121      0.1727
     92  C          5.2780   -9.0950  -17.9150 C.2   121  VAL121      0.2617
     93  O          5.6710  -10.2240  -17.6270 O.2   121  VAL121     -0.2715
     94  CB         7.5950   -8.4660  -18.6060 C.3   121  VAL121      0.0290
     95  CG1        8.4100   -7.9900  -19.7910 C.3   121  VAL121      0.0023
     96  CG2        8.0660   -7.8000  -17.3260 C.3   121  VAL121      0.0023
     97  N          4.1240   -8.5920  -17.4810 N.am  122  GLY122     -0.1940
     98  CA         3.2470   -9.3520  -16.6000 C.3   122  GLY122      0.2014
     99  C          2.8710  -10.7430  -17.0910 C.2   122  GLY122      0.2639
    100  O          2.6450  -11.6370  -16.2750 O.2   122  GLY122     -0.2714
    101  N          2.8050  -10.9400  -18.4050 N.am  123  PHE123     -0.1959
    102  CA         2.5070  -12.2700  -18.9460 C.3   123  PHE123      0.1771
    103  C          3.4040  -13.3650  -18.3530 C.2   123  PHE123      0.2619
    104  O          2.9350  -14.4630  -18.0460 O.2   123  PHE123     -0.2715
    105  CB         2.6510  -12.2730  -20.4760 C.3   123  PHE123      0.0574
    106  CG         2.5920  -13.6470  -21.0860 C.ar  123  PHE123     -0.0200
    107  CD1        1.3770  -14.2490  -21.3570 C.ar  123  PHE123     -0.0042
    108  CD2        3.7590  -14.3300  -21.3970 C.ar  123  PHE123     -0.0042
    109  CE1        1.3250  -15.5140  -21.9210 C.ar  123  PHE123     -0.0003
    110  CE2        3.7140  -15.5980  -21.9490 C.ar  123  PHE123     -0.0003
    111  CZ         2.5010  -16.1900  -22.2090 C.ar  123  PHE123     -0.0000
    112  N          4.6940  -13.0760  -18.1740 N.am  124  TYR124     -0.1974
    113  CA         5.6020  -14.1340  -17.7250 C.3   124  TYR124      0.1639
    114  C          5.3860  -14.5000  -16.2540 C.2   124  TYR124      0.2290
    115  O          5.9210  -15.5030  -15.7900 O.2   124  TYR124     -0.2864
    116  CB         7.0700  -13.7460  -17.9760 C.3   124  TYR124      0.0560
    117  CG         7.3820  -13.5240  -19.4330 C.ar  124  TYR124     -0.0198
    118  CD1        7.3530  -14.5750  -20.3380 C.ar  124  TYR124     -0.0009
    119  CD2        7.6970  -12.2560  -19.9010 C.ar  124  TYR124     -0.0009
    120  CE1        7.6250  -14.3560  -21.6920 C.ar  124  TYR124      0.0417
    121  CE2        7.9840  -12.0370  -21.2190 C.ar  124  TYR124      0.0417
    122  CZ         7.9420  -13.0860  -22.1110 C.ar  124  TYR124      0.1957
    123  OH         8.2260  -12.8370  -23.4370 O.3   124  TYR124     -0.2866
    124  N         -8.0110  -14.3580  -27.5270 N.3   169  THR169     -0.1218
    125  CA        -6.8820  -15.1110  -27.0180 C.3   169  THR169      0.1862
    126  C         -7.2980  -15.9590  -25.8260 C.2   169  THR169      0.2287
    127  O         -8.0810  -15.5190  -24.9850 O.2   169  THR169     -0.2866
    128  CB        -5.7420  -14.1460  -26.6280 C.3   169  THR169      0.1770
    129  OG1       -5.3040  -13.4470  -27.8060 O.3   169  THR169     -0.2211
    130  CG2       -4.5540  -14.8960  -26.0270 C.3   169  THR169      0.0375
    131  N         -5.3510  -17.9920  -22.7750 N.3   171  VAL171     -0.1245
    132  CA        -4.1110  -18.3750  -22.1090 C.3   171  VAL171      0.1561
    133  C         -4.3970  -19.5550  -21.1870 C.2   171  VAL171      0.2260
    134  O         -5.1570  -19.4360  -20.2260 O.2   171  VAL171     -0.2867
    135  CB        -3.4990  -17.2140  -21.3110 C.3   171  VAL171      0.0252
    136  CG1       -2.1900  -17.6600  -20.6470 C.3   171  VAL171      0.0019
    137  CG2       -3.2350  -16.0210  -22.2170 C.3   171  VAL171      0.0019
@<TRIPOS>BOND
     1    52    51    2
     2    51    50    1
     3    50    49    1
     4    50    53    1
     5    49    47   am
     6    48    47    2
     7    47    46    1
     8    53    54    1
     9    31    30    2
    10    46    45    1
    11    79    77    1
    12    54    55    1
    13    30    29    1
    14    63    62    2
    15    57    58    1
    16    64    62   am
    17    78    77    1
    18    62    61    1
    19    32    29    1
    20    32    33    1
    21    77    74    1
    22    29    28    1
    23    55    56    1
    24    34    33    1
    25    34    35    1
    26    58    61    1
    27    58    59    1
    28    36    35    1
    29   129   128    1
    30    73    74    1
    31    74    75    1
    32   124   125    1
    33    65    59   am
    34    65    66    1
    35    26    25    2
    36    59    60    2
    37   125   128    1
    38   125   126    1
    39    75    76    2
    40   128   130    1
    41    69    66    1
    42    69    70    1
    43    67    66    1
    44    67    68    2
    45    70    71    1
    46    70    72    1
    47    25    24    1
    48    40    39    2
    49    27    24    1
    50    24    23    1
    51   126   127    2
    52    43    42   ar
    53    39    38    1
    54    42    44   ar
    55    42    41    1
    56    80    81    1
    57    38    41    1
    58    38    37    1
    59   123   122    1
    60    81    84    1
    61    81    82    1
    62    20    19    2
    63    83    82    2
    64    85    84    1
    65   131   132    1
    66    12    11    2
    67   137   135    1
    68   111   110   ar
    69   111   109   ar
    70   122   120   ar
    71   122   121   ar
    72   132   135    1
    73   132   133    1
    74   110   108   ar
    75   109   107   ar
    76    19    18    1
    77    18    17    1
    78    18    21    1
    79   120   118   ar
    80    11    17   am
    81    11    10    1
    82   108   106   ar
    83   107   106   ar
    84   135   136    1
    85   121   119   ar
    86   133   134    2
    87    22    21    1
    88   106   105    1
    89    89    88    2
    90    13    10    1
    91    13    14    1
    92    10     9    1
    93   105   102    1
    94    14    16   am
    95    14    15    2
    96   118   117   ar
    97   119   117   ar
    98    95    94    1
    99    88    87    1
   100    88    90   am
   101    87    86    1
   102   117   116    1
   103   102   101    1
   104   102   103    1
   105    91    90    1
   106    91    94    1
   107    91    92    1
   108     4     3    2
   109    94    96    1
   110   101    99   am
   111   103   112   am
   112   103   104    2
   113     8     6    1
   114   112   113    1
   115   116   113    1
   116    92    93    2
   117    92    97   am
   118   113   114    1
   119     3     2    1
   120    97    98    1
   121     2     5    1
   122     2     1    1
   123     5     6    1
   124    99    98    1
   125    99   100    2
   126     6     7    1
   127   114   115    2
