@<TRIPOS>MOLECULE
tmp/6b9dA00.pdb
 166 164 0 0 0
SMALL
GASTEIGER

@<TRIPOS>ATOM
      1  N          1.4100  -27.2970  -13.5650 N.3    49  ALA49      -0.1231
      2  CA         0.7470  -26.3890  -14.5000 C.3    49  ALA49       0.1694
      3  C         -0.5820  -26.9490  -14.9940 C.2    49  ALA49       0.2592
      4  O         -0.9850  -26.7000  -16.1310 O.2    49  ALA49      -0.2718
      5  CB         1.6560  -26.0400  -15.6840 C.3    49  ALA49       0.0304
      6  N         -1.2900  -27.6710  -14.1240 N.am   50  LYS50      -0.1966
      7  CA        -2.6050  -28.2060  -14.4610 C.3    50  LYS50       0.1728
      8  C         -3.7270  -27.5590  -13.6420 C.2    50  LYS50       0.2617
      9  O         -4.8240  -28.1250  -13.5380 O.2    50  LYS50      -0.2715
     10  CB        -2.6180  -29.7280  -14.2950 C.3    50  LYS50       0.0311
     11  CG        -1.6850  -30.4950  -15.2530 C.3    50  LYS50       0.0038
     12  CD        -2.0530  -30.2560  -16.7270 C.3    50  LYS50       0.0206
     13  CE        -1.1260  -31.0280  -17.6620 C.3    50  LYS50       0.1093
     14  NZ        -1.1880  -30.4980  -19.0650 N.3    50  LYS50      -0.1314
     15  N         -3.4760  -26.3840  -13.0610 N.am   51  GLY51      -0.1940
     16  CA        -4.5210  -25.5930  -12.4340 C.3    51  GLY51       0.2014
     17  C         -4.7430  -25.7990  -10.9490 C.2    51  GLY51       0.2639
     18  O         -5.8130  -25.4320  -10.4450 O.2    51  GLY51      -0.2714
     19  N         -3.7730  -26.3740  -10.2320 N.am   52  LYS52      -0.1963
     20  CA        -3.9490  -26.6740   -8.8160 C.3    52  LYS52       0.1728
     21  C         -4.0340  -25.4020   -7.9780 C.2    52  LYS52       0.2617
     22  O         -4.9440  -25.2570   -7.1580 O.2    52  LYS52      -0.2715
     23  CB        -2.8060  -27.5670   -8.3340 C.3    52  LYS52       0.0311
     24  CG        -2.7210  -28.9000   -9.0920 C.3    52  LYS52       0.0038
     25  CD        -1.7730  -29.8760   -8.4050 C.3    52  LYS52       0.0206
     26  CE        -0.3570  -29.3090   -8.3020 C.3    52  LYS52       0.1093
     27  NZ         0.1970  -28.8240   -9.5940 N.3    52  LYS52      -0.1314
     28  N         -3.0830  -24.4810   -8.1530 N.am   53  SER53      -0.1936
     29  CA        -3.1030  -23.2330   -7.3890 C.3    53  SER53       0.2055
     30  C         -4.3430  -22.4080   -7.7150 C.2    53  SER53       0.2643
     31  O         -4.9200  -21.7530   -6.8360 O.2    53  SER53      -0.2714
     32  CB        -1.8350  -22.4240   -7.6700 C.3    53  SER53       0.2130
     33  OG        -0.6800  -23.1990   -7.4060 O.3    53  SER53      -0.2179
     34  N         -4.7450  -22.4080   -8.9860 N.am   54  PHE54      -0.1973
     35  CA        -5.9680  -21.7250   -9.4010 C.3    54  PHE54       0.1639
     36  C         -7.1670  -22.2840   -8.6470 C.2    54  PHE54       0.2290
     37  O         -7.9820  -21.5330   -8.1010 O.2    54  PHE54      -0.2864
     38  CB        -6.1350  -21.8910  -10.9170 C.3    54  PHE54       0.0560
     39  CG        -7.2820  -21.1200  -11.5240 C.ar   54  PHE54      -0.0200
     40  CD1       -7.1260  -19.7960  -11.8770 C.ar   54  PHE54      -0.0042
     41  CD2       -8.4840  -21.7430  -11.8230 C.ar   54  PHE54      -0.0042
     42  CE1       -8.1680  -19.0840  -12.4610 C.ar   54  PHE54      -0.0003
     43  CE2       -9.5220  -21.0350  -12.4220 C.ar   54  PHE54      -0.0003
     44  CZ        -9.3600  -19.7110  -12.7370 C.ar   54  PHE54      -0.0000
     45  N          0.4470  -19.1120   -5.4590 N.3    81  SER81      -0.1217
     46  CA         0.8880  -18.6060   -6.7580 C.3    81  SER81       0.1889
     47  C          1.3130  -19.7470   -7.6810 C.2    81  SER81       0.2288
     48  O          0.7140  -19.9680   -8.7380 O.2    81  SER81      -0.2866
     49  CB         2.0370  -17.6130   -6.5840 C.3    81  SER81       0.2089
     50  OG         1.6880  -16.5830   -5.6730 O.3    81  SER81      -0.2183
     51  N         -0.7860  -27.3960   -0.9060 N.3   108  ASP108     -0.1239
     52  CA        -0.6000  -27.4450   -2.3490 C.3   108  ASP108      0.1674
     53  C          0.6220  -28.3230   -2.6000 C.2   108  ASP108      0.2266
     54  O          1.7400  -27.9590   -2.2180 O.2   108  ASP108     -0.2867
     55  CB        -0.4060  -26.0450   -2.9220 C.3   108  ASP108      0.1410
     56  CG        -0.4800  -26.0210   -4.4330 C.2   108  ASP108      0.3668
     57  OD1       -0.6040  -27.0960   -5.0370 O.co2 108  ASP108     -0.2456
     58  OD2       -0.3910  -24.9310   -5.0130 O.co2 108  ASP108     -0.2456
     59  N          3.0360  -29.8550   -5.1730 N.3   110  GLN110     -0.1245
     60  CA         3.4730  -29.5790   -6.5300 C.3   110  GLN110      0.1566
     61  C          4.5100  -30.5980   -6.9830 C.2   110  GLN110      0.2260
     62  O          5.4970  -30.8370   -6.2900 O.2   110  GLN110     -0.2867
     63  CB         4.0340  -28.1520   -6.6220 C.3   110  GLN110      0.0367
     64  CG         4.4760  -27.7220   -8.0230 C.3   110  GLN110      0.0905
     65  CD         3.3260  -27.6460   -9.0160 C.2   110  GLN110      0.2608
     66  OE1        2.7290  -28.6610   -9.3680 O.2   110  GLN110     -0.2717
     67  NE2        3.0080  -26.4340   -9.4660 N.am  110  GLN110     -0.0878
     68  N         -9.8350  -32.3310  -14.8750 N.3   168  ARG168     -0.1231
     69  CA        -9.9590  -31.0250  -15.5080 C.3   168  ARG168      0.1694
     70  C        -10.1860  -31.1620  -17.0030 C.2   168  ARG168      0.2592
     71  O         -9.7720  -32.1430  -17.6230 O.2   168  ARG168     -0.2718
     72  CB        -8.7070  -30.1850  -15.2490 C.3   168  ARG168      0.0321
     73  CG        -8.3510  -30.1130  -13.7500 C.3   168  ARG168      0.0489
     74  CD        -9.3570  -29.3090  -12.9330 C.3   168  ARG168      0.2205
     75  NE        -9.0830  -27.8920  -13.1080 N.pl3 168  ARG168     -0.0865
     76  CZ        -8.3550  -27.1710  -12.2590 C.cat 168  ARG168      0.5346
     77  NH1       -7.8570  -27.7420  -11.1640 N.pl3 168  ARG168      0.1354
     78  NH2       -8.1240  -25.8900  -12.5040 N.pl3 168  ARG168      0.1354
     79  N        -10.8460  -30.1590  -17.5840 N.am  169  ASP169     -0.1974
     80  CA       -11.0590  -30.0850  -19.0330 C.3   169  ASP169      0.1709
     81  C        -11.7350  -31.3460  -19.5740 C.2   169  ASP169      0.2293
     82  O        -11.2880  -31.9400  -20.5500 O.2   169  ASP169     -0.2864
     83  CB        -9.7470  -29.8310  -19.7830 C.3   169  ASP169      0.1436
     84  CG        -9.0720  -28.5310  -19.3950 C.2   169  ASP169      0.3671
     85  OD1       -9.6760  -27.7410  -18.6450 O.co2 169  ASP169     -0.2456
     86  OD2       -7.9240  -28.3080  -19.8480 O.co2 169  ASP169     -0.2456
     87  N        -15.5860  -28.8220  -16.3320 N.3   219  PRO219     -0.2102
     88  CA       -15.3990  -28.2850  -17.6810 C.3   219  PRO219      0.1504
     89  C        -14.1120  -27.4910  -17.8220 C.2   219  PRO219      0.2576
     90  O        -13.4990  -27.0330  -16.8520 O.2   219  PRO219     -0.2718
     91  CB       -16.6190  -27.3730  -17.9030 C.3   219  PRO219      0.0282
     92  CG       -17.2790  -27.2260  -16.6250 C.3   219  PRO219      0.0208
     93  CD       -16.8040  -28.3150  -15.6780 C.3   219  PRO219      0.0893
     94  N        -13.7160  -27.3490  -19.0810 N.am  220  HIS220     -0.1963
     95  CA       -12.6890  -26.4010  -19.4870 C.3   220  HIS220      0.1772
     96  C        -13.1060  -24.9840  -19.0720 C.2   220  HIS220      0.2462
     97  O        -14.2950  -24.6340  -19.1510 O.2   220  HIS220     -0.2730
     98  CB       -12.4970  -26.5420  -21.0030 C.3   220  HIS220      0.0785
     99  CG       -11.4420  -25.6700  -21.5970 C.ar  220  HIS220      0.0821
    100  ND1      -10.2200  -26.1600  -22.0160 N.ar  220  HIS220     -0.2267
    101  CD2      -11.4500  -24.3590  -21.9150 C.ar  220  HIS220      0.1154
    102  CE1       -9.5060  -25.1760  -22.5290 C.ar  220  HIS220      0.1986
    103  NE2      -10.2270  -24.0710  -22.4710 N.ar  220  HIS220     -0.2212
    104  N        -12.1820  -24.1650  -18.5660 N.am  221  PRO221     -0.2727
    105  CA       -12.5500  -22.8500  -18.0150 C.3   221  PRO221      0.1402
    106  C        -12.5960  -21.7240  -19.0320 C.2   221  PRO221      0.2269
    107  O        -12.8610  -20.5850  -18.6470 O.2   221  PRO221     -0.2865
    108  CB       -11.4190  -22.5960  -17.0140 C.3   221  PRO221      0.0296
    109  CG       -10.2180  -23.1790  -17.7390 C.3   221  PRO221      0.0237
    110  CD       -10.7440  -24.4420  -18.3920 C.3   221  PRO221      0.0939
    111  N         -8.6390  -18.2030  -19.2740 N.3   225  VAL225     -0.1231
    112  CA        -7.9650  -18.9390  -18.2050 C.3   225  VAL225      0.1692
    113  C         -6.8830  -19.8470  -18.7760 C.2   225  VAL225      0.2592
    114  O         -5.7610  -19.9140  -18.2540 O.2   225  VAL225     -0.2718
    115  CB        -8.9850  -19.7420  -17.3800 C.3   225  VAL225      0.0266
    116  CG1       -8.2670  -20.5800  -16.3260 C.3   225  VAL225      0.0020
    117  CG2       -9.9970  -18.8040  -16.7450 C.3   225  VAL225      0.0020
    118  N         -7.1930  -20.5420  -19.8710 N.am  226  ALA226     -0.1966
    119  CA        -6.3070  -21.5870  -20.3760 C.3   226  ALA226      0.1728
    120  C         -4.9840  -21.0500  -20.9090 C.2   226  ALA226      0.2617
    121  O         -4.0340  -21.8260  -21.0390 O.2   226  ALA226     -0.2715
    122  CB        -7.0070  -22.3920  -21.4750 C.3   226  ALA226      0.0334
    123  N         -4.8880  -19.7590  -21.2320 N.am  227  THR227     -0.1937
    124  CA        -3.7280  -19.2600  -21.9580 C.3   227  THR227      0.2028
    125  C         -2.8270  -18.3000  -21.1840 C.2   227  THR227      0.2642
    126  O         -1.6880  -18.0820  -21.6120 O.2   227  THR227     -0.2714
    127  CB        -4.1760  -18.5710  -23.2530 C.3   227  THR227      0.1808
    128  OG1       -5.0570  -17.4830  -22.9390 O.3   227  THR227     -0.2208
    129  CG2       -4.8900  -19.5810  -24.1630 C.3   227  THR227      0.0379
    130  N         -3.2900  -17.7080  -20.0830 N.am  228  ASN228     -0.1958
    131  CA        -2.4690  -16.7370  -19.3640 C.3   228  ASN228      0.1804
    132  C         -2.0470  -17.2990  -18.0150 C.2   228  ASN228      0.2463
    133  O         -2.9100  -17.6640  -17.2040 O.2   228  ASN228     -0.2730
    134  CB        -3.2080  -15.4140  -19.2070 C.3   228  ASN228      0.1195
    135  CG        -3.2900  -14.6530  -20.5240 C.2   228  ASN228      0.2630
    136  OD1       -4.1210  -14.9660  -21.3840 O.2   228  ASN228     -0.2716
    137  ND2       -2.4020  -13.6700  -20.7040 N.am  228  ASN228     -0.0877
    138  N         -0.7380  -17.3620  -17.7350 N.am  229  PRO229     -0.2727
    139  CA        -0.2820  -17.9500  -16.4560 C.3   229  PRO229      0.1402
    140  C         -0.7800  -17.2170  -15.2240 C.2   229  PRO229      0.2269
    141  O         -1.3180  -17.8470  -14.3030 O.2   229  PRO229     -0.2865
    142  CB         1.2500  -17.8830  -16.5750 C.3   229  PRO229      0.0296
    143  CG         1.5290  -17.6960  -18.0370 C.3   229  PRO229      0.0237
    144  CD         0.3830  -16.9060  -18.5720 C.3   229  PRO229      0.0939
    145  N         -3.3980  -15.2960  -14.5550 N.3   231  PHE231     -0.1241
    146  CA        -4.7010  -14.8590  -15.0490 C.3   231  PHE231      0.1605
    147  C         -5.3300  -13.9150  -14.0320 C.2   231  PHE231      0.2264
    148  O         -5.9370  -14.3450  -13.0490 O.2   231  PHE231     -0.2867
    149  CB        -5.6000  -16.0620  -15.3140 C.3   231  PHE231      0.0534
    150  CG        -7.0130  -15.6910  -15.6220 C.ar  231  PHE231     -0.0203
    151  CD1       -7.3320  -15.1040  -16.8320 C.ar  231  PHE231     -0.0042
    152  CD2       -8.0150  -15.8940  -14.6970 C.ar  231  PHE231     -0.0042
    153  CE1       -8.6270  -14.7470  -17.1150 C.ar  231  PHE231     -0.0003
    154  CE2       -9.3080  -15.5360  -14.9740 C.ar  231  PHE231     -0.0003
    155  CZ        -9.6180  -14.9620  -16.1790 C.ar  231  PHE231     -0.0000
    156  N        -17.9310  -23.6450  -16.2350 N.3   242  PHE242     -0.1241
    157  CA       -16.8830  -23.8820  -15.2470 C.3   242  PHE242      0.1605
    158  C        -17.2850  -23.3180  -13.8870 C.2   242  PHE242      0.2264
    159  O        -17.2040  -24.0080  -12.8610 O.2   242  PHE242     -0.2867
    160  CB       -15.5720  -23.2560  -15.7210 C.3   242  PHE242      0.0534
    161  CG       -14.3920  -23.5020  -14.7950 C.ar  242  PHE242     -0.0203
    162  CD1      -13.6250  -24.6630  -14.9130 C.ar  242  PHE242     -0.0042
    163  CD2      -14.0330  -22.5690  -13.8280 C.ar  242  PHE242     -0.0042
    164  CE1      -12.5210  -24.8810  -14.0830 C.ar  242  PHE242     -0.0003
    165  CE2      -12.9360  -22.7850  -12.9960 C.ar  242  PHE242     -0.0003
    166  CZ       -12.1760  -23.9480  -13.1320 C.ar  242  PHE242     -0.0000
@<TRIPOS>BOND
     1   129   127    1
     2   127   128    1
     3   127   124    1
     4   102   103   ar
     5   102   100   ar
     6   103   101   ar
     7   100    99   ar
     8   124   123    1
     9   124   125    1
    10   101    99   ar
    11   126   125    2
    12    99    98    1
    13   122   119    1
    14   136   135    2
    15   123   120   am
    16   125   130   am
    17   121   120    2
    18    98    95    1
    19   120   119    1
    20   137   135   am
    21    82    81    2
    22   135   134    1
    23   119   118    1
    24   130   131    1
    25   118   113   am
    26    86    84   ar
    27    83    84    1
    28    83    80    1
    29    81    80    1
    30    95    94    1
    31    95    96    1
    32    84    85   ar
    33   131   134    1
    34   131   132    1
    35   111   112    1
    36    97    96    2
    37    94    89   am
    38    96   104   am
    39    14    13    1
    40    80    79    1
    41   106   107    2
    42   106   105    1
    43   113   114    2
    44   113   112    1
    45   144   143    1
    46   144   138    1
    47   104   110    1
    48   104   105    1
    49   110   109    1
    50   112   115    1
    51   143   142    1
    52   105   108    1
    53   132   138   am
    54   132   133    2
    55    91    88    1
    56    91    92    1
    57    89    88    1
    58    89    90    2
    59   109   108    1
    60   138   139    1
    61    88    87    1
    62    13    12    1
    63    71    70    2
    64    79    70   am
    65   115   117    1
    66   115   116    1
    67   153   151   ar
    68   153   155   ar
    69    70    69    1
    70   151   150   ar
    71    12    11    1
    72    92    93    1
    73   142   139    1
    74   139   140    1
    75    87    93    1
    76   156   157    1
    77   155   154   ar
    78     4     3    2
    79   160   157    1
    80   160   161    1
    81     5     2    1
    82   150   149    1
    83   150   152   ar
    84    69    72    1
    85    69    68    1
    86   149   146    1
    87    11    10    1
    88    72    73    1
    89   157   158    1
    90   140   141    2
    91   146   145    1
    92   146   147    1
    93     3     2    1
    94     3     6   am
    95   154   152   ar
    96   162   161   ar
    97   162   164   ar
    98   161   163   ar
    99     2     1    1
   100     7    10    1
   101     7     6    1
   102     7     8    1
   103   164   166   ar
   104   147   148    2
   105   158   159    2
   106   163   165   ar
   107    73    74    1
   108     8     9    2
   109     8    15   am
   110   166   165   ar
   111    75    74    1
   112    75    76    2
   113    15    16    1
   114    44    42   ar
   115    44    43   ar
   116    78    76    1
   117    42    40   ar
   118    16    17    1
   119    43    41   ar
   120    76    77    1
   121    40    39   ar
   122    41    39   ar
   123    39    38    1
   124    17    18    2
   125    17    19   am
   126    38    35    1
   127    19    20    1
   128    27    26    1
   129    67    65   am
   130    35    34    1
   131    35    36    1
   132    66    65    2
   133    24    25    1
   134    24    23    1
   135    65    64    1
   136    34    30   am
   137    20    23    1
   138    20    21    1
   139    48    47    2
   140    36    37    2
   141    25    26    1
   142    28    21   am
   143    28    29    1
   144    64    63    1
   145    21    22    2
   146    30    29    1
   147    30    31    2
   148    47    46    1
   149    32    33    1
   150    32    29    1
   151    61    60    1
   152    61    62    2
   153    46    49    1
   154    46    45    1
   155    63    60    1
   156    49    50    1
   157    60    59    1
   158    57    56   ar
   159    58    56   ar
   160    56    55    1
   161    55    52    1
   162    53    52    1
   163    53    54    2
   164    52    51    1
