@<TRIPOS>MOLECULE
tmp/6b9iA00.pdb
 212 200 0 0 0
SMALL
GASTEIGER

@<TRIPOS>ATOM
      1  N          5.6640   -2.7890   -8.5060 N.3    28  LEU28      -0.1245
      2  CA         4.8950   -3.5090   -7.5060 C.3    28  LEU28       0.1561
      3  C          5.8200   -3.9340   -6.3660 C.2    28  LEU28       0.2260
      4  O          7.0460   -3.8540   -6.4660 O.2    28  LEU28      -0.2867
      5  CB         4.1940   -4.7170   -8.1320 C.3    28  LEU28       0.0270
      6  CG         3.0240   -4.3940   -9.0740 C.3    28  LEU28       0.0019
      7  CD1        3.4860   -4.1040  -10.5130 C.3    28  LEU28       0.0001
      8  CD2        1.9950   -5.5150   -9.0660 C.3    28  LEU28       0.0001
      9  N          1.5420   -9.3490   -1.9790 N.3    62  THR62      -0.1203
     10  CA         2.0080   -8.3870   -2.9620 C.3    62  THR62       0.1994
     11  C          1.0790   -7.1820   -3.0070 C.2    62  THR62       0.2619
     12  O         -0.0640   -7.2290   -2.5420 O.2    62  THR62      -0.2717
     13  CB         2.1040   -9.0220   -4.3530 C.3    62  THR62       0.1784
     14  OG1        0.8000   -9.4390   -4.7790 O.3    62  THR62      -0.2211
     15  CG2        3.0290  -10.2300   -4.3170 C.3    62  THR62       0.0376
     16  N          1.5910   -6.0940   -3.5780 N.am   63  SER63      -0.1937
     17  CA         0.8370   -4.8580   -3.7310 C.3    63  SER63       0.2055
     18  C          1.0060   -4.3410   -5.1500 C.2    63  SER63       0.2642
     19  O          2.1210   -4.3160   -5.6810 O.2    63  SER63      -0.2714
     20  CB         1.2940   -3.7870   -2.7290 C.3    63  SER63       0.2130
     21  OG         1.2400   -4.2660   -1.3980 O.3    63  SER63      -0.2179
     22  N         -0.1050   -3.9420   -5.7590 N.am   64  GLN64      -0.1976
     23  CA        -0.0830   -3.2110   -7.0090 C.3    64  GLN64       0.1601
     24  C          0.5910   -1.8600   -6.7830 C.2    64  GLN64       0.2287
     25  O          0.7620   -1.4270   -5.6420 O.2    64  GLN64      -0.2864
     26  CB        -1.5110   -3.0170   -7.5100 C.3    64  GLN64       0.0394
     27  CG        -2.3280   -2.1320   -6.5740 C.3    64  GLN64       0.0908
     28  CD        -3.6510   -1.7180   -7.1630 C.2    64  GLN64       0.2608
     29  OE1       -4.5960   -2.5020   -7.1990 O.2    64  GLN64      -0.2717
     30  NE2       -3.7300   -0.4790   -7.6270 N.am   64  GLN64      -0.0878
     31  N         -0.1200   -5.1060  -16.2160 N.3    90  LEU90      -0.1245
     32  CA        -0.4760   -6.4490  -15.7840 C.3    90  LEU90       0.1561
     33  C         -1.9620   -6.7070  -16.0030 C.2    90  LEU90       0.2260
     34  O         -2.7820   -5.7850  -15.9880 O.2    90  LEU90      -0.2867
     35  CB        -0.1190   -6.5990  -14.3010 C.3    90  LEU90       0.0270
     36  CG        -0.1980   -7.9290  -13.5560 C.3    90  LEU90       0.0019
     37  CD1        0.7510   -8.9350  -14.1600 C.3    90  LEU90       0.0001
     38  CD2        0.1540   -7.7000  -12.0930 C.3    90  LEU90       0.0001
     39  N         -6.0120  -10.3160  -12.5960 N.3    94  ILE94      -0.1231
     40  CA        -5.2370  -10.7860  -11.4550 C.3    94  ILE94       0.1692
     41  C         -4.7140   -9.6520  -10.5890 C.2    94  ILE94       0.2593
     42  O         -4.1030   -9.9170   -9.5480 O.2    94  ILE94      -0.2718
     43  CB        -4.0700  -11.6890  -11.9060 C.3    94  ILE94       0.0266
     44  CG1       -3.0420  -10.8800  -12.7000 C.3    94  ILE94       0.0019
     45  CG2       -4.5910  -12.8490  -12.7440 C.3    94  ILE94       0.0020
     46  CD1       -1.9300  -11.7240  -13.3030 C.3    94  ILE94       0.0001
     47  N         -4.9380   -8.4000  -10.9760 N.am   95  SER95      -0.1938
     48  CA        -4.3920   -7.2780  -10.2300 C.3    95  SER95       0.2055
     49  C         -5.1940   -6.0300  -10.5580 C.2    95  SER95       0.2643
     50  O         -5.7680   -5.9120  -11.6430 O.2    95  SER95      -0.2714
     51  CB        -2.9110   -7.0620  -10.5580 C.3    95  SER95       0.2130
     52  OG        -2.3820   -5.9190   -9.9120 O.3    95  SER95      -0.2179
     53  N         -5.2230   -5.1030   -9.6080 N.am   96  GLY96      -0.1954
     54  CA        -5.8110   -3.8010   -9.8290 C.3    96  GLY96       0.1869
     55  C         -4.8610   -2.7880  -10.4270 C.2    96  GLY96       0.2309
     56  O         -5.2190   -1.6100  -10.5360 O.2    96  GLY96      -0.2863
     57  N         -2.2120  -10.3090  -19.5310 N.3   120  LEU120     -0.1231
     58  CA        -1.2580  -11.3550  -19.1810 C.3   120  LEU120      0.1693
     59  C         -0.2180  -10.8110  -18.2070 C.2   120  LEU120      0.2592
     60  O         -0.5370   -9.9430  -17.3870 O.2   120  LEU120     -0.2718
     61  CB        -0.6080  -11.9440  -20.4340 C.3   120  LEU120      0.0284
     62  CG        -0.7650  -13.4730  -20.4490 C.3   120  LEU120      0.0019
     63  CD1       -0.8380  -14.0260  -21.8650 C.3   120  LEU120      0.0001
     64  CD2        0.3530  -14.1540  -19.6550 C.3   120  LEU120      0.0001
     65  N          1.0150  -11.3070  -18.2800 N.am  121  ALA121     -0.1966
     66  CA         2.0090  -11.0320  -17.2500 C.3   121  ALA121      0.1728
     67  C          3.3910  -11.4100  -17.7670 C.2   121  ALA121      0.2616
     68  O          3.5290  -12.0980  -18.7810 O.2   121  ALA121     -0.2715
     69  CB         1.6980  -11.7980  -15.9630 C.3   121  ALA121      0.0334
     70  N          4.4100  -10.9650  -17.0370 N.am  122  ALA122     -0.1977
     71  CA         5.8190  -11.2870  -17.3080 C.3   122  ALA122      0.1597
     72  C          6.1850  -10.7770  -18.7090 C.2   122  ALA122      0.2287
     73  O          5.5920   -9.8110  -19.2070 O.2   122  ALA122     -0.2864
     74  CB         6.0590  -12.7720  -17.0830 C.3   122  ALA122      0.0319
     75  N          5.5400  -11.7760  -21.5950 N.3   124  ILE124     -0.1245
     76  CA         4.4520  -11.6730  -22.5620 C.3   124  ILE124      0.1561
     77  C          3.7950  -10.3000  -22.4590 C.2   124  ILE124      0.2260
     78  O          3.5100   -9.6540  -23.4740 O.2   124  ILE124     -0.2867
     79  CB         3.4350  -12.8130  -22.3730 C.3   124  ILE124      0.0252
     80  CG1        4.1070  -14.1740  -22.5790 C.3   124  ILE124      0.0019
     81  CG2        2.2820  -12.6480  -23.3410 C.3   124  ILE124      0.0019
     82  CD1        4.6600  -14.3860  -23.9880 C.3   124  ILE124      0.0001
     83  N         -0.8800  -18.0400  -23.0540 N.3   158  ALA158     -0.1231
     84  CA         0.1220  -18.6750  -22.2070 C.3   158  ALA158      0.1694
     85  C         -0.4860  -19.8620  -21.4740 C.2   158  ALA158      0.2592
     86  O         -1.6600  -19.8410  -21.0900 O.2   158  ALA158     -0.2718
     87  CB         0.7050  -17.6830  -21.1920 C.3   158  ALA158      0.0304
     88  N          0.3410  -20.8880  -21.2800 N.am  159  TYR159     -0.1962
     89  CA         0.0550  -22.0340  -20.4320 C.3   159  TYR159      0.1771
     90  C          1.1320  -22.1110  -19.3580 C.2   159  TYR159      0.2619
     91  O          2.2310  -21.5730  -19.5270 O.2   159  TYR159     -0.2715
     92  CB         0.0180  -23.3360  -21.2520 C.3   159  TYR159      0.0574
     93  CG        -1.1580  -23.4340  -22.2040 C.ar  159  TYR159     -0.0198
     94  CD1       -1.1870  -22.6990  -23.3830 C.ar  159  TYR159     -0.0009
     95  CD2       -2.2350  -24.2650  -21.9250 C.ar  159  TYR159     -0.0009
     96  CE1       -2.2590  -22.7830  -24.2540 C.ar  159  TYR159      0.0417
     97  CE2       -3.3110  -24.3580  -22.7910 C.ar  159  TYR159      0.0417
     98  CZ        -3.3170  -23.6140  -23.9530 C.ar  159  TYR159      0.1957
     99  OH        -4.3850  -23.7010  -24.8170 O.3   159  TYR159     -0.2866
    100  N          0.8300  -22.7790  -18.2430 N.am  160  LEU160     -0.1977
    101  CA         1.8040  -22.8060  -17.1570 C.3   160  LEU160      0.1596
    102  C          1.5070  -23.9270  -16.1700 C.2   160  LEU160      0.2287
    103  O          0.4080  -24.4850  -16.1350 O.2   160  LEU160     -0.2864
    104  CB         1.8480  -21.4690  -16.4090 C.3   160  LEU160      0.0297
    105  CG         0.6430  -21.2060  -15.5100 C.3   160  LEU160      0.0022
    106  CD1        1.0680  -20.4680  -14.2440 C.3   160  LEU160      0.0001
    107  CD2       -0.4110  -20.4200  -16.2700 C.3   160  LEU160      0.0001
    108  N         -1.3940  -19.8850   -5.3020 N.3   168  LEU168     -0.1245
    109  CA        -2.4480  -19.3130   -6.1330 C.3   168  LEU168      0.1561
    110  C         -3.7880  -19.3460   -5.4120 C.2   168  LEU168      0.2260
    111  O         -4.5840  -18.4050   -5.5170 O.2   168  LEU168     -0.2867
    112  CB        -2.5400  -20.0650   -7.4600 C.3   168  LEU168      0.0270
    113  CG        -1.4650  -19.7820   -8.5100 C.3   168  LEU168      0.0019
    114  CD1       -1.5870  -20.7600   -9.6700 C.3   168  LEU168      0.0001
    115  CD2       -1.5510  -18.3440   -8.9960 C.3   168  LEU168      0.0001
    116  N         -5.8690  -16.2010   -7.0470 N.3   173  ARG173     -0.1245
    117  CA        -5.4910  -15.9440   -8.4310 C.3   173  ARG173      0.1563
    118  C         -5.6410  -17.1650   -9.3310 C.2   173  ARG173      0.2260
    119  O         -5.2820  -17.0980  -10.5110 O.2   173  ARG173     -0.2867
    120  CB        -4.0600  -15.4070   -8.4970 C.3   173  ARG173      0.0307
    121  CG        -3.9830  -13.8830   -8.5850 C.3   173  ARG173      0.0489
    122  CD        -4.4970  -13.2080   -7.3130 C.3   173  ARG173      0.2205
    123  NE        -4.3780  -11.7530   -7.3870 N.pl3 173  ARG173     -0.0865
    124  CZ        -4.4800  -10.9340   -6.3460 C.cat 173  ARG173      0.5346
    125  NH1       -4.6960  -11.4210   -5.1300 N.pl3 173  ARG173      0.1354
    126  NH2       -4.3560   -9.6240   -6.5180 N.pl3 173  ARG173      0.1354
    127  N         -3.9990  -19.0780  -19.3550 N.3   188  PHE188     -0.1241
    128  CA        -4.6470  -17.7800  -19.2930 C.3   188  PHE188      0.1605
    129  C         -5.8470  -17.7530  -20.2310 C.2   188  PHE188      0.2264
    130  O         -5.7780  -18.2210  -21.3720 O.2   188  PHE188     -0.2867
    131  CB        -3.6660  -16.6640  -19.6580 C.3   188  PHE188      0.0534
    132  CG        -2.9880  -16.0430  -18.4700 C.ar  188  PHE188     -0.0203
    133  CD1       -1.9020  -16.6580  -17.8740 C.ar  188  PHE188     -0.0042
    134  CD2       -3.4430  -14.8420  -17.9470 C.ar  188  PHE188     -0.0042
    135  CE1       -1.2850  -16.0890  -16.7770 C.ar  188  PHE188     -0.0003
    136  CE2       -2.8280  -14.2650  -16.8540 C.ar  188  PHE188     -0.0003
    137  CZ        -1.7510  -14.8860  -16.2660 C.ar  188  PHE188     -0.0000
    138  N         -6.4860  -16.9560  -14.7430 N.3   193  ILE193     -0.1245
    139  CA        -5.7950  -18.2420  -14.7250 C.3   193  ILE193      0.1561
    140  C         -6.8010  -19.3240  -14.3560 C.2   193  ILE193      0.2260
    141  O         -7.4040  -19.2800  -13.2760 O.2   193  ILE193     -0.2867
    142  CB        -4.6140  -18.2290  -13.7410 C.3   193  ILE193      0.0252
    143  CG1       -3.6330  -17.1120  -14.1020 C.3   193  ILE193      0.0019
    144  CG2       -3.9100  -19.5850  -13.7300 C.3   193  ILE193      0.0019
    145  CD1       -2.5260  -16.9200  -13.0890 C.3   193  ILE193      0.0001
    146  N          9.2570  -19.0320  -19.7280 N.3   228  ILE228     -0.1245
    147  CA         9.4410  -18.1910  -18.5530 C.3   228  ILE228      0.1561
    148  C          9.5320  -19.1080  -17.3440 C.2   228  ILE228      0.2260
    149  O          8.5400  -19.7380  -16.9540 O.2   228  ILE228     -0.2867
    150  CB         8.3150  -17.1630  -18.3940 C.3   228  ILE228      0.0252
    151  CG1        8.0940  -16.4230  -19.7170 C.3   228  ILE228      0.0019
    152  CG2        8.6600  -16.1790  -17.2860 C.3   228  ILE228      0.0019
    153  CD1        7.3420  -15.1060  -19.5750 C.3   228  ILE228      0.0001
    154  N         10.4150  -15.3740  -13.8500 N.3   258  PHE258     -0.1241
    155  CA         9.4510  -14.6530  -13.0300 C.3   258  PHE258      0.1605
    156  C         10.1570  -13.8500  -11.9430 C.2   258  PHE258      0.2264
    157  O         11.0860  -14.3390  -11.2920 O.2   258  PHE258     -0.2867
    158  CB         8.4620  -15.6190  -12.3740 C.3   258  PHE258      0.0534
    159  CG         7.6630  -16.4360  -13.3450 C.ar  258  PHE258     -0.0203
    160  CD1        6.7420  -15.8340  -14.1860 C.ar  258  PHE258     -0.0042
    161  CD2        7.8200  -17.8140  -13.4030 C.ar  258  PHE258     -0.0042
    162  CE1        5.9910  -16.5930  -15.0770 C.ar  258  PHE258     -0.0003
    163  CE2        7.0790  -18.5740  -14.2880 C.ar  258  PHE258     -0.0003
    164  CZ         6.1660  -17.9630  -15.1280 C.ar  258  PHE258     -0.0000
    165  N          7.0880  -10.6130   -7.4640 N.3   261  VAL261     -0.1231
    166  CA         5.6450  -10.4340   -7.2970 C.3   261  VAL261      0.1692
    167  C          4.8840  -11.6120   -7.8920 C.2   261  VAL261      0.2591
    168  O          3.9780  -12.1710   -7.2620 O.2   261  VAL261     -0.2718
    169  CB         5.1920   -9.0960   -7.9090 C.3   261  VAL261      0.0266
    170  CG1        3.6790   -9.0780   -8.1040 C.3   261  VAL261      0.0020
    171  CG2        5.6200   -7.9460   -7.0160 C.3   261  VAL261      0.0020
    172  N          5.2440  -12.0150   -9.1120 N.am  262  VAL262     -0.1980
    173  CA         4.5880  -13.1690   -9.7170 C.3   262  VAL262      0.1595
    174  C          4.9940  -14.4530   -9.0010 C.2   262  VAL262      0.2287
    175  O          4.1640  -15.3450   -8.7810 O.2   262  VAL262     -0.2864
    176  CB         4.8940  -13.2300  -11.2250 C.3   262  VAL262      0.0276
    177  CG1        4.5200  -14.5930  -11.7900 C.3   262  VAL262      0.0022
    178  CG2        4.1320  -12.1320  -11.9500 C.3   262  VAL262      0.0022
    179  N          2.9090  -15.5690   -6.0220 N.3   265  HIS265     -0.1226
    180  CA         1.6120  -16.1870   -6.2660 C.3   265  HIS265      0.1752
    181  C          1.7270  -17.5850   -6.8540 C.2   265  HIS265      0.2595
    182  O          0.8410  -18.4180   -6.6310 O.2   265  HIS265     -0.2718
    183  CB         0.7730  -15.3060   -7.1980 C.3   265  HIS265      0.0759
    184  CG         0.3810  -13.9930   -6.5930 C.ar  265  HIS265      0.0818
    185  ND1       -0.8800  -13.7530   -6.0900 N.ar  265  HIS265     -0.2268
    186  CD2        1.0860  -12.8540   -6.4000 C.ar  265  HIS265      0.1154
    187  CE1       -0.9360  -12.5200   -5.6180 C.ar  265  HIS265      0.1986
    188  NE2        0.2450  -11.9530   -5.7930 N.ar  265  HIS265     -0.2212
    189  N          2.7940  -17.8630   -7.6020 N.am  266  LEU266     -0.1980
    190  CA         2.9610  -19.1920   -8.1750 C.3   266  LEU266      0.1596
    191  C          3.5170  -20.1850   -7.1670 C.2   266  LEU266      0.2287
    192  O          3.1790  -21.3720   -7.2240 O.2   266  LEU266     -0.2864
    193  CB         3.8870  -19.1390   -9.3900 C.3   266  LEU266      0.0297
    194  CG         3.4650  -18.2610  -10.5660 C.3   266  LEU266      0.0022
    195  CD1        4.4980  -18.3550  -11.6790 C.3   266  LEU266      0.0001
    196  CD2        2.0860  -18.6680  -11.0660 C.3   266  LEU266      0.0001
    197  N          6.2180  -21.2760  -17.2930 N.3   272  GLY272     -0.1210
    198  CA         5.2620  -20.7990  -18.2710 C.3   272  GLY272      0.1956
    199  C          5.7910  -20.9550  -19.6820 C.2   272  GLY272      0.2612
    200  O          6.9990  -20.8950  -19.9220 O.2   272  GLY272     -0.2717
    201  N          4.8700  -21.1680  -20.6190 N.am  273  LEU273     -0.1965
    202  CA         5.1640  -21.1300  -22.0480 C.3   273  LEU273      0.1728
    203  C          4.1480  -20.1950  -22.6850 C.2   273  LEU273      0.2616
    204  O          2.9560  -20.5160  -22.7390 O.2   273  LEU273     -0.2715
    205  CB         5.1060  -22.5210  -22.6810 C.3   273  LEU273      0.0311
    206  CG         5.4010  -22.5730  -24.1840 C.3   273  LEU273      0.0022
    207  CD1        6.6800  -21.8100  -24.5060 C.3   273  LEU273      0.0001
    208  CD2        5.5030  -24.0150  -24.6670 C.3   273  LEU273      0.0001
    209  N          4.6110  -19.0340  -23.1370 N.am  274  GLY274     -0.1955
    210  CA         3.7270  -18.0380  -23.7070 C.3   274  GLY274      0.1869
    211  C          4.0100  -17.8130  -25.1750 C.2   274  GLY274      0.2309
    212  O          5.1070  -18.1150  -25.6520 O.2   274  GLY274     -0.2863
@<TRIPOS>BOND
     1   212   211    2
     2   211   210    1
     3    99    98    1
     4   208   206    1
     5   207   206    1
     6    96    98   ar
     7    96    94   ar
     8   206   205    1
     9    82    80    1
    10    98    97   ar
    11   210   209    1
    12    78    77    2
    13    94    93   ar
    14    81    79    1
    15   209   203   am
    16    83    84    1
    17    97    95   ar
    18   204   203    2
    19   203   202    1
    20   205   202    1
    21    80    79    1
    22    76    77    1
    23    76    79    1
    24    76    75    1
    25    84    85    1
    26    84    87    1
    27    93    95   ar
    28    93    92    1
    29   202   201    1
    30    63    62    1
    31    85    88   am
    32    85    86    2
    33   130   129    2
    34    88    89    1
    35    92    89    1
    36   201   199   am
    37    62    61    1
    38    62    64    1
    39    61    58    1
    40    89    90    1
    41   129   128    1
    42   200   199    2
    43   146   147    1
    44   151   153    1
    45   151   150    1
    46   199   198    1
    47   131   128    1
    48   131   132    1
    49    57    58    1
    50    91    90    2
    51    90   100   am
    52   127   128    1
    53    73    72    2
    54    58    59    1
    55    68    67    2
    56    72    71    1
    57   147   150    1
    58   147   148    1
    59   132   134   ar
    60   132   133   ar
    61   150   152    1
    62    65    59   am
    63    65    66    1
    64   198   197    1
    65   100   101    1
    66    59    60    2
    67   134   136   ar
    68   133   135   ar
    69    67    66    1
    70    67    70   am
    71   148   149    2
    72    71    74    1
    73    71    70    1
    74    66    69    1
    75   101   104    1
    76   101   102    1
    77   136   137   ar
    78   135   137   ar
    79   104   105    1
    80   107   105    1
    81    31    32    1
    82   102   103    2
    83    33    34    2
    84    33    32    1
    85    32    35    1
    86   105   106    1
    87   164   162   ar
    88   164   163   ar
    89   162   160   ar
    90   138   139    1
    91   139   140    1
    92   139   142    1
    93   140   141    2
    94    35    36    1
    95   163   161   ar
    96   160   159   ar
    97    37    36    1
    98   143   142    1
    99   143   145    1
   100   154   155    1
   101   142   144    1
   102    36    38    1
   103   161   159   ar
   104   159   158    1
   105    46    44    1
   106   155   158    1
   107   155   156    1
   108    45    43    1
   109    44    43    1
   110    39    40    1
   111   178   176    1
   112   156   157    2
   113    43    40    1
   114   177   176    1
   115   195   194    1
   116    50    49    2
   117    40    41    1
   118   176   173    1
   119   196   194    1
   120    47    41   am
   121    47    48    1
   122    41    42    2
   123   194   193    1
   124    51    48    1
   125    51    52    1
   126    49    48    1
   127    49    53   am
   128    56    55    2
   129     7     6    1
   130   119   118    2
   131    55    54    1
   132    54    53    1
   133   173   172    1
   134   173   174    1
   135   114   113    1
   136   193   190    1
   137   118   117    1
   138   172   167   am
   139     6     8    1
   140     6     5    1
   141   174   175    2
   142   115   113    1
   143   121   120    1
   144   121   122    1
   145   113   112    1
   146     1     2    1
   147   120   117    1
   148   117   116    1
   149   190   189    1
   150   190   191    1
   151     5     2    1
   152   170   169    1
   153   169   166    1
   154   169   171    1
   155   167   166    1
   156   167   168    2
   157    30    28   am
   158   189   181   am
   159    26    23    1
   160    26    27    1
   161     2     3    1
   162   165   166    1
   163   112   109    1
   164   123   122    1
   165   123   124    2
   166   192   191    2
   167    29    28    2
   168   183   184    1
   169   183   180    1
   170    28    27    1
   171    23    24    1
   172    23    22    1
   173   181   182    2
   174   181   180    1
   175    24    25    2
   176   184   186   ar
   177   184   185   ar
   178   126   124    1
   179     4     3    2
   180   186   188   ar
   181   124   125    1
   182   180   179    1
   183   109   110    1
   184   109   108    1
   185   185   187   ar
   186   188   187   ar
   187    22    18   am
   188    19    18    2
   189   111   110    2
   190    18    17    1
   191    14    13    1
   192    13    15    1
   193    13    10    1
   194    17    16    1
   195    17    20    1
   196    16    11   am
   197    11    10    1
   198    11    12    2
   199    10     9    1
   200    20    21    1
