@<TRIPOS>MOLECULE
tmp/6b9lB01.pdb
 83 78 0 0 0
SMALL
GASTEIGER

@<TRIPOS>ATOM
      1  N        -30.6660   48.6480   -5.0220 N.3    24  LYS24      -0.1245
      2  CA       -31.5410   49.3480   -4.0890 C.3    24  LYS24       0.1561
      3  C        -31.9960   48.4290   -2.9620 C.2    24  LYS24       0.2260
      4  O        -31.5920   47.2700   -2.8920 O.2    24  LYS24      -0.2867
      5  CB       -32.7570   49.9180   -4.8220 C.3    24  LYS24       0.0271
      6  CG       -33.4870   48.9170   -5.6980 C.3    24  LYS24       0.0035
      7  CD       -34.7510   49.5020   -6.3280 C.3    24  LYS24       0.0206
      8  CE       -34.4620   50.6800   -7.2470 C.3    24  LYS24       0.1093
      9  NZ       -35.6880   51.0810   -7.9960 N.3    24  LYS24      -0.1314
     10  N        -22.8690   49.3630    8.8670 N.3    30  GLN30      -0.1245
     11  CA       -21.8380   49.1940    9.8830 C.3    30  GLN30       0.1566
     12  C        -21.9960   50.2170   11.0010 C.2    30  GLN30       0.2260
     13  O        -22.1890   51.4040   10.7430 O.2    30  GLN30      -0.2867
     14  CB       -20.4540   49.3150    9.2470 C.3    30  GLN30       0.0367
     15  CG       -19.2910   49.1280   10.2000 C.3    30  GLN30       0.0905
     16  CD       -17.9560   49.3780    9.5230 C.2    30  GLN30       0.2608
     17  OE1      -17.8920   50.0200    8.4720 O.2    30  GLN30      -0.2717
     18  NE2      -16.8830   48.8650   10.1170 N.am   30  GLN30      -0.0878
     19  N        -19.8710   51.2510   14.2730 N.3    32  ILE32      -0.1245
     20  CA       -18.7720   51.2290   15.2260 C.3    32  ILE32       0.1561
     21  C        -19.0390   52.2270   16.3400 C.2    32  ILE32       0.2260
     22  O        -19.0690   53.4370   16.1140 O.2    32  ILE32      -0.2867
     23  CB       -17.4230   51.5580   14.5600 C.3    32  ILE32       0.0252
     24  CG1      -17.2300   50.7290   13.2890 C.3    32  ILE32       0.0019
     25  CG2      -16.2790   51.3220   15.5340 C.3    32  ILE32       0.0019
     26  CD1      -15.9090   50.9750   12.5930 C.3    32  ILE32       0.0001
     27  N        -34.4510   51.9790    4.6450 N.3    44  CYS44      -0.1221
     28  CA       -35.3490   53.0130    5.1400 C.3    44  CYS44       0.1808
     29  C        -35.8770   53.8720    3.9970 C.2    44  CYS44       0.2601
     30  O        -35.8670   55.1010    4.0760 O.2    44  CYS44      -0.2717
     31  CB       -34.6440   53.8880    6.1800 C.3    44  CYS44       0.0970
     32  SG       -35.7630   54.7920    7.2750 S.3    44  CYS44      -0.0800
     33  N        -36.3320   53.2130    2.9350 N.am   45  ASN45      -0.1960
     34  CA       -36.9880   53.8930    1.8260 C.3    45  ASN45       0.1819
     35  C        -38.4600   54.1000    2.1540 C.2    45  ASN45       0.2621
     36  O        -39.3420   53.6280    1.4360 O.2    45  ASN45      -0.2715
     37  CB       -36.8360   53.0950    0.5320 C.3    45  ASN45       0.1195
     38  CG       -35.3930   52.7420    0.2300 C.2    45  ASN45       0.2630
     39  OD1      -34.5140   52.8860    1.0820 O.2    45  ASN45      -0.2716
     40  ND2      -35.1410   52.2670   -0.9860 N.am   45  ASN45      -0.0877
     41  N        -38.7110   54.8100    3.2480 N.am   46  VAL46      -0.1963
     42  CA       -40.0530   54.9490    3.8000 C.3    46  VAL46       0.1727
     43  C        -40.9850   55.8010    2.9440 C.2    46  VAL46       0.2616
     44  O        -42.1080   55.3980    2.6550 O.2    46  VAL46      -0.2715
     45  CB       -40.0030   55.5480    5.2220 C.3    46  VAL46       0.0290
     46  CG1      -39.5750   54.4920    6.2220 C.3    46  VAL46       0.0023
     47  CG2      -39.0630   56.7480    5.2720 C.3    46  VAL46       0.0023
     48  N        -40.5210   56.9760    2.5350 N.am   47  MET47      -0.1963
     49  CA       -41.3840   57.9350    1.8580 C.3    47  MET47       0.1736
     50  C        -41.3820   57.7710    0.3430 C.2    47  MET47       0.2617
     51  O        -42.1740   58.4070   -0.3530 O.2    47  MET47      -0.2715
     52  CB       -40.9710   59.3600    2.2260 C.3    47  MET47       0.0427
     53  CG       -41.3430   59.7580    3.6460 C.3    47  MET47       0.0599
     54  SD       -40.4680   61.2390    4.1750 S.3    47  MET47      -0.1393
     55  CE       -40.6330   62.2560    2.7130 C.3    47  MET47       0.0692
     56  N        -40.5040   56.9100   -0.1610 N.am   48  SER48      -0.1950
     57  CA       -40.3860   56.6920   -1.6010 C.3    48  SER48       0.1924
     58  C        -41.4850   55.7630   -2.1160 C.2    48  SER48       0.2314
     59  O        -41.2010   54.7230   -2.7050 O.2    48  SER48      -0.2863
     60  CB       -39.0110   56.1130   -1.9470 C.3    48  SER48       0.2116
     61  OG       -38.0000   56.6640   -1.1200 O.3    48  SER48      -0.2180
     62  N        -41.5290   60.3520   10.5270 N.3    82  PHE82      -0.1241
     63  CA       -41.3460   60.8800    9.1820 C.3    82  PHE82       0.1605
     64  C        -42.5890   61.6230    8.7080 C.2    82  PHE82       0.2264
     65  O        -43.7060   61.1080    8.8270 O.2    82  PHE82      -0.2867
     66  CB       -41.0160   59.7540    8.2010 C.3    82  PHE82       0.0534
     67  CG       -40.0310   58.7530    8.7310 C.ar   82  PHE82      -0.0203
     68  CD1      -38.6770   59.0320    8.7420 C.ar   82  PHE82      -0.0042
     69  CD2      -40.4610   57.5240    9.2030 C.ar   82  PHE82      -0.0042
     70  CE1      -37.7700   58.1080    9.2230 C.ar   82  PHE82      -0.0003
     71  CE2      -39.5580   56.5960    9.6850 C.ar   82  PHE82      -0.0003
     72  CZ       -38.2110   56.8890    9.6940 C.ar   82  PHE82      -0.0000
     73  N        -29.4290   57.4290   20.9860 N.3   133  ARG133     -0.1245
     74  CA       -28.8320   56.0980   20.9000 C.3   133  ARG133      0.1563
     75  C        -29.4820   55.1200   21.8730 C.2   133  ARG133      0.2260
     76  O        -28.8070   54.2810   22.4690 O.2   133  ARG133     -0.2867
     77  CB       -27.3270   56.1600   21.1620 C.3   133  ARG133      0.0307
     78  CG       -26.6010   57.2780   20.4380 C.3   133  ARG133      0.0489
     79  CD       -26.8120   57.2090   18.9370 C.3   133  ARG133      0.2205
     80  NE       -25.9630   58.1660   18.2350 N.pl3 133  ARG133     -0.0865
     81  CZ       -26.2660   59.4480   18.0630 C.cat 133  ARG133      0.5346
     82  NH1      -25.4300   60.2460   17.4130 N.pl3 133  ARG133      0.1354
     83  NH2      -27.4030   59.9340   18.5410 N.pl3 133  ARG133      0.1354
@<TRIPOS>BOND
     1     9     8    1
     2     8     7    1
     3     7     6    1
     4     6     5    1
     5     1     2    1
     6     5     2    1
     7     2     3    1
     8     3     4    2
     9    59    58    2
    10    58    57    1
    11    60    57    1
    12    60    61    1
    13    57    56    1
    14    40    38   am
    15    51    50    2
    16    56    50   am
    17    38    37    1
    18    38    39    2
    19    50    49    1
    20    37    34    1
    21    36    35    2
    22    34    35    1
    23    34    33    1
    24    49    52    1
    25    49    48    1
    26    35    41   am
    27    52    53    1
    28    48    43   am
    29    44    43    2
    30    55    54    1
    31    33    29   am
    32    43    42    1
    33    41    42    1
    34    53    54    1
    35    42    45    1
    36    29    30    2
    37    29    28    1
    38    27    28    1
    39    28    31    1
    40    45    47    1
    41    45    46    1
    42    31    32    1
    43    66    67    1
    44    66    63    1
    45    17    16    2
    46    64    65    2
    47    64    63    1
    48    67    68   ar
    49    67    69   ar
    50    68    70   ar
    51    10    11    1
    52    63    62    1
    53    69    71   ar
    54    70    72   ar
    55    14    11    1
    56    14    15    1
    57    16    18   am
    58    16    15    1
    59    71    72   ar
    60    11    12    1
    61    13    12    2
    62    26    24    1
    63    24    23    1
    64    19    20    1
    65    23    20    1
    66    23    25    1
    67    20    21    1
    68    22    21    2
    69    82    81    1
    70    81    80    2
    71    81    83    1
    72    80    79    1
    73    79    78    1
    74    78    77    1
    75    74    73    1
    76    74    77    1
    77    74    75    1
    78    75    76    2
