@<TRIPOS>MOLECULE
tmp/6b9oB02.pdb
 81 76 0 0 0
SMALL
GASTEIGER

@<TRIPOS>ATOM
      1  N        -13.2820   21.9960  -34.8000 N.3   342  ALA342     -0.1231
      2  CA       -12.1220   21.2740  -35.3270 C.3   342  ALA342      0.1694
      3  C        -12.3430   19.7600  -35.3050 C.2   342  ALA342      0.2591
      4  O        -11.9380   19.0540  -36.2370 O.2   342  ALA342     -0.2718
      5  CB       -10.8650   21.6430  -34.5340 C.3   342  ALA342      0.0304
      6  N        -12.9560   19.2390  -34.2410 N.am  343  LEU343     -0.1980
      7  CA       -13.2960   17.8130  -34.2160 C.3   343  LEU343      0.1596
      8  C        -14.3150   17.4720  -35.3010 C.2   343  LEU343      0.2287
      9  O        -14.1930   16.4430  -35.9830 O.2   343  LEU343     -0.2864
     10  CB       -13.8310   17.4220  -32.8330 C.3   343  LEU343      0.0297
     11  CG       -14.2410   15.9490  -32.6350 C.3   343  LEU343      0.0022
     12  CD1      -13.0560   14.9920  -32.8180 C.3   343  LEU343      0.0001
     13  CD2      -14.8810   15.7570  -31.2580 C.3   343  LEU343      0.0001
     14  N        -12.5000   17.2410  -38.5220 N.3   346  TYR346     -0.1241
     15  CA       -11.6910   16.0300  -38.5010 C.3   346  TYR346      0.1605
     16  C        -12.5390   14.8040  -38.8320 C.2   346  TYR346      0.2264
     17  O        -12.1460   13.9670  -39.6530 O.2   346  TYR346     -0.2867
     18  CB       -11.0410   15.8960  -37.1230 C.3   346  TYR346      0.0534
     19  CG        -9.7850   15.0560  -37.0750 C.ar  346  TYR346     -0.0201
     20  CD1       -8.8990   15.0190  -38.1450 C.ar  346  TYR346     -0.0009
     21  CD2       -9.4790   14.3170  -35.9390 C.ar  346  TYR346     -0.0009
     22  CE1       -7.7430   14.2610  -38.0910 C.ar  346  TYR346      0.0417
     23  CE2       -8.3290   13.5600  -35.8680 C.ar  346  TYR346      0.0417
     24  CZ        -7.4660   13.5270  -36.9410 C.ar  346  TYR346      0.1957
     25  OH        -6.3190   12.7830  -36.8640 O.3   346  TYR346     -0.2866
     26  N        -10.0000   12.1380  -30.7350 N.3   402  ALA402     -0.1245
     27  CA        -9.1000   12.5420  -31.8130 C.3   402  ALA402      0.1562
     28  C         -7.8920   11.6160  -31.9020 C.2   402  ALA402      0.2260
     29  O         -7.4590   11.2660  -33.0050 O.2   402  ALA402     -0.2867
     30  CB        -8.6570   13.9980  -31.6140 C.3   402  ALA402      0.0290
     31  N         -6.8960    9.6070  -35.1740 N.3   406  ALA406     -0.1245
     32  CA        -5.5610    9.7300  -35.7620 C.3   406  ALA406      0.1562
     33  C         -4.9340    8.3570  -35.9720 C.2   406  ALA406      0.2260
     34  O         -4.2650    8.1110  -36.9860 O.2   406  ALA406     -0.2867
     35  CB        -4.6580   10.5950  -34.8790 C.3   406  ALA406      0.0290
     36  N         -1.9750   15.6010  -45.0630 N.3   438  HIS438     -0.1226
     37  CA        -3.2880   15.9880  -44.5560 C.3   438  HIS438      0.1752
     38  C         -3.2570   17.3330  -43.8560 C.2   438  HIS438      0.2595
     39  O         -4.2540   17.7190  -43.2360 O.2   438  HIS438     -0.2718
     40  CB        -3.8430   14.9200  -43.6110 C.3   438  HIS438      0.0759
     41  CG        -3.9410   13.5680  -44.2420 C.ar  438  HIS438      0.0818
     42  ND1       -5.0200   13.1790  -45.0090 N.ar  438  HIS438     -0.2268
     43  CD2       -3.0760   12.5260  -44.2470 C.ar  438  HIS438      0.1154
     44  CE1       -4.8210   11.9470  -45.4450 C.ar  438  HIS438      0.1986
     45  NE2       -3.6510   11.5280  -44.9940 N.ar  438  HIS438     -0.2212
     46  N         -2.1370   18.0540  -43.9440 N.am  439  LEU439     -0.1980
     47  CA        -1.9650   19.3470  -43.3010 C.3   439  LEU439      0.1596
     48  C         -1.7350   20.4680  -44.3180 C.2   439  LEU439      0.2287
     49  O         -1.0790   21.4650  -44.0170 O.2   439  LEU439     -0.2864
     50  CB        -0.8220   19.2750  -42.2880 C.3   439  LEU439      0.0297
     51  CG        -1.1890   18.4390  -41.0580 C.3   439  LEU439      0.0022
     52  CD1       -0.0220   18.3230  -40.0830 C.3   439  LEU439      0.0001
     53  CD2       -2.4120   19.0550  -40.3690 C.3   439  LEU439      0.0001
     54  N         -3.9750   22.4690  -44.9480 N.3   441  ASN441     -0.1240
     55  CA        -4.6710   23.5980  -44.3430 C.3   441  ASN441      0.1653
     56  C         -3.7290   24.5350  -43.5870 C.2   441  ASN441      0.2266
     57  O         -4.0550   25.7150  -43.4190 O.2   441  ASN441     -0.2867
     58  CB        -5.7920   23.1010  -43.4150 C.3   441  ASN441      0.1155
     59  CG        -5.2910   22.1930  -42.2810 C.2   441  ASN441      0.2627
     60  OD1       -4.1330   21.7470  -42.2650 O.2   441  ASN441     -0.2716
     61  ND2       -6.1850   21.9160  -41.3200 N.am  441  ASN441     -0.0877
     62  N          1.0810   19.3780  -33.4400 N.3   515  TYR515     -0.1241
     63  CA         0.6420   18.0760  -33.9430 C.3   515  TYR515      0.1605
     64  C          1.7880   17.0700  -34.0310 C.2   515  TYR515      0.2264
     65  O          1.6090   15.8960  -33.6870 O.2   515  TYR515     -0.2867
     66  CB         0.0030   18.2130  -35.3210 C.3   515  TYR515      0.0534
     67  CG        -1.1910   19.1240  -35.3920 C.ar  515  TYR515     -0.0201
     68  CD1       -2.0620   19.2550  -34.3160 C.ar  515  TYR515     -0.0009
     69  CD2       -1.4520   19.8630  -36.5490 C.ar  515  TYR515     -0.0009
     70  CE1       -3.1690   20.0970  -34.3920 C.ar  515  TYR515      0.0417
     71  CE2       -2.5500   20.6970  -36.6330 C.ar  515  TYR515      0.0417
     72  CZ        -3.4080   20.8100  -35.5540 C.ar  515  TYR515      0.1957
     73  OH        -4.5050   21.6510  -35.6270 O.3   515  TYR515     -0.2866
     74  N         -8.0440   27.7870  -29.1790 N.3   782  LEU782     -0.1245
     75  CA        -7.9420   27.0600  -30.4410 C.3   782  LEU782      0.1561
     76  C         -8.3120   27.9550  -31.6210 C.2   782  LEU782      0.2260
     77  O         -9.2070   28.7960  -31.5180 O.2   782  LEU782     -0.2867
     78  CB        -8.8740   25.8360  -30.4150 C.3   782  LEU782      0.0270
     79  CG        -9.1060   25.0680  -31.7230 C.3   782  LEU782      0.0019
     80  CD1       -7.8760   24.2610  -32.0850 C.3   782  LEU782      0.0001
     81  CD2      -10.3220   24.1450  -31.6030 C.3   782  LEU782      0.0001
@<TRIPOS>BOND
     1    44    42   ar
     2    44    45   ar
     3    36    37    1
     4    42    41   ar
     5    45    43   ar
     6    54    55    1
     7    37    38    1
     8    37    40    1
     9    55    56    1
    10    55    58    1
    11    48    49    2
    12    48    47    1
    13    43    41   ar
    14    41    40    1
    15    46    38   am
    16    46    47    1
    17    38    39    2
    18    56    57    2
    19    58    59    1
    20    47    50    1
    21    50    51    1
    22    59    60    2
    23    59    61   am
    24    51    53    1
    25    51    52    1
    26    17    16    2
    27    16    15    1
    28    14    15    1
    29    15    18    1
    30    20    22   ar
    31    20    19   ar
    32    22    24   ar
    33    18    19    1
    34    19    21   ar
    35    34    33    2
    36    24    25    1
    37    24    23   ar
    38    71    69   ar
    39    71    72   ar
    40    69    67   ar
    41     4     3    2
    42     9     8    2
    43    33    32    1
    44    21    23   ar
    45    32    31    1
    46    32    35    1
    47    73    72    1
    48    72    70   ar
    49    67    66    1
    50    67    68   ar
    51     2     3    1
    52     2     1    1
    53     2     5    1
    54    66    63    1
    55     3     6   am
    56     8     7    1
    57    70    68   ar
    58     6     7    1
    59     7    10    1
    60    64    63    1
    61    64    65    2
    62    63    62    1
    63    29    28    2
    64    10    11    1
    65    12    11    1
    66    11    13    1
    67    80    79    1
    68    28    27    1
    69    27    30    1
    70    27    26    1
    71    79    81    1
    72    79    78    1
    73    76    77    2
    74    76    75    1
    75    75    78    1
    76    75    74    1
