@<TRIPOS>MOLECULE
tmp/6b9oB01.pdb
 143 137 0 0 0
SMALL
GASTEIGER

@<TRIPOS>ATOM
      1  N        -13.2820   21.9960  -34.8000 N.3   342  ALA342     -0.1245
      2  CA       -12.1220   21.2740  -35.3270 C.3   342  ALA342      0.1562
      3  C        -12.3430   19.7600  -35.3050 C.2   342  ALA342      0.2260
      4  O        -11.9380   19.0540  -36.2370 O.2   342  ALA342     -0.2867
      5  CB       -10.8650   21.6430  -34.5340 C.3   342  ALA342      0.0290
      6  N        -14.7020   18.9280  -38.1810 N.3   345  ASP345     -0.1225
      7  CA       -14.0450   18.8540  -39.4900 C.3   345  ASP345      0.1805
      8  C        -13.1910   17.5990  -39.6080 C.2   345  ASP345      0.2597
      9  O        -13.1040   16.9940  -40.6850 O.2   345  ASP345     -0.2718
     10  CB       -13.1680   20.0780  -39.7360 C.3   345  ASP345      0.1424
     11  CG       -12.2770   19.9010  -40.9590 C.2   345  ASP345      0.3668
     12  OD1      -12.8330   19.7690  -42.0640 O.co2 345  ASP345     -0.2456
     13  OD2      -11.0330   19.8590  -40.8210 O.co2 345  ASP345     -0.2456
     14  N        -12.5000   17.2410  -38.5220 N.am  346  TYR346     -0.1976
     15  CA       -11.6910   16.0300  -38.5010 C.3   346  TYR346      0.1639
     16  C        -12.5390   14.8040  -38.8320 C.2   346  TYR346      0.2290
     17  O        -12.1460   13.9670  -39.6530 O.2   346  TYR346     -0.2864
     18  CB       -11.0410   15.8960  -37.1230 C.3   346  TYR346      0.0560
     19  CG        -9.7850   15.0560  -37.0750 C.ar  346  TYR346     -0.0198
     20  CD1       -8.8990   15.0190  -38.1450 C.ar  346  TYR346     -0.0009
     21  CD2       -9.4790   14.3170  -35.9390 C.ar  346  TYR346     -0.0009
     22  CE1       -7.7430   14.2610  -38.0910 C.ar  346  TYR346      0.0417
     23  CE2       -8.3290   13.5600  -35.8680 C.ar  346  TYR346      0.0417
     24  CZ        -7.4660   13.5270  -36.9410 C.ar  346  TYR346      0.1957
     25  OH        -6.3190   12.7830  -36.8640 O.3   346  TYR346     -0.2866
     26  N        -13.5730   15.0380  -42.6000 N.3   349  MET349     -0.1245
     27  CA       -12.4220   14.7750  -43.4590 C.3   349  MET349      0.1570
     28  C        -12.0830   13.2890  -43.4780 C.2   349  MET349      0.2261
     29  O        -11.8860   12.6960  -44.5460 O.2   349  MET349     -0.2867
     30  CB       -11.2210   15.5990  -42.9750 C.3   349  MET349      0.0387
     31  CG        -9.8910   15.2180  -43.6200 C.3   349  MET349      0.0595
     32  SD        -8.5370   16.2730  -43.0420 S.3   349  MET349     -0.1393
     33  CE        -9.4710   17.7430  -42.5800 C.3   349  MET349      0.0692
     34  N         -1.9750   15.6010  -45.0630 N.3   438  HIS438     -0.1226
     35  CA        -3.2880   15.9880  -44.5560 C.3   438  HIS438      0.1752
     36  C         -3.2570   17.3330  -43.8560 C.2   438  HIS438      0.2595
     37  O         -4.2540   17.7190  -43.2360 O.2   438  HIS438     -0.2718
     38  CB        -3.8430   14.9200  -43.6110 C.3   438  HIS438      0.0759
     39  CG        -3.9410   13.5680  -44.2420 C.ar  438  HIS438      0.0818
     40  ND1       -5.0200   13.1790  -45.0090 N.ar  438  HIS438     -0.2268
     41  CD2       -3.0760   12.5260  -44.2470 C.ar  438  HIS438      0.1154
     42  CE1       -4.8210   11.9470  -45.4450 C.ar  438  HIS438      0.1986
     43  NE2       -3.6510   11.5280  -44.9940 N.ar  438  HIS438     -0.2212
     44  N         -2.1370   18.0540  -43.9440 N.am  439  LEU439     -0.1980
     45  CA        -1.9650   19.3470  -43.3010 C.3   439  LEU439      0.1596
     46  C         -1.7350   20.4680  -44.3180 C.2   439  LEU439      0.2287
     47  O         -1.0790   21.4650  -44.0170 O.2   439  LEU439     -0.2864
     48  CB        -0.8220   19.2750  -42.2880 C.3   439  LEU439      0.0297
     49  CG        -1.1890   18.4390  -41.0580 C.3   439  LEU439      0.0022
     50  CD1       -0.0220   18.3230  -40.0830 C.3   439  LEU439      0.0001
     51  CD2       -2.4120   19.0550  -40.3690 C.3   439  LEU439      0.0001
     52  N         -3.9750   22.4690  -44.9480 N.3   441  ASN441     -0.1225
     53  CA        -4.6710   23.5980  -44.3430 C.3   441  ASN441      0.1785
     54  C         -3.7290   24.5350  -43.5870 C.2   441  ASN441      0.2597
     55  O         -4.0550   25.7150  -43.4190 O.2   441  ASN441     -0.2718
     56  CB        -5.7920   23.1010  -43.4150 C.3   441  ASN441      0.1169
     57  CG        -5.2910   22.1930  -42.2810 C.2   441  ASN441      0.2627
     58  OD1       -4.1330   21.7470  -42.2650 O.2   441  ASN441     -0.2716
     59  ND2       -6.1850   21.9160  -41.3200 N.am  441  ASN441     -0.0877
     60  N         -2.5710   24.0550  -43.1400 N.am  442  ILE442     -0.1980
     61  CA        -1.5740   24.9270  -42.5280 C.3   442  ILE442      0.1595
     62  C         -0.2870   24.9840  -43.3590 C.2   442  ILE442      0.2287
     63  O          0.7550   25.4180  -42.8670 O.2   442  ILE442     -0.2864
     64  CB        -1.2860   24.5210  -41.0680 C.3   442  ILE442      0.0276
     65  CG1       -0.7410   23.0910  -40.9730 C.3   442  ILE442      0.0022
     66  CG2       -2.5450   24.6430  -40.2160 C.3   442  ILE442      0.0022
     67  CD1       -0.5070   22.6510  -39.5250 C.3   442  ILE442      0.0001
     68  N          0.1620   30.0670  -38.4660 N.3   507  LEU507     -0.1245
     69  CA        -0.5110   28.7920  -38.2090 C.3   507  LEU507      0.1561
     70  C          0.4620   27.6290  -38.3340 C.2   507  LEU507      0.2260
     71  O          0.4890   26.7330  -37.4840 O.2   507  LEU507     -0.2867
     72  CB        -1.6710   28.5850  -39.1910 C.3   507  LEU507      0.0270
     73  CG        -3.0470   29.1510  -38.8660 C.3   507  LEU507      0.0019
     74  CD1       -4.0750   28.7160  -39.9110 C.3   507  LEU507      0.0001
     75  CD2       -3.4760   28.7550  -37.4670 C.3   507  LEU507      0.0001
     76  N          1.0660   25.0940  -35.2020 N.3   511  TYR511     -0.1241
     77  CA         0.2830   23.8690  -35.2280 C.3   511  TYR511      0.1605
     78  C          1.0900   22.6740  -35.7030 C.2   511  TYR511      0.2264
     79  O          0.8510   21.5570  -35.2230 O.2   511  TYR511     -0.2867
     80  CB        -0.9790   24.0730  -36.0730 C.3   511  TYR511      0.0534
     81  CG        -2.0470   24.7230  -35.2300 C.ar  511  TYR511     -0.0201
     82  CD1       -2.8120   23.9770  -34.3400 C.ar  511  TYR511     -0.0009
     83  CD2       -2.2200   26.0960  -35.2440 C.ar  511  TYR511     -0.0009
     84  CE1       -3.7600   24.5810  -33.5330 C.ar  511  TYR511      0.0417
     85  CE2       -3.1620   26.7090  -34.4420 C.ar  511  TYR511      0.0417
     86  CZ        -3.9320   25.9540  -33.5930 C.ar  511  TYR511      0.1957
     87  OH        -4.8630   26.5880  -32.7980 O.3   511  TYR511     -0.2866
     88  N          1.0810   19.3780  -33.4400 N.3   515  TYR515     -0.1241
     89  CA         0.6420   18.0760  -33.9430 C.3   515  TYR515      0.1605
     90  C          1.7880   17.0700  -34.0310 C.2   515  TYR515      0.2264
     91  O          1.6090   15.8960  -33.6870 O.2   515  TYR515     -0.2867
     92  CB         0.0030   18.2130  -35.3210 C.3   515  TYR515      0.0534
     93  CG        -1.1910   19.1240  -35.3920 C.ar  515  TYR515     -0.0201
     94  CD1       -2.0620   19.2550  -34.3160 C.ar  515  TYR515     -0.0009
     95  CD2       -1.4520   19.8630  -36.5490 C.ar  515  TYR515     -0.0009
     96  CE1       -3.1690   20.0970  -34.3920 C.ar  515  TYR515      0.0417
     97  CE2       -2.5500   20.6970  -36.6330 C.ar  515  TYR515      0.0417
     98  CZ        -3.4080   20.8100  -35.5540 C.ar  515  TYR515      0.1957
     99  OH        -4.5050   21.6510  -35.6270 O.3   515  TYR515     -0.2866
    100  N        -18.2580   20.8920  -42.8100 N.3   737  ARG737     -0.1245
    101  CA       -18.3100   20.2480  -41.5010 C.3   737  ARG737      0.1563
    102  C        -19.6820   20.5370  -40.9180 C.2   737  ARG737      0.2260
    103  O        -20.3520   21.4810  -41.3390 O.2   737  ARG737     -0.2867
    104  CB       -17.2170   20.7800  -40.5610 C.3   737  ARG737      0.0307
    105  CG       -17.5220   22.1910  -40.0120 C.3   737  ARG737      0.0489
    106  CD       -16.2880   22.8940  -39.4170 C.3   737  ARG737      0.2205
    107  NE       -15.2360   23.0490  -40.4130 N.pl3 737  ARG737     -0.0865
    108  CZ       -13.9570   23.3040  -40.1390 C.cat 737  ARG737      0.5346
    109  NH1      -13.5310   23.4360  -38.8850 N.pl3 737  ARG737      0.1354
    110  NH2      -13.0950   23.4130  -41.1350 N.pl3 737  ARG737      0.1354
    111  N         -8.0440   27.7870  -29.1790 N.3   782  LEU782     -0.1231
    112  CA        -7.9420   27.0600  -30.4410 C.3   782  LEU782      0.1693
    113  C         -8.3120   27.9550  -31.6210 C.2   782  LEU782      0.2593
    114  O         -9.2070   28.7960  -31.5180 O.2   782  LEU782     -0.2718
    115  CB        -8.8740   25.8360  -30.4150 C.3   782  LEU782      0.0284
    116  CG        -9.1060   25.0680  -31.7230 C.3   782  LEU782      0.0019
    117  CD1       -7.8760   24.2610  -32.0850 C.3   782  LEU782      0.0001
    118  CD2      -10.3220   24.1450  -31.6030 C.3   782  LEU782      0.0001
    119  N         -7.6340   27.7450  -32.7540 N.am  783  THR783     -0.1939
    120  CA        -7.9320   28.4040  -34.0230 C.3   783  THR783      0.2028
    121  C         -8.4590   27.3670  -35.0060 C.2   783  THR783      0.2642
    122  O         -7.8360   26.3170  -35.1890 O.2   783  THR783     -0.2714
    123  CB        -6.6750   29.0720  -34.6100 C.3   783  THR783      0.1808
    124  OG1       -6.2410   30.1340  -33.7510 O.3   783  THR783     -0.2208
    125  CG2       -6.9510   29.6230  -36.0030 C.3   783  THR783      0.0379
    126  N         -9.5760   27.6650  -35.6630 N.am  784  VAL784     -0.1963
    127  CA       -10.1180   26.7880  -36.6960 C.3   784  VAL784      0.1727
    128  C        -10.0110   27.4740  -38.0530 C.2   784  VAL784      0.2616
    129  O        -10.2310   28.6890  -38.1810 O.2   784  VAL784     -0.2715
    130  CB       -11.5800   26.3700  -36.4190 C.3   784  VAL784      0.0290
    131  CG1      -11.7010   25.6850  -35.0710 C.3   784  VAL784      0.0023
    132  CG2      -12.5220   27.5620  -36.5000 C.3   784  VAL784      0.0023
    133  N         -9.6790   26.6820  -39.0640 N.am  785  ARG785     -0.1977
    134  CA        -9.6840   27.1030  -40.4530 C.3   785  ARG785      0.1597
    135  C        -10.5540   26.1380  -41.2510 C.2   785  ARG785      0.2287
    136  O        -10.5160   24.9210  -41.0350 O.2   785  ARG785     -0.2864
    137  CB        -8.2510   27.1500  -41.0150 C.3   785  ARG785      0.0334
    138  CG        -8.1390   27.0840  -42.5320 C.3   785  ARG785      0.0492
    139  CD        -6.6990   27.4230  -42.9840 C.3   785  ARG785      0.2205
    140  NE        -6.3580   28.8230  -42.6880 N.pl3 785  ARG785     -0.0865
    141  CZ        -5.3130   29.4720  -43.2050 C.cat 785  ARG785      0.5346
    142  NH1       -4.4770   28.8540  -44.0340 N.pl3 785  ARG785      0.1354
    143  NH2       -5.1040   30.7490  -42.8950 N.pl3 785  ARG785      0.1354
@<TRIPOS>BOND
     1    42    40   ar
     2    42    43   ar
     3    34    35    1
     4    40    39   ar
     5    43    41   ar
     6    52    53    1
     7    35    36    1
     8    35    38    1
     9    29    28    2
    10    53    54    1
    11    53    56    1
    12    46    47    2
    13    46    45    1
    14    41    39   ar
    15    39    38    1
    16   142   141    1
    17    44    36   am
    18    44    45    1
    19    36    37    2
    20    31    32    1
    21    31    30    1
    22    54    55    2
    23    54    60   am
    24    28    27    1
    25    27    30    1
    26    27    26    1
    27    56    57    1
    28    62    63    2
    29    62    61    1
    30    45    48    1
    31   141   143    1
    32   141   140    2
    33    60    61    1
    34    32    33    1
    35   139   140    1
    36   139   138    1
    37   100   101    1
    38   138   137    1
    39    61    64    1
    40    48    49    1
    41    57    58    2
    42    57    59   am
    43    12    11   ar
    44   101   102    1
    45   101   104    1
    46   103   102    2
    47   135   136    2
    48   135   134    1
    49   110   108    1
    50    64    65    1
    51    64    66    1
    52    49    51    1
    53    49    50    1
    54   137   134    1
    55    65    67    1
    56    11    13   ar
    57    11    10    1
    58     9     8    2
    59   104   105    1
    60   134   133    1
    61   107   108    2
    62   107   106    1
    63   108   109    1
    64   105   106    1
    65    74    73    1
    66    10     7    1
    67    17    16    2
    68     8     7    1
    69     8    14   am
    70     7     6    1
    71    72    73    1
    72    72    69    1
    73   133   128   am
    74    73    75    1
    75    16    15    1
    76    14    15    1
    77    15    18    1
    78    68    69    1
    79    70    69    1
    80    70    71    2
    81   129   128    2
    82    20    22   ar
    83    20    19   ar
    84    22    24   ar
    85   128   127    1
    86    18    19    1
    87    19    21   ar
    88    24    25    1
    89    24    23   ar
    90   127   130    1
    91   127   126    1
    92    97    95   ar
    93    97    98   ar
    94    95    93   ar
    95   132   130    1
    96   130   131    1
    97     4     3    2
    98    80    81    1
    99    80    77    1
   100   125   123    1
   101    21    23   ar
   102    78    77    1
   103    78    79    2
   104   126   121   am
   105    99    98    1
   106    98    96   ar
   107    93    92    1
   108    93    94   ar
   109     2     3    1
   110     2     1    1
   111     2     5    1
   112    92    89    1
   113    83    81   ar
   114    83    85   ar
   115    81    82   ar
   116    77    76    1
   117   122   121    2
   118   121   120    1
   119   123   120    1
   120   123   124    1
   121    85    86   ar
   122    96    94   ar
   123    82    84   ar
   124    90    89    1
   125    90    91    2
   126   120   119    1
   127    89    88    1
   128    86    84   ar
   129    86    87    1
   130   119   113   am
   131   117   116    1
   132   116   118    1
   133   116   115    1
   134   113   114    2
   135   113   112    1
   136   112   115    1
   137   112   111    1
