@<TRIPOS>MOLECULE
tmp/6b9pA00.pdb
 163 160 0 0 0
SMALL
GASTEIGER

@<TRIPOS>ATOM
      1  N        -18.2240   -7.9840    6.6810 N.3    23  HIS23      -0.1241
      2  CA       -18.5180   -7.8090    8.0970 C.3    23  HIS23       0.1621
      3  C        -19.9240   -7.2680    8.2520 C.2    23  HIS23       0.2264
      4  O        -20.1860   -6.0960    7.9610 O.2    23  HIS23      -0.2867
      5  CB       -17.5380   -6.8700    8.7780 C.3    23  HIS23       0.0745
      6  CG       -17.8300   -6.6860   10.2380 C.ar   23  HIS23       0.0817
      7  ND1      -17.8990   -7.7470   11.1120 N.ar   23  HIS23      -0.2268
      8  CD2      -18.0600   -5.5720   10.9720 C.ar   23  HIS23       0.1154
      9  CE1      -18.1590   -7.2920   12.3260 C.ar   23  HIS23       0.1986
     10  NE2      -18.2720   -5.9770   12.2630 N.ar   23  HIS23      -0.2212
     11  N        -22.9090   -6.4830   10.6970 N.3    25  ASP25      -0.1239
     12  CA       -23.3700   -6.2740   12.0660 C.3    25  ASP25       0.1674
     13  C        -24.8160   -6.7280   12.1900 C.2    25  ASP25       0.2266
     14  O        -25.6590   -6.3690   11.3610 O.2    25  ASP25      -0.2867
     15  CB       -23.2700   -4.7920   12.4520 C.3    25  ASP25       0.1410
     16  CG       -21.8180   -4.2980   12.5380 C.2    25  ASP25       0.3668
     17  OD1      -21.0240   -4.9900   13.2010 O.co2  25  ASP25      -0.2456
     18  OD2      -21.4840   -3.2290   11.9630 O.co2  25  ASP25      -0.2456
     19  N        -26.9400   -2.2360   14.0750 N.3    28  TRP28      -0.1241
     20  CA       -25.9860   -1.2180   14.5330 C.3    28  TRP28       0.1605
     21  C        -26.5440    0.1620   14.1770 C.2    28  TRP28       0.2264
     22  O        -27.2160    0.7800   15.0030 O.2    28  TRP28      -0.2867
     23  CB       -24.5540   -1.3990   13.9470 C.3    28  TRP28       0.0550
     24  CG       -23.5950   -0.3060   14.4400 C.ar   28  TRP28       0.0003
     25  CD1      -23.4140    0.1170   15.7410 C.ar   28  TRP28       0.0946
     26  CD2      -22.7010    0.4950   13.6380 C.ar   28  TRP28       0.0152
     27  NE1      -22.4780    1.1320   15.7860 N.ar   28  TRP28      -0.2442
     28  CE2      -22.0360    1.3880   14.5120 C.ar   28  TRP28       0.0810
     29  CE3      -22.4030    0.5400   12.2640 C.ar   28  TRP28       0.0012
     30  CZ2      -21.0990    2.3220   14.0560 C.ar   28  TRP28       0.0191
     31  CZ3      -21.4790    1.4760   11.8110 C.ar   28  TRP28       0.0001
     32  CH2      -20.8320    2.3460   12.7030 C.ar   28  TRP28       0.0015
     33  N        -14.1580   -7.7520   14.8910 N.3   145  ASP145     -0.1239
     34  CA       -14.5050   -6.4030   15.3490 C.3   145  ASP145      0.1674
     35  C        -14.6660   -6.1530   16.8540 C.2   145  ASP145      0.2266
     36  O        -14.5400   -5.0000   17.2800 O.2   145  ASP145     -0.2867
     37  CB       -15.7820   -5.9580   14.6150 C.3   145  ASP145      0.1410
     38  CG       -15.9900   -4.4500   14.6660 C.2   145  ASP145      0.3668
     39  OD1      -15.0030   -3.6930   14.7090 O.co2 145  ASP145     -0.2456
     40  OD2      -17.1660   -4.0310   14.6530 O.co2 145  ASP145     -0.2456
     41  N        -14.5360   -5.2080   20.7500 N.3   147  PHE147     -0.1241
     42  CA       -13.6810   -4.0990   21.2330 C.3   147  PHE147      0.1605
     43  C        -12.8390   -4.6030   22.4080 C.2   147  PHE147      0.2264
     44  O        -13.0710   -4.2720   23.5570 O.2   147  PHE147     -0.2867
     45  CB       -14.5340   -2.8900   21.6240 C.3   147  PHE147      0.0534
     46  CG       -15.7460   -2.6640   20.7150 C.ar  147  PHE147     -0.0203
     47  CD1      -15.6510   -2.7840   19.3360 C.ar  147  PHE147     -0.0042
     48  CD2      -16.9710   -2.2960   21.2710 C.ar  147  PHE147     -0.0042
     49  CE1      -16.7620   -2.5660   18.5160 C.ar  147  PHE147     -0.0003
     50  CE2      -18.1070   -2.0660   20.4680 C.ar  147  PHE147     -0.0003
     51  CZ       -17.9920   -2.2040   19.0730 C.ar  147  PHE147     -0.0000
     52  N         -8.8150   -5.8460   16.5950 N.3   170  ARG170     -0.1245
     53  CA        -8.6520   -4.8360   17.6310 C.3   170  ARG170      0.1563
     54  C         -7.8250   -5.3870   18.7750 C.2   170  ARG170      0.2260
     55  O         -8.2330   -6.3510   19.4270 O.2   170  ARG170     -0.2867
     56  CB       -10.0020   -4.3730   18.1700 C.3   170  ARG170      0.0307
     57  CG       -10.8230   -3.6110   17.1670 C.3   170  ARG170      0.0489
     58  CD       -12.1240   -3.1860   17.7930 C.3   170  ARG170      0.2205
     59  NE       -13.0710   -2.6990   16.7970 N.pl3 170  ARG170     -0.0865
     60  CZ       -13.0460   -1.4750   16.2580 C.cat 170  ARG170      0.5346
     61  NH1      -12.1180   -0.5860   16.6180 N.pl3 170  ARG170      0.1354
     62  NH2      -13.9660   -1.1410   15.3550 N.pl3 170  ARG170      0.1354
     63  N         -6.4630   -3.4160   10.6990 N.3   209  HIS209     -0.1226
     64  CA        -7.8940   -3.3290   10.4780 C.3   209  HIS209      0.1752
     65  C         -8.3020   -4.6170    9.7800 C.2   209  HIS209      0.2596
     66  O         -7.4550   -5.4040    9.3500 O.2   209  HIS209     -0.2718
     67  CB        -8.2520   -2.0780    9.6520 C.3   209  HIS209      0.0759
     68  CG        -9.6980   -1.9950    9.2520 C.ar  209  HIS209      0.0818
     69  ND1      -10.7310   -2.2250   10.1350 N.ar  209  HIS209     -0.2268
     70  CD2      -10.2800   -1.7120    8.0590 C.ar  209  HIS209      0.1154
     71  CE1      -11.8890   -2.0830    9.5080 C.ar  209  HIS209      0.1986
     72  NE2      -11.6430   -1.7590    8.2470 N.ar  209  HIS209     -0.2212
     73  N         -9.6040   -4.8660    9.6880 N.am  210  TYR210     -0.1976
     74  CA       -10.0550   -6.0660    9.0070 C.3   210  TYR210      0.1639
     75  C        -10.4280   -5.8000    7.5520 C.2   210  TYR210      0.2290
     76  O        -11.1980   -6.5710    6.9710 O.2   210  TYR210     -0.2864
     77  CB       -11.2230   -6.7040    9.7650 C.3   210  TYR210      0.0560
     78  CG       -12.3680   -5.7790   10.1220 C.ar  210  TYR210     -0.0198
     79  CD1      -13.2870   -5.3800    9.1580 C.ar  210  TYR210     -0.0009
     80  CD2      -12.5790   -5.3640   11.4430 C.ar  210  TYR210     -0.0009
     81  CE1      -14.3720   -4.5560    9.4910 C.ar  210  TYR210      0.0417
     82  CE2      -13.6540   -4.5450   11.7800 C.ar  210  TYR210      0.0417
     83  CZ       -14.5380   -4.1440   10.7960 C.ar  210  TYR210      0.1957
     84  OH       -15.5930   -3.3260   11.1140 O.3   210  TYR210     -0.2866
     85  N        -17.0490   -3.6560    6.1440 N.3   268  ASP268     -0.1239
     86  CA       -18.4260   -3.5210    6.6270 C.3   268  ASP268      0.1674
     87  C        -19.4300   -3.6380    5.4750 C.2   268  ASP268      0.2266
     88  O        -19.4430   -2.8030    4.5680 O.2   268  ASP268     -0.2867
     89  CB       -18.5970   -2.1720    7.3340 C.3   268  ASP268      0.1410
     90  CG       -17.7540   -2.0640    8.5970 C.2   268  ASP268      0.3668
     91  OD1      -17.2510   -3.1010    9.0540 O.co2 268  ASP268     -0.2456
     92  OD2      -17.6020   -0.9540    9.1450 O.co2 268  ASP268     -0.2456
     93  N        -11.8630    2.2700   25.3730 N.3   333  TRP333     -0.1241
     94  CA       -13.2120    1.7550   25.1080 C.3   333  TRP333      0.1605
     95  C        -13.6360    0.9490   26.3280 C.2   333  TRP333      0.2264
     96  O        -13.6990   -0.2840   26.3290 O.2   333  TRP333     -0.2867
     97  CB       -13.2320    0.8900   23.8510 C.3   333  TRP333      0.0550
     98  CG       -12.8640    1.5800   22.5530 C.ar  333  TRP333      0.0003
     99  CD1      -11.8780    2.5070   22.3480 C.ar  333  TRP333      0.0946
    100  CD2      -13.5060    1.3970   21.2880 C.ar  333  TRP333      0.0152
    101  NE1      -11.8540    2.8890   21.0350 N.ar  333  TRP333     -0.2442
    102  CE2      -12.8460    2.2270   20.3600 C.ar  333  TRP333      0.0810
    103  CE3      -14.5640    0.5900   20.8470 C.ar  333  TRP333      0.0012
    104  CZ2      -13.2140    2.2850   19.0090 C.ar  333  TRP333      0.0191
    105  CZ3      -14.9230    0.6370   19.5040 C.ar  333  TRP333      0.0001
    106  CH2      -14.2410    1.4810   18.6010 C.ar  333  TRP333      0.0015
    107  N        -22.0660   -7.4920   18.9870 N.3   386  HIS386     -0.1226
    108  CA       -21.0760   -6.6190   19.6060 C.3   386  HIS386      0.1752
    109  C        -21.4630   -5.1370   19.6040 C.2   386  HIS386      0.2596
    110  O        -20.6930   -4.3420   20.1590 O.2   386  HIS386     -0.2718
    111  CB       -19.6730   -6.8160   18.9730 C.3   386  HIS386      0.0759
    112  CG       -19.6110   -6.6520   17.4820 C.ar  386  HIS386      0.0818
    113  ND1      -19.7670   -7.7130   16.6090 N.ar  386  HIS386     -0.2268
    114  CD2      -19.3210   -5.5760   16.7120 C.ar  386  HIS386      0.1154
    115  CE1      -19.6270   -7.2880   15.3690 C.ar  386  HIS386      0.1986
    116  NE2      -19.3580   -5.9940   15.4000 N.ar  386  HIS386     -0.2212
    117  N        -22.6110   -4.7420   19.0340 N.am  387  ASP387     -0.1974
    118  CA       -23.1710   -3.4080   19.2310 C.3   387  ASP387      0.1709
    119  C        -24.4690   -3.4310   20.0310 C.2   387  ASP387      0.2293
    120  O        -25.0620   -2.3640   20.2720 O.2   387  ASP387     -0.2864
    121  CB       -23.4300   -2.7210   17.8840 C.3   387  ASP387      0.1436
    122  CG       -22.1640   -2.5600   17.0620 C.2   387  ASP387      0.3671
    123  OD1      -21.2490   -1.8580   17.5350 O.co2 387  ASP387     -0.2456
    124  OD2      -22.0880   -3.1460   15.9570 O.co2 387  ASP387     -0.2456
    125  N        -19.1230    4.3450   23.3380 N.3   600  TYR600     -0.1241
    126  CA       -17.9980    3.4190   23.3560 C.3   600  TYR600      0.1605
    127  C        -16.9560    3.7920   24.4080 C.2   600  TYR600      0.2264
    128  O        -16.5190    2.9410   25.1970 O.2   600  TYR600     -0.2867
    129  CB       -17.2730    3.3940   22.0020 C.3   600  TYR600      0.0534
    130  CG       -18.0580    3.0280   20.7680 C.ar  600  TYR600     -0.0201
    131  CD1      -18.7850    3.9890   20.0820 C.ar  600  TYR600     -0.0009
    132  CD2      -17.9940    1.7390   20.2330 C.ar  600  TYR600     -0.0009
    133  CE1      -19.4620    3.6720   18.9080 C.ar  600  TYR600      0.0417
    134  CE2      -18.6630    1.4110   19.0810 C.ar  600  TYR600      0.0417
    135  CZ       -19.4080    2.3810   18.4270 C.ar  600  TYR600      0.1957
    136  OH       -20.0730    2.0630   17.2740 O.3   600  TYR600     -0.2866
    137  N        -21.1750   12.6460   20.9170 N.3   758  ASP758     -0.1239
    138  CA       -20.8000   11.3620   20.3640 C.3   758  ASP758      0.1674
    139  C        -19.2700   11.2240   20.4040 C.2   758  ASP758      0.2266
    140  O        -18.5480   12.2300   20.3830 O.2   758  ASP758     -0.2867
    141  CB       -21.3500   11.2830   18.9320 C.3   758  ASP758      0.1410
    142  CG       -20.7650   10.1740   18.1450 C.2   758  ASP758      0.3668
    143  OD1      -21.1380    9.0130   18.4030 O.co2 758  ASP758     -0.2456
    144  OD2      -19.9200   10.4580   17.2760 O.co2 758  ASP758     -0.2456
    145  N        -17.2800    9.7580   18.1620 N.3   760  GLY760     -0.1210
    146  CA       -16.6160    9.7200   16.8720 C.3   760  GLY760      0.1956
    147  C        -16.1130    8.3600   16.4530 C.2   760  GLY760      0.2612
    148  O        -15.0600    8.2600   15.8110 O.2   760  GLY760     -0.2717
    149  N        -16.8280    7.2970   16.7990 N.am  761  ARG761     -0.1965
    150  CA       -16.5000    5.9810   16.2790 C.3   761  ARG761      0.1729
    151  C        -17.6060    5.4380   15.3870 C.2   761  ARG761      0.2616
    152  O        -17.5700    4.2710   15.0080 O.2   761  ARG761     -0.2715
    153  CB       -16.1780    5.0180   17.4170 C.3   761  ARG761      0.0348
    154  CG       -14.8850    5.3600   18.1760 C.3   761  ARG761      0.0492
    155  CD       -13.6310    5.3820   17.2520 C.3   761  ARG761      0.2205
    156  NE       -12.3850    5.6310   17.9840 N.pl3 761  ARG761     -0.0865
    157  CZ       -12.0580    6.7980   18.5340 C.cat 761  ARG761      0.5346
    158  NH1      -12.8880    7.8360   18.4510 N.pl3 761  ARG761      0.1354
    159  NH2      -10.8990    6.9300   19.1640 N.pl3 761  ARG761      0.1354
    160  N        -18.5690    6.2630   15.0100 N.am  762  GLY762     -0.1955
    161  CA       -19.4650    5.9290   13.9170 C.3   762  GLY762      0.1869
    162  C        -20.9190    5.8370   14.3000 C.2   762  GLY762      0.2309
    163  O        -21.7730    5.8430   13.3970 O.2   762  GLY762     -0.2863
@<TRIPOS>BOND
     1    88    87    2
     2    87    86    1
     3    85    86    1
     4    86    89    1
     5     1     2    1
     6    76    75    2
     7    89    90    1
     8    75    74    1
     9     4     3    2
    10    70    72   ar
    11    70    68   ar
    12     2     3    1
    13     2     5    1
    14    72    71   ar
    15    90    91   ar
    16    90    92   ar
    17     5     6    1
    18    74    73    1
    19    74    77    1
    20    79    81   ar
    21    79    78   ar
    22    68    67    1
    23    68    69   ar
    24    66    65    2
    25    81    83   ar
    26    71    69   ar
    27    67    64    1
    28    73    65   am
    29    77    78    1
    30    65    64    1
    31    78    80   ar
    32     6     8   ar
    33     6     7   ar
    34    64    63    1
    35    11    12    1
    36    83    84    1
    37    83    82   ar
    38     8    10   ar
    39     7     9   ar
    40    14    13    2
    41    80    82   ar
    42    31    29   ar
    43    31    32   ar
    44    18    16   ar
    45    12    13    1
    46    12    15    1
    47    10     9   ar
    48    29    26   ar
    49    15    16    1
    50    16    17   ar
    51    32    30   ar
    52   163   162    2
    53    26    24   ar
    54    26    28   ar
    55   161   162    1
    56   161   160    1
    57    23    24    1
    58    23    20    1
    59    30    28   ar
    60    19    20    1
    61    21    20    1
    62    21    22    2
    63    24    25   ar
    64    28    27   ar
    65    37    38    1
    66    37    34    1
    67    40    38   ar
    68    38    39   ar
    69    33    34    1
    70   152   151    2
    71   160   151   am
    72    34    35    1
    73    62    60    1
    74   115   116   ar
    75   115   113   ar
    76   151   150    1
    77   116   114   ar
    78    25    27   ar
    79   148   147    2
    80   124   122   ar
    81    60    61    1
    82    60    59    2
    83   150   149    1
    84   150   153    1
    85   147   149   am
    86   147   146    1
    87    52    53    1
    88   113   112   ar
    89   114   112   ar
    90    59    58    1
    91    35    36    2
    92   146   145    1
    93   122   123   ar
    94   122   121    1
    95    57    58    1
    96    57    56    1
    97   155   156    1
    98   155   154    1
    99   136   135    1
   100   144   142   ar
   101   153   154    1
   102   112   111    1
   103    53    56    1
   104    53    54    1
   105   121   118    1
   106   156   157    2
   107   142   143   ar
   108   142   141    1
   109   135   133   ar
   110   135   134   ar
   111   158   157    1
   112    49    51   ar
   113    49    47   ar
   114   157   159    1
   115   106   104   ar
   116   106   105   ar
   117    54    55    2
   118   133   131   ar
   119   141   138    1
   120   111   108    1
   121   107   108    1
   122   104   102   ar
   123   117   118    1
   124   117   109   am
   125    51    50   ar
   126   134   132   ar
   127   118   119    1
   128    47    46   ar
   129   105   103   ar
   130   109   108    1
   131   109   110    2
   132   119   120    2
   133   131   130   ar
   134   132   130   ar
   135   102   101   ar
   136   102   100   ar
   137   138   139    1
   138   138   137    1
   139   140   139    2
   140    50    48   ar
   141    46    48   ar
   142    46    45    1
   143    41    42    1
   144   130   129    1
   145   103   100   ar
   146   101    99   ar
   147    42    45    1
   148    42    43    1
   149   100    98   ar
   150   129   126    1
   151    99    98   ar
   152    43    44    2
   153    98    97    1
   154   125   126    1
   155   126   127    1
   156    97    94    1
   157   127   128    2
   158    94    93    1
   159    94    95    1
   160    95    96    2
