@<TRIPOS>MOLECULE
tmp/6b9rC00.pdb
 102 96 0 0 0
SMALL
GASTEIGER

@<TRIPOS>ATOM
      1  N         71.5850  101.7100  -52.4990 N.3    99  ARG99      -0.1245
      2  CA        71.6130  100.7670  -51.3950 C.3    99  ARG99       0.1563
      3  C         72.2160   99.4790  -51.9290 C.2    99  ARG99       0.2260
      4  O         71.9150   99.0770  -53.0530 O.2    99  ARG99      -0.2867
      5  CB        70.2070  100.5000  -50.8240 C.3    99  ARG99       0.0307
      6  CG        69.5180  101.6910  -50.1370 C.3    99  ARG99       0.0489
      7  CD        68.1800  101.2100  -49.5240 C.3    99  ARG99       0.2205
      8  NE        67.3340  102.2790  -49.0000 N.pl3  99  ARG99      -0.0865
      9  CZ        66.1350  102.0720  -48.4580 C.cat  99  ARG99       0.5346
     10  NH1       65.6350  100.8430  -48.3820 N.pl3  99  ARG99       0.1354
     11  NH2       65.4270  103.0880  -47.9990 N.pl3  99  ARG99       0.1354
     12  N         66.2980  103.3710  -55.2660 N.3   105  TYR105     -0.1241
     13  CA        65.0590  104.1160  -55.4060 C.3   105  TYR105      0.1605
     14  C         65.3290  105.4390  -56.1020 C.2   105  TYR105      0.2264
     15  O         66.3610  106.0650  -55.8680 O.2   105  TYR105     -0.2867
     16  CB        64.4510  104.4610  -54.0410 C.3   105  TYR105      0.0534
     17  CG        63.9480  103.2930  -53.2330 C.ar  105  TYR105     -0.0201
     18  CD1       63.2010  102.2750  -53.8140 C.ar  105  TYR105     -0.0009
     19  CD2       64.1710  103.2450  -51.8580 C.ar  105  TYR105     -0.0009
     20  CE1       62.6970  101.2100  -53.0270 C.ar  105  TYR105      0.0417
     21  CE2       63.7030  102.1930  -51.0810 C.ar  105  TYR105      0.0417
     22  CZ        62.9660  101.1920  -51.6590 C.ar  105  TYR105      0.1957
     23  OH        62.5150  100.1650  -50.8490 O.3   105  TYR105     -0.2866
     24  N         63.2580  108.9390  -55.7790 N.3   107  TYR107     -0.1241
     25  CA        62.2120  109.6630  -55.0590 C.3   107  TYR107      0.1605
     26  C         61.8320  110.9520  -55.7820 C.2   107  TYR107      0.2264
     27  O         62.7050  111.6810  -56.2590 O.2   107  TYR107     -0.2867
     28  CB        62.6780  110.0480  -53.6590 C.3   107  TYR107      0.0534
     29  CG        63.0790  108.9340  -52.7280 C.ar  107  TYR107     -0.0201
     30  CD1       64.3670  108.4260  -52.7350 C.ar  107  TYR107     -0.0009
     31  CD2       62.1890  108.4520  -51.7770 C.ar  107  TYR107     -0.0009
     32  CE1       64.7510  107.4390  -51.8630 C.ar  107  TYR107      0.0417
     33  CE2       62.5610  107.4580  -50.8980 C.ar  107  TYR107      0.0417
     34  CZ        63.8440  106.9590  -50.9410 C.ar  107  TYR107      0.1957
     35  OH        64.2210  105.9730  -50.0620 O.3   107  TYR107     -0.2866
     36  N         57.9320  107.0300  -55.9430 N.3   123  ILE123     -0.1245
     37  CA        59.2140  106.3360  -55.7870 C.3   123  ILE123      0.1561
     38  C         59.2870  105.2250  -56.8180 C.2   123  ILE123      0.2260
     39  O         58.4090  104.3600  -56.8600 O.2   123  ILE123     -0.2867
     40  CB        59.4230  105.7450  -54.3800 C.3   123  ILE123      0.0252
     41  CG1       59.0640  106.7670  -53.2940 C.3   123  ILE123      0.0019
     42  CG2       60.8950  105.2880  -54.2360 C.3   123  ILE123      0.0019
     43  CD1       59.2090  106.2390  -51.9020 C.3   123  ILE123      0.0001
     44  N         64.6290   99.3550  -45.1760 N.3   142  ASN142     -0.1240
     45  CA        64.7730  100.5240  -44.3210 C.3   142  ASN142      0.1653
     46  C         64.6740  100.0640  -42.8660 C.2   142  ASN142      0.2266
     47  O         64.5530   98.8690  -42.5770 O.2   142  ASN142     -0.2867
     48  CB        63.7660  101.6300  -44.6880 C.3   142  ASN142      0.1155
     49  CG        62.2970  101.2720  -44.3950 C.2   142  ASN142      0.2627
     50  OD1       61.9940  100.5130  -43.4870 O.2   142  ASN142     -0.2716
     51  ND2       61.3810  101.8500  -45.1820 N.am  142  ASN142     -0.0877
     52  N         60.1140  103.9330  -40.2810 N.3   145  HIS145     -0.1241
     53  CA        60.0770  105.3760  -40.1310 C.3   145  HIS145      0.1621
     54  C         58.8200  105.7750  -39.3660 C.2   145  HIS145      0.2264
     55  O         57.8660  105.0050  -39.2360 O.2   145  HIS145     -0.2867
     56  CB        60.1690  106.1010  -41.4950 C.3   145  HIS145      0.0745
     57  CG        59.1720  105.6390  -42.5120 C.ar  145  HIS145      0.0817
     58  ND1       57.8060  105.7200  -42.3120 N.ar  145  HIS145     -0.2268
     59  CD2       59.3420  105.1210  -43.7530 C.ar  145  HIS145      0.1154
     60  CE1       57.1810  105.2580  -43.3820 C.ar  145  HIS145      0.1986
     61  NE2       58.0900  104.8860  -44.2670 N.ar  145  HIS145     -0.2212
     62  N         60.3760   98.0220  -44.0690 N.3   186  HIS186     -0.1241
     63  CA        59.8540   97.5290  -45.3330 C.3   186  HIS186      0.1621
     64  C         60.8260   97.8660  -46.4570 C.2   186  HIS186      0.2264
     65  O         61.8260   98.5590  -46.2600 O.2   186  HIS186     -0.2867
     66  CB        58.4460   98.0890  -45.6210 C.3   186  HIS186      0.0745
     67  CG        58.3140   99.5720  -45.4490 C.ar  186  HIS186      0.0817
     68  ND1       58.1310  100.1700  -44.2170 N.ar  186  HIS186     -0.2268
     69  CD2       58.2820  100.5750  -46.3600 C.ar  186  HIS186      0.1154
     70  CE1       58.0250  101.4800  -44.3750 C.ar  186  HIS186      0.1986
     71  NE2       58.1010  101.7490  -45.6660 N.ar  186  HIS186     -0.2212
     72  N         60.9800   97.6800  -51.2230 N.3   188  PHE188     -0.1241
     73  CA        60.2970   97.4740  -52.4920 C.3   188  PHE188      0.1605
     74  C         61.3390   97.0840  -53.5330 C.2   188  PHE188      0.2264
     75  O         62.4640   97.5880  -53.4990 O.2   188  PHE188     -0.2867
     76  CB        59.5690   98.7420  -52.9770 C.3   188  PHE188      0.0534
     77  CG        58.5970   99.3290  -51.9790 C.ar  188  PHE188     -0.0203
     78  CD1       59.0270  100.2230  -51.0060 C.ar  188  PHE188     -0.0042
     79  CD2       57.2460   99.0110  -52.0340 C.ar  188  PHE188     -0.0042
     80  CE1       58.1330  100.7650  -50.0800 C.ar  188  PHE188     -0.0003
     81  CE2       56.3440   99.5560  -51.1170 C.ar  188  PHE188     -0.0003
     82  CZ        56.7880  100.4400  -50.1440 C.ar  188  PHE188     -0.0000
     83  N         55.7240  103.2530  -57.0140 N.3   199  ILE199     -0.1245
     84  CA        54.6850  103.3760  -56.0020 C.3   199  ILE199      0.1561
     85  C         54.4100  104.8470  -55.7600 C.2   199  ILE199      0.2260
     86  O         55.2450  105.7170  -56.0150 O.2   199  ILE199     -0.2867
     87  CB        55.0740  102.7000  -54.6740 C.3   199  ILE199      0.0252
     88  CG1       56.3290  103.3690  -54.0970 C.3   199  ILE199      0.0019
     89  CG2       55.2700  101.1900  -54.8700 C.3   199  ILE199      0.0019
     90  CD1       56.8540  102.7250  -52.8450 C.3   199  ILE199      0.0001
     91  N         54.0220  106.4720  -52.4620 N.3   201  ALA201     -0.1245
     92  CA        54.2470  106.1910  -51.0470 C.3   201  ALA201      0.1562
     93  C         53.7550  107.4040  -50.2650 C.2   201  ALA201      0.2260
     94  O         54.5070  108.3440  -49.9940 O.2   201  ALA201     -0.2867
     95  CB        55.7200  105.8850  -50.7890 C.3   201  ALA201      0.0290
     96  N         53.0140  108.7120  -47.2150 N.3   203  THR203     -0.1218
     97  CA        53.1110  108.6300  -45.7690 C.3   203  THR203      0.1862
     98  C         52.4650  109.8590  -45.1540 C.2   203  THR203      0.2287
     99  O         52.3600  110.9100  -45.7840 O.2   203  THR203     -0.2866
    100  CB        54.5620  108.5280  -45.2850 C.3   203  THR203      0.1770
    101  OG1       55.2550  109.7430  -45.5890 O.3   203  THR203     -0.2211
    102  CG2       55.2820  107.3630  -45.9460 C.3   203  THR203      0.0375
@<TRIPOS>BOND
     1    83    84    1
     2    39    38    2
     3    38    37    1
     4    27    26    2
     5    14    15    2
     6    14    13    1
     7    86    85    2
     8    84    85    1
     9    84    87    1
    10    36    37    1
    11    37    40    1
    12    26    25    1
    13    24    25    1
    14    13    12    1
    15    13    16    1
    16    25    28    1
    17    89    87    1
    18    87    88    1
    19    40    42    1
    20    40    41    1
    21    88    90    1
    22    16    17    1
    23    18    17   ar
    24    18    20   ar
    25    28    29    1
    26    74    75    2
    27    74    73    1
    28    41    43    1
    29    17    19   ar
    30     4     3    2
    31    20    22   ar
    32    76    73    1
    33    76    77    1
    34    30    29   ar
    35    30    32   ar
    36    29    31   ar
    37     1     2    1
    38    73    72    1
    39    91    92    1
    40    79    77   ar
    41    79    81   ar
    42    77    78   ar
    43     3     2    1
    44    32    34   ar
    45    19    21   ar
    46    31    33   ar
    47    22    21   ar
    48    22    23    1
    49     2     5    1
    50    81    82   ar
    51    92    95    1
    52    92    93    1
    53    78    80   ar
    54    34    33   ar
    55    34    35    1
    56     5     6    1
    57    93    94    2
    58    82    80   ar
    59     6     7    1
    60     7     8    1
    61     8     9    2
    62     9    10    1
    63     9    11    1
    64    96    97    1
    65    64    65    2
    66    64    63    1
    67    69    71   ar
    68    69    67   ar
    69   102   100    1
    70    99    98    2
    71    97   100    1
    72    97    98    1
    73    71    70   ar
    74    66    67    1
    75    66    63    1
    76   101   100    1
    77    67    68   ar
    78    63    62    1
    79    51    49   am
    80    44    45    1
    81    48    49    1
    82    48    45    1
    83    49    50    2
    84    70    68   ar
    85    45    46    1
    86    61    59   ar
    87    61    60   ar
    88    59    57   ar
    89    60    58   ar
    90    46    47    2
    91    57    58   ar
    92    57    56    1
    93    56    53    1
    94    52    53    1
    95    53    54    1
    96    54    55    2
