@<TRIPOS>MOLECULE
tmp/6b9tD00.pdb
 104 98 0 0 0
SMALL
GASTEIGER

@<TRIPOS>ATOM
      1  N         33.0990  -86.6670    7.6350 N.3    99  ARG99      -0.1245
      2  CA        31.7070  -86.5240    7.2390 C.3    99  ARG99       0.1563
      3  C         31.1270  -85.3430    8.0010 C.2    99  ARG99       0.2260
      4  O         31.2620  -85.2640    9.2250 O.2    99  ARG99      -0.2867
      5  CB        30.9070  -87.8080    7.5100 C.3    99  ARG99       0.0307
      6  CG        31.3260  -88.9740    6.6210 C.3    99  ARG99       0.0489
      7  CD        30.4380  -90.2010    6.7810 C.3    99  ARG99       0.2205
      8  NE        30.9130  -91.2980    5.9400 N.pl3  99  ARG99      -0.0865
      9  CZ        30.3040  -92.4740    5.8100 C.cat  99  ARG99       0.5346
     10  NH1       30.8240  -93.4010    5.0170 N.pl3  99  ARG99       0.1354
     11  NH2       29.1750  -92.7230    6.4610 N.pl3  99  ARG99       0.1354
     12  N         35.6290  -91.8370   10.1770 N.3   105  TYR105     -0.1241
     13  CA        36.1800  -93.1810   10.0970 C.3   105  TYR105      0.1605
     14  C         37.6840  -93.1110    9.8760 C.2   105  TYR105      0.2264
     15  O         38.2010  -92.1270    9.3420 O.2   105  TYR105     -0.2867
     16  CB        35.5660  -93.9820    8.9430 C.3   105  TYR105      0.0534
     17  CG        34.1340  -94.4280    9.1080 C.ar  105  TYR105     -0.0201
     18  CD1       33.6420  -94.8680   10.3300 C.ar  105  TYR105     -0.0009
     19  CD2       33.2810  -94.4410    8.0160 C.ar  105  TYR105     -0.0009
     20  CE1       32.3240  -95.2940   10.4520 C.ar  105  TYR105      0.0417
     21  CE2       31.9780  -94.8580    8.1270 C.ar  105  TYR105      0.0417
     22  CZ        31.5010  -95.2880    9.3370 C.ar  105  TYR105      0.1957
     23  OH        30.1900  -95.7040    9.4060 O.3   105  TYR105     -0.2866
     24  N         39.9210  -95.7730    7.7710 N.3   107  TYR107     -0.1241
     25  CA        39.9780  -97.0010    6.9880 C.3   107  TYR107      0.1605
     26  C         41.4110  -97.5080    6.9020 C.2   107  TYR107      0.2264
     27  O         42.3570  -96.7230    6.7940 O.2   107  TYR107     -0.2867
     28  CB        39.4440  -96.7890    5.5680 C.3   107  TYR107      0.0534
     29  CG        37.9740  -96.4460    5.4410 C.ar  107  TYR107     -0.0201
     30  CD1       37.5200  -95.1620    5.7050 C.ar  107  TYR107     -0.0009
     31  CD2       37.0510  -97.3880    4.9860 C.ar  107  TYR107     -0.0009
     32  CE1       36.1840  -94.8290    5.5670 C.ar  107  TYR107      0.0417
     33  CE2       35.7070  -97.0620    4.8410 C.ar  107  TYR107      0.0417
     34  CZ        35.2820  -95.7730    5.1370 C.ar  107  TYR107      0.1957
     35  OH        33.9560  -95.4120    5.0140 O.3   107  TYR107     -0.2866
     36  N         38.0750 -100.5700    9.9550 N.3   123  ILE123     -0.1245
     37  CA        37.4140  -99.2630   10.0150 C.3   123  ILE123      0.1561
     38  C         37.1930  -98.8790   11.4750 C.2   123  ILE123      0.2260
     39  O         36.3560  -99.4770   12.1650 O.2   123  ILE123     -0.2867
     40  CB        36.0890  -99.2450    9.2410 C.3   123  ILE123      0.0252
     41  CG1       36.3140  -99.6820    7.7920 C.3   123  ILE123      0.0019
     42  CG2       35.4790  -97.8460    9.2630 C.3   123  ILE123      0.0019
     43  CD1       35.0510  -99.7680    6.9880 C.3   123  ILE123      0.0001
     44  N         25.6330  -93.5370    4.9640 N.3   142  ASN142     -0.1240
     45  CA        26.0900  -93.6870    3.5940 C.3   142  ASN142      0.1653
     46  C         24.8880  -93.9080    2.6770 C.2   142  ASN142      0.2266
     47  O         23.7320  -93.8620    3.1000 O.2   142  ASN142     -0.2867
     48  CB        27.1140  -94.8230    3.4800 C.3   142  ASN142      0.1155
     49  CG        26.5410  -96.2030    3.8310 C.2   142  ASN142      0.2627
     50  OD1       25.3240  -96.4140    3.8570 O.2   142  ASN142     -0.2716
     51  ND2       27.4350  -97.1550    4.0970 N.am  142  ASN142     -0.0877
     52  N         26.0200  -99.6050   -0.5040 N.3   145  HIS145     -0.1241
     53  CA        27.0210  -99.8530   -1.5310 C.3   145  HIS145      0.1621
     54  C         26.8270 -101.2310   -2.1490 C.2   145  HIS145      0.2264
     55  O         26.1360 -102.0990   -1.6040 O.2   145  HIS145     -0.2867
     56  CB        28.4520  -99.6960   -0.9820 C.3   145  HIS145      0.0745
     57  CG        28.6700 -100.3400    0.3510 C.ar  145  HIS145      0.0817
     58  ND1       28.5200 -101.6950    0.5630 N.ar  145  HIS145     -0.2268
     59  CD2       29.0550  -99.8150    1.5380 C.ar  145  HIS145      0.1154
     60  CE1       28.7900 -101.9730    1.8250 C.ar  145  HIS145      0.1986
     61  NE2       29.1190 -100.8500    2.4380 N.ar  145  HIS145     -0.2212
     62  N         28.3380 -107.2270    2.6350 N.3   149  GLN149     -0.1245
     63  CA        29.1400 -106.8440    3.7930 C.3   149  GLN149      0.1566
     64  C         28.8560 -107.7550    4.9760 C.2   149  GLN149      0.2260
     65  O         27.7360 -107.7750    5.4970 O.2   149  GLN149     -0.2867
     66  CB        28.8770 -105.3850    4.1820 C.3   149  GLN149      0.0367
     67  CG        29.5520 -104.9570    5.4770 C.3   149  GLN149      0.0905
     68  CD        29.4810 -103.4540    5.7060 C.2   149  GLN149      0.2608
     69  OE1       29.2690 -102.6830    4.7730 O.2   149  GLN149     -0.2717
     70  NE2       29.6500 -103.0370    6.9560 N.am  149  GLN149     -0.0878
     71  N         23.7980  -97.6240    5.9560 N.3   187  HIS187     -0.1241
     72  CA        24.2600  -97.9690    7.2890 C.3   187  HIS187      0.1621
     73  C         25.3680  -97.0150    7.7020 C.2   187  HIS187      0.2264
     74  O         25.9600  -96.3200    6.8720 O.2   187  HIS187     -0.2867
     75  CB        24.7410  -99.4280    7.3510 C.3   187  HIS187      0.0745
     76  CG        25.7940  -99.7700    6.3390 C.ar  187  HIS187      0.0817
     77  ND1       25.4960 -100.0590    5.0230 N.ar  187  HIS187     -0.2268
     78  CD2       27.1390  -99.8780    6.4510 C.ar  187  HIS187      0.1154
     79  CE1       26.6120 -100.3230    4.3680 C.ar  187  HIS187      0.1986
     80  NE2       27.6230 -100.2240    5.2110 N.ar  187  HIS187     -0.2212
     81  N         28.2470  -96.4000   11.4370 N.3   189  PHE189     -0.1241
     82  CA        28.7580  -96.9270   12.6910 C.3   189  PHE189      0.1605
     83  C         29.3300  -95.7870   13.5170 C.2   189  PHE189      0.2264
     84  O         29.9230  -94.8520   12.9700 O.2   189  PHE189     -0.2867
     85  CB        29.8480  -97.9890   12.4550 C.3   189  PHE189      0.0534
     86  CG        29.4130  -99.1360   11.5800 C.ar  189  PHE189     -0.0203
     87  CD1       29.4510  -99.0260   10.1970 C.ar  189  PHE189     -0.0042
     88  CD2       28.9920 -100.3350   12.1380 C.ar  189  PHE189     -0.0042
     89  CE1       29.0600 -100.0810    9.3900 C.ar  189  PHE189     -0.0003
     90  CE2       28.6030 -101.3930   11.3320 C.ar  189  PHE189     -0.0003
     91  CZ        28.6350 -101.2590    9.9560 C.ar  189  PHE189     -0.0000
     92  N         35.4820 -102.0000   13.7370 N.3   201  ILE201     -0.1245
     93  CA        34.7980 -103.0600   13.0110 C.3   201  ILE201      0.1561
     94  C         35.7330 -103.6280   11.9540 C.2   201  ILE201      0.2260
     95  O         36.5710 -102.9250   11.3780 O.2   201  ILE201     -0.2867
     96  CB        33.4790 -102.5930   12.3630 C.3   201  ILE201      0.0252
     97  CG1       33.7480 -101.6290   11.2040 C.3   201  ILE201      0.0019
     98  CG2       32.5890 -101.9470   13.4110 C.3   201  ILE201      0.0019
     99  CD1       32.5240 -101.3420   10.3570 C.3   201  ILE201      0.0001
    100  N         35.0490 -104.8120    8.6240 N.3   203  ALA203     -0.1245
    101  CA        34.0200 -104.8310    7.5850 C.3   203  ALA203      0.1562
    102  C         34.5240 -105.6760    6.4230 C.2   203  ALA203      0.2260
    103  O         35.2840 -105.2030    5.5760 O.2   203  ALA203     -0.2867
    104  CB        33.6730 -103.4130    7.1380 C.3   203  ALA203      0.0290
@<TRIPOS>BOND
     1    54    55    2
     2    54    53    1
     3    53    56    1
     4    53    52    1
     5    56    57    1
     6    57    58   ar
     7    57    59   ar
     8    58    60   ar
     9    59    61   ar
    10    60    61   ar
    11    62    63    1
    12    46    47    2
    13    46    45    1
    14    48    45    1
    15    48    49    1
    16    45    44    1
    17    63    66    1
    18    63    64    1
    19    49    50    2
    20    49    51   am
    21    66    67    1
    22    79    77   ar
    23    79    80   ar
    24    69    68    2
    25    33    31   ar
    26    33    34   ar
    27    64    65    2
    28    31    29   ar
    29    35    34    1
    30    10     9    1
    31    77    76   ar
    32    34    32   ar
    33    80    78   ar
    34    29    28    1
    35    29    30   ar
    36    67    68    1
    37    32    30   ar
    38    28    25    1
    39   103   102    2
    40    68    70   am
    41     9     8    2
    42     9    11    1
    43     8     7    1
    44    71    72    1
    45    76    78   ar
    46    76    75    1
    47   102   101    1
    48     6     7    1
    49     6     5    1
    50    27    26    2
    51    74    73    2
    52    26    25    1
    53    43    41    1
    54    25    24    1
    55   104   101    1
    56     2     5    1
    57     2     1    1
    58     2     3    1
    59    72    75    1
    60    72    73    1
    61   101   100    1
    62    41    40    1
    63     3     4    2
    64    19    21   ar
    65    19    17   ar
    66    21    22   ar
    67    16    17    1
    68    16    13    1
    69    17    18   ar
    70    40    42    1
    71    40    37    1
    72    22    23    1
    73    22    20   ar
    74    15    14    2
    75    89    91   ar
    76    89    87   ar
    77    14    13    1
    78    36    37    1
    79    91    90   ar
    80    37    38    1
    81    13    12    1
    82    87    86   ar
    83    18    20   ar
    84    99    97    1
    85    97    96    1
    86    90    88   ar
    87    95    94    2
    88    81    82    1
    89    38    39    2
    90    86    88   ar
    91    86    85    1
    92    94    93    1
    93    96    93    1
    94    96    98    1
    95    85    82    1
    96    82    83    1
    97    84    83    2
    98    93    92    1
