@<TRIPOS>MOLECULE
tmp/6b9yA00.pdb
 157 150 0 0 0
SMALL
GASTEIGER

@<TRIPOS>ATOM
      1  N         24.5240   34.4810   12.5940 N.3     9  ILE9       -0.1231
      2  CA        24.7060   33.2730   13.3910 C.3     9  ILE9        0.1692
      3  C         24.0720   33.4470   14.7720 C.2     9  ILE9        0.2591
      4  O         23.6010   32.4780   15.3920 O.2     9  ILE9       -0.2718
      5  CB        26.2080   32.9380   13.4710 C.3     9  ILE9        0.0266
      6  CG1       26.7150   32.4270   12.1140 C.3     9  ILE9        0.0019
      7  CG2       26.4880   31.9240   14.5580 C.3     9  ILE9        0.0020
      8  CD1       27.1250   33.5250   11.1210 C.3     9  ILE9        0.0001
      9  N         24.0480   34.6750   15.2700 N.am   10  LEU10      -0.1980
     10  CA        23.4530   34.9810   16.5590 C.3    10  LEU10       0.1596
     11  C         22.6860   36.2870   16.4210 C.2    10  LEU10       0.2287
     12  O         23.1830   37.2400   15.8200 O.2    10  LEU10      -0.2864
     13  CB        24.5210   35.0970   17.6510 C.3    10  LEU10       0.0297
     14  CG        23.9880   35.5990   18.9910 C.3    10  LEU10       0.0022
     15  CD1       23.1180   34.5170   19.6050 C.3    10  LEU10       0.0001
     16  CD2       25.1170   36.0150   19.9400 C.3    10  LEU10       0.0001
     17  N         14.5280   24.7630   17.2250 N.3    38  GLN38      -0.1231
     18  CA        15.0790   23.7590   18.1260 C.3    38  GLN38       0.1698
     19  C         15.4030   24.4020   19.4660 C.2    38  GLN38       0.2592
     20  O         16.2810   25.2670   19.5480 O.2    38  GLN38      -0.2718
     21  CB        16.3160   23.0890   17.5390 C.3    38  GLN38       0.0381
     22  CG        16.8900   22.0370   18.4690 C.3    38  GLN38       0.0905
     23  CD        17.8970   21.1440   17.7760 C.2    38  GLN38       0.2608
     24  OE1       18.8110   21.6340   17.0990 O.2    38  GLN38      -0.2717
     25  NE2       17.7350   19.8240   17.9310 N.am   38  GLN38      -0.0878
     26  N         14.6950   23.9720   20.5030 N.am   39  ARG39      -0.1966
     27  CA        14.9220   24.4480   21.8570 C.3    39  ARG39       0.1729
     28  C         15.6480   23.3810   22.6630 C.2    39  ARG39       0.2617
     29  O         15.7610   22.2220   22.2550 O.2    39  ARG39      -0.2715
     30  CB        13.6000   24.8350   22.5280 C.3    39  ARG39       0.0348
     31  CG        12.7550   25.7610   21.6820 C.3    39  ARG39       0.0492
     32  CD        11.6840   26.4650   22.4910 C.3    39  ARG39       0.2205
     33  NE        12.2460   27.4120   23.4520 N.pl3  39  ARG39      -0.0865
     34  CZ        11.9450   27.4260   24.7430 C.cat  39  ARG39       0.5346
     35  NH1       11.0830   26.5420   25.2260 N.pl3  39  ARG39       0.1354
     36  NH2       12.4890   28.3280   25.5480 N.pl3  39  ARG39       0.1354
     37  N         16.1470   23.7960   23.8200 N.am   40  THR40      -0.1937
     38  CA        17.0820   22.9830   24.5900 C.3    40  THR40       0.2028
     39  C         16.5350   21.5930   24.8740 C.2    40  THR40       0.2642
     40  O         15.4060   21.4330   25.3460 O.2    40  THR40      -0.2714
     41  CB        17.4300   23.7090   25.8850 C.3    40  THR40       0.1808
     42  OG1       17.9060   25.0100   25.5360 O.3    40  THR40      -0.2208
     43  CG2       18.5060   22.9640   26.6520 C.3    40  THR40       0.0379
     44  N         17.3460   20.5920   24.5330 N.am   41  ASN41      -0.1957
     45  CA        17.0380   19.1760   24.6900 C.3    41  ASN41       0.1819
     46  C         15.8310   18.7410   23.8640 C.2    41  ASN41       0.2621
     47  O         15.2920   17.6560   24.0810 O.2    41  ASN41      -0.2715
     48  CB        16.8320   18.8120   26.1650 C.3    41  ASN41       0.1195
     49  CG        18.0090   19.2200   27.0370 C.2    41  ASN41       0.2630
     50  OD1       17.8390   19.5620   28.2100 O.2    41  ASN41      -0.2716
     51  ND2       19.2100   19.1950   26.4630 N.am   41  ASN41      -0.0877
     52  N         15.3860   19.5520   22.9080 N.am   42  GLY42      -0.1954
     53  CA        14.3040   19.1170   22.0520 C.3    42  GLY42       0.1869
     54  C         14.7370   18.7390   20.6470 C.2    42  GLY42       0.2309
     55  O         15.8530   19.0420   20.2180 O.2    42  GLY42      -0.2863
     56  N         13.3790   31.9260   22.5000 N.3    83  GLU83      -0.1231
     57  CA        14.7740   31.5960   22.7220 C.3    83  GLU83       0.1699
     58  C         15.0350   30.1950   22.1570 C.2    83  GLU83       0.2592
     59  O         14.4840   29.2230   22.6760 O.2    83  GLU83      -0.2718
     60  CB        15.0320   31.7030   24.2310 C.3    83  GLU83       0.0402
     61  CG        16.3490   31.2580   24.7300 C.3    83  GLU83       0.1161
     62  CD        16.4830   29.7620   24.7940 C.2    83  GLU83       0.3649
     63  OE1       15.6240   29.0930   25.4060 O.co2  83  GLU83      -0.2457
     64  OE2       17.4510   29.2600   24.1970 O.co2  83  GLU83      -0.2457
     65  N         15.8440   30.0720   21.0990 N.am   84  ALA84      -0.1966
     66  CA        15.9810   28.8000   20.3800 C.3    84  ALA84       0.1728
     67  C         16.9850   28.9560   19.2450 C.2    84  ALA84       0.2616
     68  O         17.4220   30.0640   18.9140 O.2    84  ALA84      -0.2715
     69  CB        14.6490   28.3250   19.8030 C.3    84  ALA84       0.0334
     70  N         17.3330   27.8250   18.6420 N.am   85  ASP85      -0.1971
     71  CA        18.0400   27.7870   17.3680 C.3    85  ASP85       0.1709
     72  C         17.0450   27.5690   16.2310 C.2    85  ASP85       0.2293
     73  O         16.1180   26.7660   16.3520 O.2    85  ASP85      -0.2864
     74  CB        19.0790   26.6760   17.3610 C.3    85  ASP85       0.1436
     75  CG        20.1050   26.8430   18.4510 C.2    85  ASP85       0.3671
     76  OD1       20.4350   28.0090   18.7870 O.co2  85  ASP85      -0.2456
     77  OD2       20.5680   25.8110   18.9770 O.co2  85  ASP85      -0.2456
     78  N         16.5320   26.8000   12.0060 N.3    87  TYR87      -0.1241
     79  CA        17.1730   26.1910   10.8480 C.3    87  TYR87       0.1605
     80  C         16.2410   26.2290    9.6460 C.2    87  TYR87       0.2264
     81  O         15.0550   25.9050    9.7630 O.2    87  TYR87      -0.2867
     82  CB        17.5540   24.7340   11.1200 C.3    87  TYR87       0.0534
     83  CG        18.5160   24.5110   12.2580 C.ar   87  TYR87      -0.0201
     84  CD1       18.0540   24.2800   13.5490 C.ar   87  TYR87      -0.0009
     85  CD2       19.8890   24.4910   12.0350 C.ar   87  TYR87      -0.0009
     86  CE1       18.9350   24.0480   14.5920 C.ar   87  TYR87       0.0417
     87  CE2       20.7780   24.2710   13.0690 C.ar   87  TYR87       0.0417
     88  CZ        20.2960   24.0420   14.3420 C.ar   87  TYR87       0.1957
     89  OH        21.1620   23.8350   15.3830 O.3    87  TYR87      -0.2866
     90  N         23.0670   26.1970    8.5930 N.3   100  ALA100     -0.1231
     91  CA        23.8750   25.9370    9.7780 C.3   100  ALA100      0.1694
     92  C         23.2280   26.4350   11.0650 C.2   100  ALA100      0.2593
     93  O         23.7080   26.0970   12.1480 O.2   100  ALA100     -0.2718
     94  CB        25.2660   26.5640    9.6310 C.3   100  ALA100      0.0304
     95  N         22.1720   27.2240   10.9770 N.am  101  GLY101     -0.1942
     96  CA        21.4400   27.6240   12.1640 C.3   101  GLY101      0.2014
     97  C         21.6770   29.0700   12.5580 C.2   101  GLY101      0.2640
     98  O         22.7800   29.6170   12.4070 O.2   101  GLY101     -0.2714
     99  N         20.6210   29.6960   13.0620 N.am  102  THR102     -0.1936
    100  CA        20.6880   30.9890   13.7150 C.3   102  THR102      0.2028
    101  C         20.1770   30.8510   15.1440 C.2   102  THR102      0.2642
    102  O         19.0670   30.3520   15.3650 O.2   102  THR102     -0.2714
    103  CB        19.8540   32.0300   12.9670 C.3   102  THR102      0.1808
    104  OG1       20.4720   32.2910   11.7070 O.3   102  THR102     -0.2208
    105  CG2       19.7840   33.3100   13.7820 C.3   102  THR102      0.0379
    106  N         20.9770   31.3070   16.1000 N.am  103  LYS103     -0.1963
    107  CA        20.6010   31.2980   17.5080 C.3   103  LYS103      0.1728
    108  C         19.9860   32.6380   17.8850 C.2   103  LYS103      0.2616
    109  O         20.5780   33.6930   17.6300 O.2   103  LYS103     -0.2715
    110  CB        21.8250   31.0130   18.3760 C.3   103  LYS103      0.0311
    111  CG        21.5700   31.0500   19.8620 C.3   103  LYS103      0.0038
    112  CD        22.7490   30.4510   20.6030 C.3   103  LYS103      0.0206
    113  CE        22.4890   30.3800   22.0880 C.3   103  LYS103      0.1093
    114  NZ        21.7250   29.1510   22.4330 N.3   103  LYS103     -0.1314
    115  N         18.7930   32.5960   18.4730 N.am  104  VAL104     -0.1963
    116  CA        18.0620   33.7940   18.8670 C.3   104  VAL104      0.1727
    117  C         18.0650   33.8560   20.3900 C.2   104  VAL104      0.2616
    118  O         17.6510   32.8980   21.0560 O.2   104  VAL104     -0.2715
    119  CB        16.6310   33.8010   18.3060 C.3   104  VAL104      0.0290
    120  CG1       15.8480   34.9880   18.8810 C.3   104  VAL104      0.0023
    121  CG2       16.6600   33.9120   16.7990 C.3   104  VAL104      0.0023
    122  N         18.5770   34.9570   20.9420 N.am  105  GLU105     -0.1977
    123  CA        18.6740   35.1520   22.3840 C.3   105  GLU105      0.1602
    124  C         17.8400   36.3540   22.7930 C.2   105  GLU105      0.2287
    125  O         17.7020   37.3140   22.0330 O.2   105  GLU105     -0.2864
    126  CB        20.1160   35.3810   22.8370 C.3   105  GLU105      0.0415
    127  CG        21.0700   34.2420   22.5210 C.3   105  GLU105      0.1163
    128  CD        22.4720   34.4870   23.0680 C.2   105  GLU105      0.3649
    129  OE1       22.8000   35.6630   23.3740 O.co2 105  GLU105     -0.2457
    130  OE2       23.2440   33.5110   23.2050 O.co2 105  GLU105     -0.2457
    131  N         25.0650   36.8780   29.8990 N.3   142  ARG142     -0.1245
    132  CA        25.7600   35.6000   30.0330 C.3   142  ARG142      0.1563
    133  C         27.1990   35.7730   30.5010 C.2   142  ARG142      0.2260
    134  O         27.7240   34.9120   31.2190 O.2   142  ARG142     -0.2867
    135  CB        25.7220   34.8630   28.6910 C.3   142  ARG142      0.0307
    136  CG        26.4240   33.5120   28.6610 C.3   142  ARG142      0.0489
    137  CD        26.6250   33.0270   27.2250 C.3   142  ARG142      0.2205
    138  NE        25.4320   32.4240   26.6400 N.pl3 142  ARG142     -0.0865
    139  CZ        24.6650   33.0040   25.7220 C.cat 142  ARG142      0.5346
    140  NH1       24.9490   34.2180   25.2690 N.pl3 142  ARG142      0.1354
    141  NH2       23.6060   32.3650   25.2490 N.pl3 142  ARG142      0.1354
    142  N         27.2300   26.1410   31.5500 N.3   163  VAL163     -0.1245
    143  CA        26.2460   27.2220   31.5790 C.3   163  VAL163      0.1561
    144  C         24.9230   26.7060   31.0380 C.2   163  VAL163      0.2260
    145  O         24.8820   26.0990   29.9650 O.2   163  VAL163     -0.2867
    146  CB        26.7210   28.4470   30.7740 C.3   163  VAL163      0.0252
    147  CG1       25.6790   29.5630   30.7910 C.3   163  VAL163      0.0019
    148  CG2       28.0250   28.9470   31.3160 C.3   163  VAL163      0.0019
    149  N         21.1780   26.9770   29.3540 N.3   165  GLU165     -0.1245
    150  CA        20.6310   27.8570   28.3440 C.3   165  GLU165      0.1567
    151  C         19.6310   28.8240   28.9860 C.2   165  GLU165      0.2260
    152  O         19.1530   28.6290   30.1070 O.2   165  GLU165     -0.2867
    153  CB        20.0110   27.0450   27.2000 C.3   165  GLU165      0.0388
    154  CG        21.0330   26.1800   26.3840 C.3   165  GLU165      0.1160
    155  CD        22.0920   26.9840   25.5810 C.2   165  GLU165      0.3649
    156  OE1       21.7350   27.9400   24.8550 O.co2 165  GLU165     -0.2457
    157  OE2       23.2950   26.6490   25.6650 O.co2 165  GLU165     -0.2457
@<TRIPOS>BOND
     1    90    91    1
     2    94    91    1
     3    80    81    2
     4    80    79    1
     5    91    92    1
     6    79    82    1
     7    79    78    1
     8    95    92   am
     9    95    96    1
    10    92    93    2
    11    82    83    1
    12     8     6    1
    13   104   103    1
    14    85    83   ar
    15    85    87   ar
    16     6     5    1
    17    96    97    1
    18    83    84   ar
    19    98    97    2
    20    97    99   am
    21     1     2    1
    22   103   100    1
    23   103   105    1
    24    99   100    1
    25    87    88   ar
    26     2     5    1
    27     2     3    1
    28     5     7    1
    29    84    86   ar
    30   100   101    1
    31    88    86   ar
    32    88    89    1
    33     3     9   am
    34     3     4    2
    35   101   102    2
    36   101   106   am
    37     9    10    1
    38    12    11    2
    39   106   107    1
    40    72    73    2
    41    72    71    1
    42    11    10    1
    43    10    13    1
    44   121   119    1
    45    24    23    2
    46    17    18    1
    47    74    71    1
    48    74    75    1
    49    71    70    1
    50   107   108    1
    51   107   110    1
    52    21    18    1
    53    21    22    1
    54   109   108    2
    55    13    14    1
    56    23    25   am
    57    23    22    1
    58   108   115   am
    59    18    19    1
    60   119   116    1
    61   119   120    1
    62   110   111    1
    63    75    76   ar
    64    75    77   ar
    65   115   116    1
    66    70    67   am
    67   116   117    1
    68    68    67    2
    69    14    15    1
    70    14    16    1
    71    67    66    1
    72    19    20    2
    73    19    26   am
    74    69    66    1
    75   111   112    1
    76    55    54    2
    77    66    65    1
    78   117   122   am
    79   117   118    2
    80    26    27    1
    81   112   113    1
    82    54    53    1
    83   122   123    1
    84    65    58   am
    85    31    32    1
    86    31    30    1
    87    27    30    1
    88    27    28    1
    89   125   124    2
    90    53    52    1
    91   113   114    1
    92    58    59    2
    93    58    57    1
    94    29    28    2
    95   123   124    1
    96   123   126    1
    97    32    33    1
    98    56    57    1
    99   127   126    1
   100   127   128    1
   101    28    37   am
   102    57    60    1
   103    52    46   am
   104   128   130   ar
   105   128   129   ar
   106    33    34    2
   107    37    38    1
   108    46    47    2
   109    46    45    1
   110    64    62   ar
   111    60    61    1
   112    44    45    1
   113    44    39   am
   114    38    39    1
   115    38    41    1
   116    45    48    1
   117    61    62    1
   118    34    35    1
   119    34    36    1
   120    62    63   ar
   121   156   155   ar
   122    39    40    2
   123   141   139    1
   124   140   139    1
   125    42    41    1
   126   155   157   ar
   127   155   154    1
   128   139   138    2
   129    41    43    1
   130    48    49    1
   131   154   153    1
   132    51    49   am
   133   138   137    1
   134    49    50    2
   135   153   150    1
   136   137   136    1
   137   150   151    1
   138   150   149    1
   139   136   135    1
   140   135   132    1
   141   151   152    2
   142   131   132    1
   143   145   144    2
   144   132   133    1
   145   133   134    2
   146   146   147    1
   147   146   148    1
   148   146   143    1
   149   144   143    1
   150   142   143    1
