@<TRIPOS>MOLECULE
tmp/6b9yB00.pdb
 119 115 0 0 0
SMALL
GASTEIGER

@<TRIPOS>ATOM
      1  N         22.3410   14.7940   13.7980 N.3    39  GLN39      -0.1231
      2  CA        22.8260   16.0920   14.2380 C.3    39  GLN39       0.1698
      3  C         24.1280   15.9070   15.0090 C.2    39  GLN39       0.2593
      4  O         24.2100   15.0590   15.9050 O.2    39  GLN39      -0.2718
      5  CB        21.7780   16.7980   15.1080 C.3    39  GLN39       0.0381
      6  CG        22.1390   18.2500   15.4690 C.3    39  GLN39       0.0905
      7  CD        20.9400   19.0000   16.0340 C.2    39  GLN39       0.2608
      8  OE1       20.0790   18.4090   16.6890 O.2    39  GLN39      -0.2717
      9  NE2       20.8730   20.3010   15.7680 N.am   39  GLN39      -0.0878
     10  N         25.1430   16.6870   14.6490 N.am   40  SER40      -0.1939
     11  CA        26.4630   16.5560   15.2440 C.3    40  SER40       0.2040
     12  C         27.1720   17.9050   15.1430 C.2    40  SER40       0.2485
     13  O         26.7950   18.7460   14.3230 O.2    40  SER40      -0.2729
     14  CB        27.2770   15.4540   14.5490 C.3    40  SER40       0.2129
     15  OG        27.7660   15.8970   13.2910 O.3    40  SER40      -0.2179
     16  N         28.1990   18.1310   15.9720 N.am   41  PRO41      -0.2726
     17  CA        28.9900   19.3690   15.8170 C.3    41  PRO41       0.1402
     18  C         29.6260   19.5050   14.4410 C.2    41  PRO41       0.2269
     19  O         29.7060   20.6150   13.8990 O.2    41  PRO41      -0.2865
     20  CB        30.0600   19.2340   16.9140 C.3    41  PRO41       0.0296
     21  CG        29.5240   18.1820   17.8730 C.3    41  PRO41       0.0237
     22  CD        28.7190   17.2620   17.0400 C.3    41  PRO41       0.0939
     23  N         26.3300   19.7260   11.7420 N.3    44  GLY44      -0.1225
     24  CA        25.0040   20.2350   12.0550 C.3    44  GLY44       0.1811
     25  C         23.9550   19.1820   11.7480 C.2    44  GLY44       0.2280
     26  O         24.1920   17.9690   11.8690 O.2    44  GLY44      -0.2866
     27  N         23.3800   12.6420   17.1390 N.3    93  ILE93      -0.1245
     28  CA        22.0160   12.3440   17.5470 C.3    93  ILE93       0.1561
     29  C         21.2570   11.9530   16.2920 C.2    93  ILE93       0.2260
     30  O         21.2310   12.7120   15.3200 O.2    93  ILE93      -0.2867
     31  CB        21.3770   13.5480   18.2430 C.3    93  ILE93       0.0252
     32  CG1       22.1980   13.9000   19.4770 C.3    93  ILE93       0.0019
     33  CG2       19.9310   13.2690   18.5890 C.3    93  ILE93       0.0019
     34  CD1       22.0800   15.3500   19.8720 C.3    93  ILE93       0.0001
     35  N         17.7930   11.2590   14.5500 N.3    95  TYR95      -0.1241
     36  CA        16.3630   11.4720   14.5880 C.3    95  TYR95       0.1605
     37  C         15.7160   10.7830   13.4060 C.2    95  TYR95       0.2264
     38  O         16.3120   10.6530   12.3360 O.2    95  TYR95      -0.2867
     39  CB        15.9720   12.9540   14.4900 C.3    95  TYR95       0.0534
     40  CG        16.5680   13.8990   15.4930 C.ar   95  TYR95      -0.0201
     41  CD1       15.9140   14.1830   16.6920 C.ar   95  TYR95      -0.0009
     42  CD2       17.7570   14.5500   15.2250 C.ar   95  TYR95      -0.0009
     43  CE1       16.4570   15.0700   17.6020 C.ar   95  TYR95       0.0417
     44  CE2       18.3030   15.4410   16.1290 C.ar   95  TYR95       0.0417
     45  CZ        17.6530   15.6990   17.3080 C.ar   95  TYR95       0.1957
     46  OH        18.2180   16.5850   18.1910 O.3    95  TYR95      -0.2866
     47  N         12.3150   11.9570   19.4480 N.3   112  GLN112     -0.1245
     48  CA        13.1510   12.6570   20.4140 C.3   112  GLN112      0.1566
     49  C         14.6270   12.5160   20.0740 C.2   112  GLN112      0.2260
     50  O         15.4430   13.2950   20.5670 O.2   112  GLN112     -0.2867
     51  CB        12.8780   12.1340   21.8270 C.3   112  GLN112      0.0367
     52  CG        13.4750   10.7310   22.1020 C.3   112  GLN112      0.0905
     53  CD        12.7130    9.5770   21.4380 C.2   112  GLN112      0.2608
     54  OE1       11.5450    9.7180   21.0410 O.2   112  GLN112     -0.2717
     55  NE2       13.3780    8.4240   21.3230 N.am  112  GLN112     -0.0878
     56  N         21.0180    8.7360   20.5520 N.3   115  LEU115     -0.1245
     57  CA        22.4190    9.1410   20.5080 C.3   115  LEU115      0.1561
     58  C         23.3260    7.9530   20.2090 C.2   115  LEU115      0.2260
     59  O         23.2330    6.9020   20.8550 O.2   115  LEU115     -0.2867
     60  CB        22.8380    9.8080   21.8250 C.3   115  LEU115      0.0270
     61  CG        24.3150   10.2240   21.8980 C.3   115  LEU115      0.0019
     62  CD1       24.5850   11.3990   20.9660 C.3   115  LEU115      0.0001
     63  CD2       24.7740   10.5380   23.3240 C.3   115  LEU115      0.0001
     64  N         27.6180    9.5480   27.1840 N.3   155  GLU155     -0.1231
     65  CA        26.3280   10.2080   27.3180 C.3   155  GLU155      0.1684
     66  C         25.2230    9.2430   26.8700 C.2   155  GLU155      0.2434
     67  O         25.4700    8.3470   26.0610 O.2   155  GLU155     -0.2733
     68  CB        26.3130   11.4860   26.4830 C.3   155  GLU155      0.0402
     69  CG        26.7640   12.7300   27.2280 C.3   155  GLU155      0.1161
     70  CD        25.5990   13.4170   27.9210 C.2   155  GLU155      0.3649
     71  OE1       25.4450   13.2740   29.1580 O.co2 155  GLU155     -0.2457
     72  OE2       24.8190   14.0850   27.2120 O.co2 155  GLU155     -0.2457
     73  N         23.9840    9.4050   27.3650 N.am  156  PRO156     -0.2729
     74  CA        23.5300   10.4640   28.2620 C.3   156  PRO156      0.1401
     75  C         23.2160    9.9860   29.6720 C.2   156  PRO156      0.2269
     76  O         23.1250    8.7790   29.9040 O.2   156  PRO156     -0.2865
     77  CB        22.2560   10.9310   27.5820 C.3   156  PRO156      0.0296
     78  CG        21.6600    9.6100   27.0690 C.3   156  PRO156      0.0237
     79  CD        22.8420    8.7220   26.7300 C.3   156  PRO156      0.0939
     80  N         24.5040   21.4740   31.4840 N.3   174  PRO174     -0.2102
     81  CA        25.0460   20.6330   30.4120 C.3   174  PRO174      0.1504
     82  C         26.2650   19.8890   30.9240 C.2   174  PRO174      0.2576
     83  O         27.0360   20.4040   31.7430 O.2   174  PRO174     -0.2718
     84  CB        25.4240   21.6380   29.3170 C.3   174  PRO174      0.0282
     85  CG        24.6240   22.8900   29.6320 C.3   174  PRO174      0.0208
     86  CD        24.5170   22.9110   31.1340 C.3   174  PRO174      0.0893
     87  N         26.4300   18.6590   30.4460 N.am  175  CYS175     -0.1957
     88  CA        27.6000   17.8980   30.8370 C.3   175  CYS175      0.1843
     89  C         28.8620   18.6070   30.3930 C.2   175  CYS175      0.2625
     90  O         28.8450   19.4910   29.5370 O.2   175  CYS175     -0.2714
     91  CB        27.6040   16.4910   30.2400 C.3   175  CYS175      0.0997
     92  SG        27.2140   16.2720   28.4890 S.3   175  CYS175     -0.0797
     93  N         29.9670   18.2250   31.0190 N.am  176  VAL176     -0.1963
     94  CA        31.2950   18.6460   30.6080 C.3   176  VAL176      0.1727
     95  C         32.1290   17.4000   30.3490 C.2   176  VAL176      0.2616
     96  O         32.0660   16.4320   31.1150 O.2   176  VAL176     -0.2715
     97  CB        31.9540   19.5390   31.6760 C.3   176  VAL176      0.0290
     98  CG1       33.3190   19.9580   31.2190 C.3   176  VAL176      0.0023
     99  CG2       31.0820   20.7550   31.9580 C.3   176  VAL176      0.0023
    100  N         32.8820   17.4110   29.2560 N.am  177  LEU177     -0.1977
    101  CA        33.8240   16.3430   28.9610 C.3   177  LEU177      0.1596
    102  C         35.1110   16.6790   29.7050 C.2   177  LEU177      0.2287
    103  O         35.7380   17.7100   29.4400 O.2   177  LEU177     -0.2864
    104  CB        34.0430   16.2180   27.4530 C.3   177  LEU177      0.0297
    105  CG        34.9020   15.0720   26.9130 C.3   177  LEU177      0.0022
    106  CD1       34.3870   13.7260   27.3880 C.3   177  LEU177      0.0001
    107  CD2       34.8920   15.1290   25.4130 C.3   177  LEU177      0.0001
    108  N         32.5770   12.0860   31.2800 N.3   183  TYR183     -0.1241
    109  CA        31.6810   13.2160   31.4360 C.3   183  TYR183      0.1605
    110  C         31.3770   13.4690   32.9050 C.2   183  TYR183      0.2264
    111  O         31.6180   12.6330   33.7810 O.2   183  TYR183     -0.2867
    112  CB        30.3720   13.0010   30.6820 C.3   183  TYR183      0.0534
    113  CG        30.5230   13.0130   29.1880 C.ar  183  TYR183     -0.0201
    114  CD1       30.5910   14.2090   28.4980 C.ar  183  TYR183     -0.0009
    115  CD2       30.5800   11.8290   28.4630 C.ar  183  TYR183     -0.0009
    116  CE1       30.7220   14.2380   27.1130 C.ar  183  TYR183      0.0417
    117  CE2       30.7070   11.8460   27.0810 C.ar  183  TYR183      0.0417
    118  CZ        30.7800   13.0600   26.4110 C.ar  183  TYR183      0.1957
    119  OH        30.9110   13.1070   25.0430 O.3   183  TYR183     -0.2866
@<TRIPOS>BOND
     1    23    24    1
     2    25    26    2
     3    25    24    1
     4    38    37    2
     5    15    14    1
     6    37    36    1
     7     1     2    1
     8    19    18    2
     9     2     3    1
    10     2     5    1
    11    13    12    2
    12    18    17    1
    13    39    36    1
    14    39    40    1
    15    14    11    1
    16    35    36    1
    17    10     3   am
    18    10    11    1
    19     3     4    2
    20     5     6    1
    21    12    11    1
    22    12    16   am
    23    42    40   ar
    24    42    44   ar
    25    30    29    2
    26     6     7    1
    27    40    41   ar
    28     9     7   am
    29    17    16    1
    30    17    20    1
    31    16    22    1
    32     7     8    2
    33    44    45   ar
    34    29    28    1
    35    41    43   ar
    36    20    21    1
    37    22    21    1
    38    27    28    1
    39    45    43   ar
    40    45    46    1
    41    28    31    1
    42    31    33    1
    43    31    32    1
    44    47    48    1
    45    32    34    1
    46    49    48    1
    47    49    50    2
    48    58    57    1
    49    58    59    2
    50    48    51    1
    51    57    56    1
    52    57    60    1
    53    62    61    1
    54    54    53    2
    55    55    53   am
    56    53    52    1
    57    60    61    1
    58    51    52    1
    59    61    63    1
    60   119   118    1
    61   107   105    1
    62    67    66    2
    63   118   117   ar
    64   118   116   ar
    65    68    69    1
    66    68    65    1
    67    79    78    1
    68    79    73    1
    69    66    65    1
    70    66    73   am
    71   105   106    1
    72   105   104    1
    73    78    77    1
    74   117   115   ar
    75   116   114   ar
    76    64    65    1
    77    72    70   ar
    78    69    70    1
    79    73    74    1
    80   104   101    1
    81    77    74    1
    82    70    71   ar
    83    74    75    1
    84   115   113   ar
    85    92    91    1
    86   114   113   ar
    87   101   100    1
    88   101   102    1
    89   113   112    1
    90   100    95   am
    91    84    85    1
    92    84    81    1
    93   103   102    2
    94    90    89    2
    95    85    86    1
    96    75    76    2
    97    91    88    1
    98    95    94    1
    99    95    96    2
   100    89    88    1
   101    89    93   am
   102    81    82    1
   103    81    80    1
   104    87    88    1
   105    87    82   am
   106    94    93    1
   107    94    97    1
   108   112   109    1
   109    82    83    2
   110    86    80    1
   111    98    97    1
   112   108   109    1
   113   109   110    1
   114    97    99    1
   115   110   111    2
