@<TRIPOS>MOLECULE
tmp/6ba2A00.pdb
 181 177 0 0 0
SMALL
GASTEIGER

@<TRIPOS>ATOM
      1  N         -9.8730  -19.3740    6.0830 N.3    16  TRP16      -0.1241
      2  CA        -8.8310  -20.2470    6.6240 C.3    16  TRP16       0.1605
      3  C         -9.3060  -21.6820    6.8450 C.2    16  TRP16       0.2264
      4  O         -8.4730  -22.6010    6.8560 O.2    16  TRP16      -0.2867
      5  CB        -8.2900  -19.7150    7.9650 C.3    16  TRP16       0.0550
      6  CG        -7.6420  -18.3230    7.8970 C.ar   16  TRP16       0.0003
      7  CD1       -7.5290  -17.5090    6.7990 C.ar   16  TRP16       0.0946
      8  CD2       -7.0880  -17.5930    8.9860 C.ar   16  TRP16       0.0152
      9  NE1       -6.9190  -16.3360    7.1370 N.ar   16  TRP16      -0.2442
     10  CE2       -6.6370  -16.3560    8.4770 C.ar   16  TRP16       0.0810
     11  CE3       -6.9260  -17.8650   10.3430 C.ar   16  TRP16       0.0012
     12  CZ2       -6.0050  -15.3920    9.2760 C.ar   16  TRP16       0.0191
     13  CZ3       -6.3040  -16.9070   11.1410 C.ar   16  TRP16       0.0001
     14  CH2       -5.8470  -15.6840   10.6020 C.ar   16  TRP16       0.0015
     15  N        -12.4110  -18.7730   10.3180 N.3    94  PHE94      -0.1227
     16  CA       -11.0880  -18.4140   10.8210 C.3    94  PHE94       0.1736
     17  C        -10.6780  -19.1720   12.0690 C.2    94  PHE94       0.2595
     18  O         -9.5650  -18.9450   12.5730 O.2    94  PHE94      -0.2718
     19  CB       -11.0290  -16.8950   11.0500 C.3    94  PHE94       0.0547
     20  CG       -11.5020  -16.1290    9.8530 C.ar   94  PHE94      -0.0202
     21  CD1      -10.7050  -16.0320    8.7320 C.ar   94  PHE94      -0.0042
     22  CD2      -12.7730  -15.5590    9.8190 C.ar   94  PHE94      -0.0042
     23  CE1      -11.1500  -15.3550    7.6020 C.ar   94  PHE94      -0.0003
     24  CE2      -13.2280  -14.9090    8.6830 C.ar   94  PHE94      -0.0003
     25  CZ       -12.3970  -14.7950    7.5770 C.ar   94  PHE94      -0.0000
     26  N        -11.5170  -20.0980   12.5560 N.am   95  LEU95      -0.1980
     27  CA       -11.2460  -20.8720   13.7670 C.3    95  LEU95       0.1596
     28  C        -11.2720  -22.3590   13.4330 C.2    95  LEU95       0.2287
     29  O        -12.3000  -22.8810   12.9970 O.2    95  LEU95      -0.2864
     30  CB       -12.2690  -20.5680   14.8710 C.3    95  LEU95       0.0297
     31  CG       -12.3000  -19.1310   15.4100 C.3    95  LEU95       0.0022
     32  CD1      -13.5020  -18.9540   16.3300 C.3    95  LEU95       0.0001
     33  CD2      -10.9750  -18.7690   16.1140 C.3    95  LEU95       0.0001
     34  N        -12.8990  -16.8310   20.5430 N.3   140  ILE140     -0.1231
     35  CA       -12.5560  -15.4260   20.3670 C.3   140  ILE140      0.1692
     36  C        -11.8790  -15.2660   19.0120 C.2   140  ILE140      0.2592
     37  O        -11.0200  -16.0690   18.6490 O.2   140  ILE140     -0.2718
     38  CB       -11.6750  -14.9230   21.5210 C.3   140  ILE140      0.0266
     39  CG1      -11.2650  -13.4790   21.2890 C.3   140  ILE140      0.0019
     40  CG2      -10.4140  -15.8270   21.7210 C.3   140  ILE140      0.0020
     41  CD1      -10.7850  -12.7970   22.5580 C.3   140  ILE140      0.0001
     42  N        -12.2860  -14.2470   18.2530 N.am  141  MET141     -0.1965
     43  CA       -11.8720  -14.1200   16.8520 C.3   141  MET141      0.1736
     44  C        -11.8390  -12.6450   16.4550 C.2   141  MET141      0.2616
     45  O        -12.7770  -11.9020   16.7490 O.2   141  MET141     -0.2715
     46  CB       -12.8250  -14.9300   15.9380 C.3   141  MET141      0.0427
     47  CG       -12.4870  -14.9930   14.4100 C.3   141  MET141      0.0599
     48  SD       -12.8870  -13.5100   13.4470 S.3   141  MET141     -0.1393
     49  CE       -14.6320  -13.3040   13.7980 C.3   141  MET141      0.0692
     50  N        -10.7420  -12.2270   15.8280 N.am  142  ILE142     -0.1977
     51  CA       -10.5780  -10.9120   15.2080 C.3   142  ILE142      0.1596
     52  C        -10.4800  -11.1360   13.7050 C.2   142  ILE142      0.2287
     53  O         -9.7120  -11.9950   13.2560 O.2   142  ILE142     -0.2864
     54  CB        -9.3100  -10.1890   15.7050 C.3   142  ILE142      0.0276
     55  CG1       -9.2930  -10.0930   17.2370 C.3   142  ILE142      0.0022
     56  CG2       -9.1610   -8.8100   14.9870 C.3   142  ILE142      0.0022
     57  CD1      -10.4140   -9.2160   17.8220 C.3   142  ILE142      0.0001
     58  N         -8.0440   -6.7850   10.8310 N.3   146  TYR146     -0.1227
     59  CA        -7.8710   -6.1220   12.1040 C.3   146  TYR146      0.1736
     60  C         -6.8980   -6.8330   13.0260 C.2   146  TYR146      0.2595
     61  O         -6.6540   -6.3340   14.1300 O.2   146  TYR146     -0.2718
     62  CB        -9.2290   -5.9940   12.8050 C.3   146  TYR146      0.0548
     63  CG       -10.2040   -5.1040   12.0780 C.ar  146  TYR146     -0.0200
     64  CD1      -10.0630   -3.7190   12.1080 C.ar  146  TYR146     -0.0009
     65  CD2      -11.2880   -5.6370   11.4030 C.ar  146  TYR146     -0.0009
     66  CE1      -10.9740   -2.8910   11.4550 C.ar  146  TYR146      0.0417
     67  CE2      -12.2070   -4.8100   10.7540 C.ar  146  TYR146      0.0417
     68  CZ       -12.0410   -3.4480   10.7790 C.ar  146  TYR146      0.1957
     69  OH       -12.9690   -2.6330   10.1470 O.3   146  TYR146     -0.2866
     70  N         -6.3420   -7.9680   12.6150 N.am  147  GLN147     -0.1965
     71  CA        -5.4880   -8.7430   13.5060 C.3   147  GLN147      0.1733
     72  C         -4.1730   -8.0140   13.7640 C.2   147  GLN147      0.2616
     73  O         -3.6990   -7.2340   12.9340 O.2   147  GLN147     -0.2715
     74  CB        -5.2150  -10.1200   12.9110 C.3   147  GLN147      0.0408
     75  CG        -6.4560  -11.0140   12.8980 C.3   147  GLN147      0.0908
     76  CD        -6.2370  -12.2890   12.1440 C.2   147  GLN147      0.2608
     77  OE1       -5.1140  -12.5890   11.7040 O.2   147  GLN147     -0.2717
     78  NE2       -7.3190  -13.0440   11.9470 N.am  147  GLN147     -0.0878
     79  N         -3.5840   -8.2860   14.9310 N.am  148  ARG148     -0.1963
     80  CA        -2.2840   -7.7370   15.3080 C.3   148  ARG148      0.1729
     81  C         -2.2730   -6.2100   15.3230 C.2   148  ARG148      0.2616
     82  O         -1.2370   -5.5830   15.0600 O.2   148  ARG148     -0.2715
     83  CB        -1.1790   -8.2780   14.3880 C.3   148  ARG148      0.0348
     84  CG        -1.1270   -9.7970   14.3980 C.3   148  ARG148      0.0492
     85  CD         0.0330  -10.3330   13.5760 C.3   148  ARG148      0.2205
     86  NE        -0.0750  -11.7750   13.3450 N.pl3 148  ARG148     -0.0865
     87  CZ         0.6630  -12.7080   13.9420 C.cat 148  ARG148      0.5346
     88  NH1        1.5970  -12.3670   14.8270 N.pl3 148  ARG148      0.1354
     89  NH2        0.4740  -13.9880   13.6370 N.pl3 148  ARG148      0.1354
     90  N         -3.4110   -5.6010   15.6730 N.am  149  ARG149     -0.1963
     91  CA        -3.5510   -4.1500   15.7110 C.3   149  ARG149      0.1729
     92  C         -4.1440   -3.6350   17.0130 C.2   149  ARG149      0.2616
     93  O         -4.5640   -2.4740   17.0640 O.2   149  ARG149     -0.2715
     94  CB        -4.4150   -3.6560   14.5430 C.3   149  ARG149      0.0348
     95  CG        -3.6900   -3.7970   13.2380 C.3   149  ARG149      0.0492
     96  CD        -4.5890   -3.4300   12.0740 C.3   149  ARG149      0.2205
     97  NE        -3.8730   -3.7020   10.8290 N.pl3 149  ARG149     -0.0865
     98  CZ        -4.1720   -3.1620    9.6520 C.cat 149  ARG149      0.5346
     99  NH1       -5.1810   -2.3000    9.5470 N.pl3 149  ARG149      0.1354
    100  NH2       -3.4560   -3.4850    8.5840 N.pl3 149  ARG149      0.1354
    101  N         -4.1840   -4.4430   18.0650 N.am  150  GLY150     -0.1955
    102  CA        -4.6430   -3.9770   19.3540 C.3   150  GLY150      0.1869
    103  C         -6.0710   -4.3550   19.6790 C.2   150  GLY150      0.2309
    104  O         -6.4790   -4.2340   20.8380 O.2   150  GLY150     -0.2863
    105  N         -7.5080   -7.4260   19.4010 N.3   152  GLY152     -0.1210
    106  CA        -7.5410   -8.6610   20.1670 C.3   152  GLY152      0.1956
    107  C         -7.1880   -8.4390   21.6240 C.2   152  GLY152      0.2611
    108  O         -7.8110   -9.0090   22.5230 O.2   152  GLY152     -0.2717
    109  N         -6.1790   -7.5950   21.8780 N.am  153  ARG153     -0.1979
    110  CA        -5.8370   -7.2840   23.2590 C.3   153  ARG153      0.1597
    111  C         -7.0280   -6.6620   23.9810 C.2   153  ARG153      0.2287
    112  O         -7.2770   -6.9630   25.1540 O.2   153  ARG153     -0.2864
    113  CB        -4.6440   -6.3350   23.3210 C.3   153  ARG153      0.0334
    114  CG        -4.1430   -6.1330   24.7790 C.3   153  ARG153      0.0492
    115  CD        -3.1380   -4.9880   24.9210 C.3   153  ARG153      0.2205
    116  NE        -2.4570   -5.0780   26.2130 N.pl3 153  ARG153     -0.0865
    117  CZ        -2.9790   -4.7350   27.3940 C.cat 153  ARG153      0.5346
    118  NH1       -4.2100   -4.2550   27.4700 N.pl3 153  ARG153      0.1354
    119  NH2       -2.2510   -4.8850   28.5080 N.pl3 153  ARG153      0.1354
    120  N         -9.4780   -9.4120   24.9540 N.3   156  ILE156     -0.1245
    121  CA        -8.9730  -10.1570   26.1120 C.3   156  ILE156      0.1561
    122  C         -9.1550   -9.3400   27.3900 C.2   156  ILE156      0.2260
    123  O         -9.6950   -9.8290   28.3930 O.2   156  ILE156     -0.2867
    124  CB        -7.4970  -10.5470   25.8960 C.3   156  ILE156      0.0252
    125  CG1       -7.3680  -11.5740   24.7760 C.3   156  ILE156      0.0019
    126  CG2       -6.9080  -11.0950   27.2040 C.3   156  ILE156      0.0019
    127  CD1       -5.9020  -11.6950   24.2710 C.3   156  ILE156      0.0001
    128  N         -6.5470  -21.1200   19.5510 N.3   177  SER177     -0.1217
    129  CA        -5.9520  -20.9020   18.2420 C.3   177  SER177      0.1889
    130  C         -4.4920  -20.5060   18.3720 C.2   177  SER177      0.2288
    131  O         -4.0450  -19.9950   19.4050 O.2   177  SER177     -0.2866
    132  CB        -6.6820  -19.7870   17.4930 C.3   177  SER177      0.2089
    133  OG        -6.7560  -18.6150   18.3110 O.3   177  SER177     -0.2183
    134  N         -3.1780  -17.9300   16.7130 N.3   179  LEU179     -0.1231
    135  CA        -3.0160  -16.5260   17.1260 C.3   179  LEU179      0.1693
    136  C         -3.5080  -16.2410   18.5690 C.2   179  LEU179      0.2592
    137  O         -2.9580  -15.3670   19.2720 O.2   179  LEU179     -0.2718
    138  CB        -3.6960  -15.6280   16.1200 C.3   179  LEU179      0.0284
    139  CG        -3.5210  -14.1080   16.2230 C.3   179  LEU179      0.0019
    140  CD1       -2.0850  -13.6600   16.5110 C.3   179  LEU179      0.0001
    141  CD2       -4.0230  -13.5670   14.8960 C.3   179  LEU179      0.0001
    142  N         -4.5250  -16.9500   19.0430 N.am  180  GLY180     -0.1957
    143  CA        -5.0570  -16.6460   20.3690 C.3   180  GLY180      0.1869
    144  C         -4.0540  -16.9180   21.4740 C.2   180  GLY180      0.2309
    145  O         -3.9450  -16.1470   22.4340 O.2   180  GLY180     -0.2863
    146  N         -1.4300  -14.2200   21.7830 N.3   183  SER183     -0.1202
    147  CA        -2.0170  -12.9940   22.2970 C.3   183  SER183      0.2020
    148  C         -2.2650  -13.0710   23.7970 C.2   183  SER183      0.2618
    149  O         -2.0190  -12.0940   24.5150 O.2   183  SER183     -0.2717
    150  CB        -3.3290  -12.6980   21.5580 C.3   183  SER183      0.2103
    151  OG        -3.1180  -12.5590   20.1560 O.3   183  SER183     -0.2182
    152  N         -2.7980  -14.1950   24.2820 N.am  184  TYR184     -0.1975
    153  CA        -3.0200  -14.3300   25.7200 C.3   184  TYR184      0.1639
    154  C         -1.7030  -14.2790   26.4730 C.2   184  TYR184      0.2290
    155  O         -1.5850  -13.5910   27.4960 O.2   184  TYR184     -0.2864
    156  CB        -3.7680  -15.6250   26.0390 C.3   184  TYR184      0.0560
    157  CG        -5.2700  -15.4460   26.0580 C.ar  184  TYR184     -0.0198
    158  CD1       -5.9240  -14.9880   27.2050 C.ar  184  TYR184     -0.0009
    159  CD2       -6.0320  -15.6960   24.9240 C.ar  184  TYR184     -0.0009
    160  CE1       -7.3060  -14.8220   27.2300 C.ar  184  TYR184      0.0417
    161  CE2       -7.4210  -15.5090   24.9370 C.ar  184  TYR184      0.0417
    162  CZ        -8.0390  -15.0720   26.1060 C.ar  184  TYR184      0.1957
    163  OH        -9.4010  -14.8850   26.1670 O.3   184  TYR184     -0.2866
    164  N          0.9890  -12.8320   25.6630 N.3   186  SER186     -0.1202
    165  CA         1.5000  -11.4650   25.6570 C.3   186  SER186      0.2020
    166  C          0.7090  -10.5740   26.5940 C.2   186  SER186      0.2618
    167  O          1.2890   -9.7620   27.3250 O.2   186  SER186     -0.2717
    168  CB         1.4610  -10.9100   24.2350 C.3   186  SER186      0.2103
    169  OG         1.8330   -9.5500   24.2450 O.3   186  SER186     -0.2182
    170  N         -0.6240  -10.7000   26.5760 N.am  187  TYR187     -0.1975
    171  CA        -1.4590   -9.9790   27.5270 C.3   187  TYR187      0.1639
    172  C         -1.1060  -10.3400   28.9630 C.2   187  TYR187      0.2290
    173  O         -0.9200   -9.4580   29.8100 O.2   187  TYR187     -0.2864
    174  CB        -2.9420  -10.2900   27.2640 C.3   187  TYR187      0.0560
    175  CG        -3.8800   -9.7040   28.3090 C.ar  187  TYR187     -0.0198
    176  CD1       -4.3320   -8.3900   28.2110 C.ar  187  TYR187     -0.0009
    177  CD2       -4.3320  -10.4720   29.3650 C.ar  187  TYR187     -0.0009
    178  CE1       -5.1860   -7.8500   29.1520 C.ar  187  TYR187      0.0417
    179  CE2       -5.1900   -9.9410   30.3290 C.ar  187  TYR187      0.0417
    180  CZ        -5.6050   -8.6310   30.2100 C.ar  187  TYR187      0.1957
    181  OH        -6.4580   -8.1060   31.1370 O.3   187  TYR187     -0.2866
@<TRIPOS>BOND
     1     1     2    1
     2     2     3    1
     3     2     5    1
     4     7     9   ar
     5     7     6   ar
     6     3     4    2
     7     9    10   ar
     8    25    23   ar
     9    25    24   ar
    10    23    21   ar
    11     6     5    1
    12     6     8   ar
    13    10     8   ar
    14    10    12   ar
    15   100    98    1
    16    24    22   ar
    17    21    20   ar
    18     8    11   ar
    19    12    14   ar
    20    99    98    1
    21    98    97    2
    22    22    20   ar
    23    20    19    1
    24    69    68    1
    25    15    16    1
    26    11    13   ar
    27    14    13   ar
    28    67    68   ar
    29    67    65   ar
    30    68    66   ar
    31    16    19    1
    32    16    17    1
    33    97    96    1
    34    58    59    1
    35    65    63   ar
    36    66    64   ar
    37    77    76    2
    38    78    76   am
    39    17    26   am
    40    17    18    2
    41    96    95    1
    42    63    64   ar
    43    63    62    1
    44    59    62    1
    45    59    60    1
    46    76    75    1
    47    26    27    1
    48    70    60   am
    49    70    71    1
    50    75    74    1
    51    74    71    1
    52    73    72    2
    53    29    28    2
    54    60    61    2
    55    95    94    1
    56    53    52    2
    57    86    85    1
    58    86    87    2
    59    28    27    1
    60    48    49    1
    61    48    47    1
    62    71    72    1
    63    85    84    1
    64    89    87    1
    65    52    51    1
    66    72    79   am
    67    27    30    1
    68    87    88    1
    69    83    84    1
    70    83    80    1
    71    47    46    1
    72    94    91    1
    73    30    31    1
    74   141   139    1
    75    79    80    1
    76    56    54    1
    77    82    81    2
    78    51    54    1
    79    51    50    1
    80    80    81    1
    81    81    90   am
    82    31    33    1
    83    31    32    1
    84    90    91    1
    85    54    55    1
    86    91    92    1
    87    50    44   am
    88    46    43    1
    89   138   139    1
    90   138   135    1
    91   139   140    1
    92    44    45    2
    93    44    43    1
    94   134   135    1
    95    43    42    1
    96    92    93    2
    97    92   101   am
    98   135   136    1
    99    55    57    1
   100   132   129    1
   101   132   133    1
   102   101   102    1
   103   129   130    1
   104   129   128    1
   105    42    36   am
   106   130   131    2
   107   136   142   am
   108   136   137    2
   109    37    36    2
   110    36    35    1
   111   142   143    1
   112   102   103    1
   113   105   106    1
   114   103   104    2
   115   151   150    1
   116   106   107    1
   117    35    34    1
   118    35    38    1
   119   143   144    1
   120    39    38    1
   121    39    41    1
   122   144   145    2
   123    38    40    1
   124   150   147    1
   125   107   109   am
   126   107   108    2
   127   146   147    1
   128   109   110    1
   129   147   148    1
   130   110   113    1
   131   110   111    1
   132   113   114    1
   133   148   152   am
   134   148   149    2
   135   111   112    2
   136   168   169    1
   137   168   165    1
   138   127   125    1
   139   152   153    1
   140   125   124    1
   141   114   115    1
   142   115   116    1
   143   159   161   ar
   144   159   157   ar
   145   161   162   ar
   146   120   121    1
   147   165   164    1
   148   165   166    1
   149   153   156    1
   150   153   154    1
   151   124   121    1
   152   124   126    1
   153   156   157    1
   154   157   158   ar
   155   162   163    1
   156   162   160   ar
   157   121   122    1
   158   116   117    2
   159   154   155    2
   160   170   166   am
   161   170   171    1
   162   166   167    2
   163   158   160   ar
   164   174   171    1
   165   174   175    1
   166   122   123    2
   167   117   118    1
   168   117   119    1
   169   171   172    1
   170   176   175   ar
   171   176   178   ar
   172   175   177   ar
   173   172   173    2
   174   178   180   ar
   175   177   179   ar
   176   180   179   ar
   177   180   181    1
