@<TRIPOS>MOLECULE
tmp/6ba7A00.pdb
 167 157 0 0 0
SMALL
GASTEIGER

@<TRIPOS>ATOM
      1  N         27.0000   81.9130   61.5850 N.3   115  VAL115     -0.1245
      2  CA        27.9880   81.7030   60.5310 C.3   115  VAL115      0.1561
      3  C         27.6800   80.3720   59.8550 C.2   115  VAL115      0.2260
      4  O         27.3310   79.3920   60.5210 O.2   115  VAL115     -0.2867
      5  CB        29.4340   81.7470   61.0830 C.3   115  VAL115      0.0252
      6  CG1       29.7440   80.5240   61.9380 C.3   115  VAL115      0.0019
      7  CG2       30.4410   81.8920   59.9470 C.3   115  VAL115      0.0019
      8  N         29.8820   82.2430   54.6990 N.3   268  ASP268     -0.1239
      9  CA        31.2930   81.8960   54.8210 C.3   268  ASP268      0.1674
     10  C         31.8170   81.3080   53.5170 C.2   268  ASP268      0.2266
     11  O         31.3060   80.2890   53.0410 O.2   268  ASP268     -0.2867
     12  CB        31.5050   80.9120   55.9710 C.3   268  ASP268      0.1410
     13  CG        32.9650   80.7390   56.3280 C.2   268  ASP268      0.3668
     14  OD1       33.8010   81.5100   55.8130 O.co2 268  ASP268     -0.2456
     15  OD2       33.2770   79.8330   57.1270 O.co2 268  ASP268     -0.2456
     16  N         36.9090   79.0830   56.1060 N.3   271  ASP271     -0.1225
     17  CA        37.3540   77.8850   56.8120 C.3   271  ASP271      0.1805
     18  C         36.2890   76.8020   56.9310 C.2   271  ASP271      0.2598
     19  O         36.6170   75.6920   57.3650 O.2   271  ASP271     -0.2718
     20  CB        37.8500   78.2610   58.2110 C.3   271  ASP271      0.1424
     21  CG        39.3170   78.6490   58.2280 C.2   271  ASP271      0.3668
     22  OD1       39.8400   78.9560   59.3210 O.co2 271  ASP271     -0.2456
     23  OD2       39.9470   78.6520   57.1510 O.co2 271  ASP271     -0.2456
     24  N         35.0370   77.0770   56.5680 N.am  272  SER272     -0.1952
     25  CA        33.9730   76.0880   56.6910 C.3   272  SER272      0.1924
     26  C         33.4710   75.5870   55.3410 C.2   272  SER272      0.2314
     27  O         32.4630   74.8740   55.2940 O.2   272  SER272     -0.2863
     28  CB        32.8110   76.6550   57.5100 C.3   272  SER272      0.2116
     29  OG        31.8870   77.3430   56.6870 O.3   272  SER272     -0.2180
     30  N         32.2030   86.2770   54.4570 N.3   329  ARG329     -0.1245
     31  CA        33.5990   86.1390   54.8610 C.3   329  ARG329      0.1563
     32  C         34.4170   85.7340   53.6430 C.2   329  ARG329      0.2260
     33  O         34.3800   84.5800   53.2090 O.2   329  ARG329     -0.2867
     34  CB        33.7630   85.1360   55.9980 C.3   329  ARG329      0.0307
     35  CG        35.1230   85.2410   56.6730 C.3   329  ARG329      0.0489
     36  CD        35.2050   84.4580   57.9730 C.3   329  ARG329      0.2205
     37  NE        35.2570   83.0150   57.7530 N.pl3 329  ARG329     -0.0865
     38  CZ        35.3810   82.1180   58.7270 C.cat 329  ARG329      0.5346
     39  NH1       35.4760   82.5180   59.9880 N.pl3 329  ARG329      0.1354
     40  NH2       35.4170   80.8240   58.4430 N.pl3 329  ARG329      0.1354
     41  N         38.6870   90.3140   61.7540 N.3   417  MET417     -0.1245
     42  CA        38.8960   89.1330   62.5770 C.3   417  MET417      0.1570
     43  C         40.1400   89.3300   63.4320 C.2   417  MET417      0.2261
     44  O         41.2160   89.6490   62.9160 O.2   417  MET417     -0.2867
     45  CB        39.0420   87.8810   61.7120 C.3   417  MET417      0.0387
     46  CG        37.7360   87.3430   61.1470 C.3   417  MET417      0.0595
     47  SD        36.5180   86.9240   62.4110 S.3   417  MET417     -0.1393
     48  CE        37.4510   85.7920   63.4390 C.3   417  MET417      0.0692
     49  N         42.3250   87.2150   65.1890 N.3   419  GLU419     -0.1245
     50  CA        42.6190   85.7940   65.3230 C.3   419  GLU419      0.1567
     51  C         44.0530   85.4380   64.9370 C.2   419  GLU419      0.2260
     52  O         44.3290   84.2700   64.6370 O.2   419  GLU419     -0.2867
     53  CB        41.6400   84.9730   64.4800 C.3   419  GLU419      0.0388
     54  CG        41.5720   85.4020   63.0250 C.3   419  GLU419      0.1160
     55  CD        40.7650   84.4420   62.1790 C.2   419  GLU419      0.3649
     56  OE1       40.7800   84.5810   60.9380 O.co2 419  GLU419     -0.2457
     57  OE2       40.1110   83.5480   62.7560 O.co2 419  GLU419     -0.2457
     58  N         38.5550   85.3920   67.0990 N.3   444  GLY444     -0.1210
     59  CA        38.5960   84.0230   66.6250 C.3   444  GLY444      0.1956
     60  C         39.5860   83.2160   67.4370 C.2   444  GLY444      0.2612
     61  O         40.7490   83.0780   67.0500 O.2   444  GLY444     -0.2717
     62  N         39.1290   82.6750   68.5700 N.am  445  PHE445     -0.1962
     63  CA        40.0470   82.0860   69.5390 C.3   445  PHE445      0.1771
     64  C         40.7450   80.8460   68.9940 C.2   445  PHE445      0.2619
     65  O         41.8910   80.5700   69.3670 O.2   445  PHE445     -0.2715
     66  CB        39.3040   81.7540   70.8360 C.3   445  PHE445      0.0574
     67  CG        38.2100   80.7320   70.6750 C.ar  445  PHE445     -0.0200
     68  CD1       38.4140   79.4180   71.0600 C.ar  445  PHE445     -0.0042
     69  CD2       36.9750   81.0880   70.1580 C.ar  445  PHE445     -0.0042
     70  CE1       37.4120   78.4750   70.9210 C.ar  445  PHE445     -0.0003
     71  CE2       35.9710   80.1480   70.0160 C.ar  445  PHE445     -0.0003
     72  CZ        36.1890   78.8410   70.3980 C.ar  445  PHE445     -0.0000
     73  N         40.0860   80.0940   68.1110 N.am  446  LEU446     -0.1963
     74  CA        40.6910   78.8770   67.5780 C.3   446  LEU446      0.1728
     75  C         41.8870   79.1990   66.6880 C.2   446  LEU446      0.2616
     76  O         42.9960   78.7000   66.9140 O.2   446  LEU446     -0.2715
     77  CB        39.6420   78.0620   66.8190 C.3   446  LEU446      0.0311
     78  CG        38.4710   77.5550   67.6650 C.3   446  LEU446      0.0022
     79  CD1       37.2690   77.2410   66.7920 C.3   446  LEU446      0.0001
     80  CD2       38.8740   76.3360   68.4820 C.3   446  LEU446      0.0001
     81  N         41.6820   80.0360   65.6660 N.am  447  ASP447     -0.1971
     82  CA        42.7930   80.4310   64.8030 C.3   447  ASP447      0.1709
     83  C         43.8750   81.1500   65.6000 C.2   447  ASP447      0.2293
     84  O         45.0720   80.9590   65.3520 O.2   447  ASP447     -0.2864
     85  CB        42.2900   81.3220   63.6670 C.3   447  ASP447      0.1436
     86  CG        42.0950   80.5610   62.3620 C.2   447  ASP447      0.3671
     87  OD1       41.0890   80.8250   61.6700 O.co2 447  ASP447     -0.2456
     88  OD2       42.9480   79.7130   62.0270 O.co2 447  ASP447     -0.2456
     89  N         33.2170   81.0300   68.8550 N.3   500  MET500     -0.1245
     90  CA        32.3830   79.9410   68.3620 C.3   500  MET500      0.1570
     91  C         32.1310   78.8870   69.4350 C.2   500  MET500      0.2261
     92  O         33.0380   78.5280   70.1900 O.2   500  MET500     -0.2867
     93  CB        33.0780   79.2890   67.1600 C.3   500  MET500      0.0387
     94  CG        32.2260   78.3930   66.2910 C.3   500  MET500      0.0595
     95  SD        30.8590   79.2560   65.5220 S.3   500  MET500     -0.1393
     96  CE        29.5490   78.6100   66.5360 C.3   500  MET500      0.0692
     97  N         31.3010   74.9790   69.5890 N.3   502  THR502     -0.1218
     98  CA        31.4600   73.8700   68.6620 C.3   502  THR502      0.1862
     99  C         30.7100   72.6060   69.0590 C.2   502  THR502      0.2287
    100  O         30.4850   71.7510   68.1960 O.2   502  THR502     -0.2866
    101  CB        32.9490   73.5340   68.4970 C.3   502  THR502      0.1770
    102  OG1       33.5500   73.3690   69.7870 O.3   502  THR502     -0.2211
    103  CG2       33.6590   74.6600   67.7590 C.3   502  THR502      0.0375
    104  N         29.2860   84.0430   68.1980 N.3   526  TRP526     -0.1241
    105  CA        29.0910   83.1410   67.0720 C.3   526  TRP526      0.1605
    106  C         28.3500   81.8770   67.4930 C.2   526  TRP526      0.2264
    107  O         28.7230   81.2220   68.4720 O.2   526  TRP526     -0.2867
    108  CB        30.4360   82.7790   66.4440 C.3   526  TRP526      0.0550
    109  CG        30.9330   83.8250   65.5060 C.ar  526  TRP526      0.0003
    110  CD1       30.4750   85.1040   65.3960 C.ar  526  TRP526      0.0946
    111  CD2       31.9900   83.6940   64.5510 C.ar  526  TRP526      0.0152
    112  NE1       31.1770   85.7780   64.4290 N.ar  526  TRP526     -0.2442
    113  CE2       32.1140   84.9340   63.8940 C.ar  526  TRP526      0.0810
    114  CE3       32.8420   82.6480   64.1850 C.ar  526  TRP526      0.0012
    115  CZ2       33.0550   85.1570   62.8940 C.ar  526  TRP526      0.0191
    116  CZ3       33.7750   82.8720   63.1910 C.ar  526  TRP526      0.0001
    117  CH2       33.8740   84.1160   62.5570 C.ar  526  TRP526      0.0015
    118  N         26.4740   78.1880   65.6530 N.3   528  PRO528     -0.2116
    119  CA        26.6210   77.3810   64.4280 C.3   528  PRO528      0.1372
    120  C         25.3210   76.9250   63.7800 C.2   528  PRO528      0.2244
    121  O         25.3860   76.3000   62.7150 O.2   528  PRO528     -0.2868
    122  CB        27.4010   76.1640   64.9370 C.3   528  PRO528      0.0268
    123  CG        27.0240   76.0500   66.4120 C.3   528  PRO528      0.0207
    124  CD        26.3290   77.3260   66.8380 C.3   528  PRO528      0.0892
    125  N         33.3640   71.5500   56.6690 N.3   604  CYS604     -0.1235
    126  CA        32.9200   71.6390   58.0530 C.3   604  CYS604      0.1677
    127  C         32.1560   70.3710   58.4000 C.2   604  CYS604      0.2270
    128  O         31.1960   70.0210   57.7080 O.2   604  CYS604     -0.2867
    129  CB        32.0410   72.8740   58.2780 C.3   604  CYS604      0.0956
    130  SG        30.4960   72.8920   57.3380 S.3   604  CYS604     -0.0801
    131  N         31.9380   70.5320   65.9970 N.3   616  MET616     -0.1230
    132  CA        31.9310   71.1890   64.6930 C.3   616  MET616      0.1702
    133  C         33.3580   71.5520   64.3070 C.2   616  MET616      0.2592
    134  O         33.9580   72.4570   64.8960 O.2   616  MET616     -0.2718
    135  CB        31.0510   72.4350   64.7240 C.3   616  MET616      0.0401
    136  CG        29.7150   72.3030   64.0110 C.3   616  MET616      0.0596
    137  SD        29.8540   72.0940   62.2250 S.3   616  MET616     -0.1393
    138  CE        28.6160   70.8330   61.9220 C.3   616  MET616      0.0692
    139  N         33.9020   70.8580   63.3150 N.am  617  GLU617     -0.1966
    140  CA        35.2760   71.0620   62.8840 C.3   617  GLU617      0.1733
    141  C         35.3250   71.9770   61.6690 C.2   617  GLU617      0.2616
    142  O         34.4870   71.8790   60.7690 O.2   617  GLU617     -0.2715
    143  CB        35.9470   69.7280   62.5510 C.3   617  GLU617      0.0429
    144  CG        35.9520   68.7300   63.6940 C.3   617  GLU617      0.1163
    145  CD        37.0390   69.0170   64.7090 C.2   617  GLU617      0.3649
    146  OE1       38.2320   68.9600   64.3390 O.co2 617  GLU617     -0.2457
    147  OE2       36.7020   69.3010   65.8770 O.co2 617  GLU617     -0.2457
    148  N         36.3090   72.8710   61.6570 N.am  618  ASP618     -0.1971
    149  CA        36.6400   73.6620   60.4810 C.3   618  ASP618      0.1709
    150  C         38.1590   73.6790   60.3600 C.2   618  ASP618      0.2293
    151  O         38.8660   72.9960   61.1070 O.2   618  ASP618     -0.2864
    152  CB        36.0330   75.0690   60.5690 C.3   618  ASP618      0.1436
    153  CG        36.8190   75.9900   61.4810 C.2   618  ASP618      0.3671
    154  OD1       37.2620   75.5340   62.5570 O.co2 618  ASP618     -0.2456
    155  OD2       36.9890   77.1750   61.1270 O.co2 618  ASP618     -0.2456
    156  N         40.0920   75.9900   61.2370 N.3   620  ALA620     -0.1231
    157  CA        40.7080   76.6110   62.4070 C.3   620  ALA620      0.1694
    158  C         40.9760   75.5820   63.4990 C.2   620  ALA620      0.2592
    159  O         42.0790   75.5270   64.0560 O.2   620  ALA620     -0.2718
    160  CB        39.8220   77.7380   62.9340 C.3   620  ALA620      0.0304
    161  N         39.9720   74.7640   63.8280 N.am  621  THR621     -0.1953
    162  CA        40.1890   73.6780   64.7790 C.3   621  THR621      0.1897
    163  C         41.2230   72.6920   64.2590 C.2   621  THR621      0.2313
    164  O         41.9740   72.1030   65.0460 O.2   621  THR621     -0.2863
    165  CB        38.8740   72.9510   65.0700 C.3   621  THR621      0.1794
    166  OG1       38.4730   72.2060   63.9130 O.3   621  THR621     -0.2208
    167  CG2       37.7810   73.9410   65.4240 C.3   621  THR621      0.0378
@<TRIPOS>BOND
     1    11    10    2
     2    33    32    2
     3    10     9    1
     4    32    31    1
     5    30    31    1
     6     8     9    1
     7     9    12    1
     8    31    34    1
     9    27    26    2
    10    26    25    1
    11    14    13   ar
    12    12    13    1
    13    34    35    1
    14    16    17    1
    15    13    15   ar
    16    24    25    1
    17    24    18   am
    18   125   126    1
    19    35    36    1
    20    29    28    1
    21    25    28    1
    22    17    18    1
    23    17    20    1
    24    18    19    2
    25    23    21   ar
    26   130   129    1
    27   128   127    2
    28    37    36    1
    29    37    38    2
    30   126   129    1
    31   126   127    1
    32    20    21    1
    33    21    22   ar
    34    40    38    1
    35    38    39    1
    36     3     4    2
    37     3     2    1
    38     7     5    1
    39   150   149    1
    40   150   151    2
    41   149   152    1
    42   149   148    1
    43     2     5    1
    44     2     1    1
    45   152   153    1
    46   142   141    2
    47    56    55   ar
    48     5     6    1
    49   155   153   ar
    50    46    45    1
    51    46    47    1
    52   156   157    1
    53   153   154   ar
    54   148   141   am
    55   141   140    1
    56    87    86   ar
    57    45    42    1
    58    41    42    1
    59   138   137    1
    60    88    86   ar
    61    55    57   ar
    62    55    54    1
    63   137   136    1
    64    86    85    1
    65   157   160    1
    66   157   158    1
    67    47    48    1
    68   143   140    1
    69   143   144    1
    70   117   115   ar
    71   117   116   ar
    72    42    43    1
    73   121   120    2
    74   140   139    1
    75   115   113   ar
    76    44    43    2
    77    54    53    1
    78   116   114   ar
    79   139   133   am
    80   158   161   am
    81   158   159    2
    82    85    82    1
    83   144   145    1
    84   120   119    1
    85   161   162    1
    86   113   112   ar
    87   113   111   ar
    88   166   165    1
    89   136   135    1
    90   114   111   ar
    91   163   162    1
    92   163   164    2
    93   133   132    1
    94   133   134    2
    95   146   145   ar
    96   119   122    1
    97   119   118    1
    98   112   110   ar
    99    53    50    1
   100   111   109   ar
   101    52    51    2
   102   132   135    1
   103   132   131    1
   104   145   147   ar
   105   162   165    1
   106    82    83    1
   107    82    81    1
   108   122   123    1
   109    51    50    1
   110   165   167    1
   111    49    50    1
   112    84    83    2
   113   110   109   ar
   114   109   108    1
   115    95    94    1
   116    95    96    1
   117   118   124    1
   118    81    75   am
   119    94    93    1
   120   123   124    1
   121   108   105    1
   122    59    58    1
   123    59    60    1
   124    75    76    2
   125    75    74    1
   126    79    78    1
   127    77    74    1
   128    77    78    1
   129    61    60    2
   130   105   106    1
   131   105   104    1
   132    93    90    1
   133    60    62   am
   134   106   107    2
   135    74    73    1
   136    78    80    1
   137   103   101    1
   138    73    64   am
   139   100    99    2
   140    90    89    1
   141    90    91    1
   142   101    98    1
   143   101   102    1
   144    62    63    1
   145    98    99    1
   146    98    97    1
   147    64    65    2
   148    64    63    1
   149    91    92    2
   150    63    66    1
   151    71    69   ar
   152    71    72   ar
   153    69    67   ar
   154    72    70   ar
   155    67    66    1
   156    67    68   ar
   157    70    68   ar
