@<TRIPOS>MOLECULE
tmp/6babC00.pdb
 190 179 0 0 0
SMALL
GASTEIGER

@<TRIPOS>ATOM
      1  N         72.3950   24.8470   46.4310 N.3     8  LEU8       -0.1231
      2  CA        71.0670   24.6280   45.8710 C.3     8  LEU8        0.1693
      3  C         70.1360   25.8160   46.0830 C.2     8  LEU8        0.2593
      4  O         69.2770   26.0840   45.2320 O.2     8  LEU8       -0.2718
      5  CB        70.4510   23.3580   46.4710 C.3     8  LEU8        0.0284
      6  CG        71.2960   22.0980   46.2370 C.3     8  LEU8        0.0019
      7  CD1       70.6440   20.8360   46.7900 C.3     8  LEU8        0.0001
      8  CD2       71.6420   21.9370   44.7560 C.3     8  LEU8        0.0001
      9  N         70.2940   26.5450   47.1770 N.am    9  GLY9       -0.1942
     10  CA        69.4850   27.7280   47.3870 C.3     9  GLY9        0.2014
     11  C         69.8600   28.4010   48.6880 C.2     9  GLY9        0.2639
     12  O         70.7590   27.9600   49.4130 O.2     9  GLY9       -0.2714
     13  N         69.1390   29.4810   48.9810 N.am   10  LYS10      -0.1963
     14  CA        69.4560   30.3540   50.1000 C.3    10  LYS10       0.1728
     15  C         68.2300   30.5460   50.9710 C.2    10  LYS10       0.2616
     16  O         67.1040   30.6290   50.4680 O.2    10  LYS10      -0.2715
     17  CB        69.9440   31.7330   49.6270 C.3    10  LYS10       0.0311
     18  CG        71.2110   31.7070   48.8190 C.3    10  LYS10       0.0038
     19  CD        71.4900   33.0770   48.2270 C.3    10  LYS10       0.0206
     20  CE        70.4330   33.4540   47.2070 C.3    10  LYS10       0.1093
     21  NZ        70.8800   34.5650   46.3080 N.3    10  LYS10      -0.1314
     22  N         68.4620   30.6040   52.2780 N.am   11  GLY11      -0.1955
     23  CA        67.4820   31.1140   53.2160 C.3    11  GLY11       0.1869
     24  C         68.0280   32.3710   53.8700 C.2    11  GLY11       0.2309
     25  O         69.1120   32.8310   53.4890 O.2    11  GLY11      -0.2863
     26  N         71.0840   31.1480   55.9310 N.3    14  SER14      -0.1217
     27  CA        71.4780   29.7880   55.6020 C.3    14  SER14       0.1889
     28  C         71.6850   29.6560   54.1040 C.2    14  SER14       0.2288
     29  O         71.1560   30.4360   53.3060 O.2    14  SER14      -0.2866
     30  CB        70.4300   28.7710   56.0610 C.3    14  SER14       0.2089
     31  OG        69.1920   29.0230   55.4210 O.3    14  SER14      -0.2183
     32  N         71.8420   26.1260   51.3030 N.3    16  VAL16      -0.1245
     33  CA        71.7310   24.6780   51.1450 C.3    16  VAL16       0.1561
     34  C         72.6370   24.2590   50.0020 C.2    16  VAL16       0.2260
     35  O         72.5180   24.7770   48.8840 O.2    16  VAL16      -0.2867
     36  CB        70.2780   24.2210   50.9030 C.3    16  VAL16       0.0252
     37  CG1       70.2230   22.6980   50.6220 C.3    16  VAL16       0.0019
     38  CG2       69.4440   24.5460   52.1140 C.3    16  VAL16       0.0019
     39  N         71.7950   16.5390   51.2880 N.3    25  ALA25      -0.1245
     40  CA        71.6840   17.9900   51.2180 C.3    25  ALA25       0.1562
     41  C         71.9960   18.5630   52.5910 C.2    25  ALA25       0.2260
     42  O         71.5580   18.0250   53.6080 O.2    25  ALA25      -0.2867
     43  CB        70.2910   18.4300   50.7420 C.3    25  ALA25       0.0290
     44  N         71.7660   21.9340   54.9290 N.3    27  LYS27      -0.1245
     45  CA        71.3490   23.2920   55.2570 C.3    27  LYS27       0.1561
     46  C         72.3360   23.8360   56.2760 C.2    27  LYS27       0.2260
     47  O         72.4150   23.3290   57.3990 O.2    27  LYS27      -0.2867
     48  CB        69.9200   23.3370   55.8060 C.3    27  LYS27       0.0271
     49  CG        69.5210   24.7210   56.3220 C.3    27  LYS27       0.0035
     50  CD        68.1140   24.7410   56.9320 C.3    27  LYS27       0.0206
     51  CE        67.7670   26.1390   57.4410 C.3    27  LYS27       0.1093
     52  NZ        66.4960   26.1800   58.2320 N.3    27  LYS27      -0.1314
     53  N         64.7170   23.3750   65.9300 N.3    45  GLU45      -0.1245
     54  CA        64.5950   23.0330   64.5140 C.3    45  GLU45       0.1567
     55  C         65.1120   21.6230   64.2410 C.2    45  GLU45       0.2260
     56  O         64.4700   20.8470   63.5210 O.2    45  GLU45      -0.2867
     57  CB        65.3320   24.0720   63.6540 C.3    45  GLU45       0.0388
     58  CG        65.4560   23.7060   62.1540 C.3    45  GLU45       0.1160
     59  CD        66.0750   24.8160   61.2940 C.2    45  GLU45       0.3649
     60  OE1       66.6240   25.7900   61.8500 O.co2  45  GLU45      -0.2457
     61  OE2       66.0140   24.7150   60.0470 O.co2  45  GLU45      -0.2457
     62  N         62.7880   18.4280   63.0240 N.3    49  CYS49      -0.1235
     63  CA        63.0880   17.6820   61.8070 C.3    49  CYS49       0.1677
     64  C         63.3550   16.2100   62.1040 C.2    49  CYS49       0.2270
     65  O         62.9450   15.3390   61.3270 O.2    49  CYS49      -0.2867
     66  CB        64.2710   18.3150   61.0820 C.3    49  CYS49       0.0956
     67  SG        63.9720   20.0150   60.5500 S.3    49  CYS49      -0.0801
     68  N         60.7790   16.5740   54.0420 N.3    58  VAL58      -0.1245
     69  CA        62.2200   16.3290   53.9690 C.3    58  VAL58       0.1561
     70  C         62.6580   15.5210   55.1820 C.2    58  VAL58       0.2260
     71  O         62.0660   15.6040   56.2610 O.2    58  VAL58      -0.2867
     72  CB        63.0470   17.6280   53.8740 C.3    58  VAL58       0.0252
     73  CG1       62.7200   18.3950   52.6180 C.3    58  VAL58       0.0019
     74  CG2       62.8650   18.4830   55.0930 C.3    58  VAL58       0.0019
     75  N         70.1310   16.4380   55.3420 N.3    74  PHE74      -0.1227
     76  CA        68.8800   15.7890   54.9480 C.3    74  PHE74       0.1736
     77  C         69.1210   14.8860   53.7460 C.2    74  PHE74       0.2595
     78  O         70.0420   15.1160   52.9610 O.2    74  PHE74      -0.2718
     79  CB        67.7900   16.8110   54.5500 C.3    74  PHE74       0.0547
     80  CG        67.4200   17.7760   55.6330 C.ar   74  PHE74      -0.0202
     81  CD1       68.1860   18.9000   55.8700 C.ar   74  PHE74      -0.0042
     82  CD2       66.2690   17.5780   56.3890 C.ar   74  PHE74      -0.0042
     83  CE1       67.8250   19.8000   56.8620 C.ar   74  PHE74      -0.0003
     84  CE2       65.9190   18.4710   57.3930 C.ar   74  PHE74      -0.0003
     85  CZ        66.6930   19.5790   57.6220 C.ar   74  PHE74      -0.0000
     86  N         68.2800   13.8610   53.5960 N.am   75  ASP75      -0.1960
     87  CA        68.2220   13.1430   52.3260 C.3    75  ASP75       0.1840
     88  C         68.0700   14.1380   51.1830 C.2    75  ASP75       0.2622
     89  O         67.3560   15.1410   51.2970 O.2    75  ASP75      -0.2715
     90  CB        67.0470   12.1520   52.2910 C.3    75  ASP75       0.1450
     91  CG        67.2840   10.9190   53.1490 C.2    75  ASP75       0.3671
     92  OD1       68.4340   10.6830   53.5750 O.co2  75  ASP75      -0.2456
     93  OD2       66.3140   10.1770   53.3950 O.co2  75  ASP75      -0.2456
     94  N         68.7440   13.8510   50.0750 N.am   76  LEU76      -0.1963
     95  CA        68.7970   14.7620   48.9440 C.3    76  LEU76       0.1728
     96  C         67.6080   14.5100   48.0290 C.2    76  LEU76       0.2616
     97  O         67.3820   13.3710   47.6000 O.2    76  LEU76      -0.2715
     98  CB        70.1040   14.5770   48.1680 C.3    76  LEU76       0.0311
     99  CG        70.2590   15.3930   46.8810 C.3    76  LEU76       0.0022
    100  CD1       70.2730   16.9020   47.1670 C.3    76  LEU76       0.0001
    101  CD2       71.5250   14.9560   46.1460 C.3    76  LEU76       0.0001
    102  N         66.8530   15.5670   47.7310 N.am   77  VAL77      -0.1963
    103  CA        65.8650   15.5380   46.6610 C.3    77  VAL77       0.1727
    104  C         66.3630   16.4410   45.5440 C.2    77  VAL77       0.2617
    105  O         66.9020   17.5260   45.7900 O.2    77  VAL77      -0.2715
    106  CB        64.4510   15.9360   47.1390 C.3    77  VAL77       0.0290
    107  CG1       63.9810   14.9710   48.2180 C.3    77  VAL77       0.0023
    108  CG2       64.4020   17.3660   47.6470 C.3    77  VAL77       0.0023
    109  N         66.2180   15.9790   44.3120 N.am   78  THR78      -0.1937
    110  CA        66.8370   16.6720   43.1920 C.3    78  THR78       0.2028
    111  C         65.8170   17.2460   42.2160 C.2    78  THR78       0.2643
    112  O         66.1970   17.7060   41.1360 O.2    78  THR78      -0.2714
    113  CB        67.8040   15.7210   42.4850 C.3    78  THR78       0.1808
    114  OG1       68.4680   16.4040   41.4210 O.3    78  THR78      -0.2208
    115  CG2       67.0540   14.5380   41.9460 C.3    78  THR78       0.0379
    116  N         64.5390   17.2710   42.5830 N.am   79  GLY79      -0.1939
    117  CA        63.5330   17.8110   41.6890 C.3    79  GLY79       0.2014
    118  C         63.3730   19.3080   41.7260 C.2    79  GLY79       0.2639
    119  O         62.6570   19.8580   40.8760 O.2    79  GLY79      -0.2714
    120  N         63.9870   19.9790   42.6930 N.am   80  GLY80      -0.1939
    121  CA        63.9210   21.4240   42.7210 C.3    80  GLY80       0.2014
    122  C         62.6120   21.9150   43.3030 C.2    80  GLY80       0.2638
    123  O         61.7800   21.1430   43.7970 O.2    80  GLY80      -0.2714
    124  N         62.4090   23.2270   43.2180 N.am   81  GLU81      -0.1977
    125  CA        61.2220   23.8250   43.8240 C.3    81  GLU81       0.1602
    126  C         59.9740   23.5990   42.9690 C.2    81  GLU81       0.2287
    127  O         60.0220   23.6690   41.7370 O.2    81  GLU81      -0.2864
    128  CB        61.4550   25.3170   44.0700 C.3    81  GLU81       0.0415
    129  CG        62.6080   25.5430   45.0520 C.3    81  GLU81       0.1163
    130  CD        63.0600   26.9760   45.0960 C.2    81  GLU81       0.3649
    131  OE1       62.3710   27.8160   44.4860 O.co2  81  GLU81      -0.2457
    132  OE2       64.1060   27.2540   45.7300 O.co2  81  GLU81      -0.2457
    133  N         54.9340   28.2050   52.2750 N.3   122  LYS122     -0.1245
    134  CA        55.0350   29.1080   51.1380 C.3   122  LYS122      0.1561
    135  C         55.6580   28.3440   49.9820 C.2   122  LYS122      0.2260
    136  O         56.2740   27.2920   50.1950 O.2   122  LYS122     -0.2867
    137  CB        55.8710   30.3520   51.4830 C.3   122  LYS122      0.0271
    138  CG        57.3140   30.0550   51.8830 C.3   122  LYS122      0.0035
    139  CD        58.0310   31.3360   52.2410 C.3   122  LYS122      0.0206
    140  CE        59.4210   31.0530   52.7620 C.3   122  LYS122      0.1093
    141  NZ        60.0370   32.2670   53.3540 N.3   122  LYS122     -0.1314
    142  N         58.3780   28.5650   48.1890 N.3   124  GLU124     -0.1231
    143  CA        59.8170   28.2880   48.2630 C.3   124  GLU124      0.1699
    144  C         60.1480   27.1640   49.2170 C.2   124  GLU124      0.2592
    145  O         61.2910   26.6890   49.2160 O.2   124  GLU124     -0.2718
    146  CB        60.6410   29.4810   48.7670 C.3   124  GLU124      0.0402
    147  CG        60.4670   30.7930   48.0940 C.3   124  GLU124      0.1161
    148  CD        59.2760   31.5510   48.6410 C.2   124  GLU124      0.3649
    149  OE1       58.1470   31.2410   48.2150 O.co2 124  GLU124     -0.2457
    150  OE2       59.4660   32.4350   49.5050 O.co2 124  GLU124     -0.2457
    151  N         59.2280   26.8050   50.1000 N.am  125  ASN125     -0.1974
    152  CA        59.4850   25.7320   51.0470 C.3   125  ASN125      0.1688
    153  C         58.9010   24.4080   50.5760 C.2   125  ASN125      0.2292
    154  O         58.8220   23.4550   51.3560 O.2   125  ASN125     -0.2864
    155  CB        58.9630   26.1210   52.4320 C.3   125  ASN125      0.1181
    156  CG        59.8970   27.0840   53.1480 C.2   125  ASN125      0.2629
    157  OD1       61.1070   27.0410   52.9390 O.2   125  ASN125     -0.2716
    158  ND2       59.3480   27.9460   54.0020 N.am  125  ASN125     -0.0877
    159  N         59.5120   21.4640   47.8860 N.3   127  LEU127     -0.1245
    160  CA        60.4810   20.8690   46.9760 C.3   127  LEU127      0.1561
    161  C         59.8740   19.6390   46.3130 C.2   127  LEU127      0.2260
    162  O         58.7790   19.1930   46.6630 O.2   127  LEU127     -0.2867
    163  CB        61.7610   20.4880   47.7290 C.3   127  LEU127      0.0270
    164  CG        62.5380   21.6150   48.4110 C.3   127  LEU127      0.0019
    165  CD1       63.6290   21.0180   49.3010 C.3   127  LEU127      0.0001
    166  CD2       63.1460   22.5580   47.3670 C.3   127  LEU127      0.0001
    167  N         59.6160   21.4790   53.3130 N.3   140  ALA140     -0.1231
    168  CA        60.9580   21.7090   53.8250 C.3   140  ALA140      0.1694
    169  C         60.9970   22.9050   54.7620 C.2   140  ALA140      0.2592
    170  O         60.0920   23.7470   54.7750 O.2   140  ALA140     -0.2718
    171  CB        61.9630   21.9430   52.6930 C.3   140  ALA140      0.0304
    172  N         62.0970   22.9560   55.5200 N.am  141  ASP141     -0.1960
    173  CA        62.5290   24.0450   56.3910 C.3   141  ASP141      0.1840
    174  C         61.5900   24.2760   57.5590 C.2   141  ASP141      0.2622
    175  O         60.5540   24.9380   57.4190 O.2   141  ASP141     -0.2715
    176  CB        62.7060   25.3500   55.6180 C.3   141  ASP141      0.1450
    177  CG        63.6420   26.3230   56.3450 C.2   141  ASP141      0.3671
    178  OD1       63.5090   26.4860   57.5760 O.co2 141  ASP141     -0.2456
    179  OD2       64.5160   26.9190   55.6920 O.co2 141  ASP141     -0.2456
    180  N         61.9670   23.7510   58.7200 N.am  142  PHE142     -0.1974
    181  CA        61.2070   23.9300   59.9460 C.3   142  PHE142      0.1639
    182  C         61.8840   24.9230   60.8780 C.2   142  PHE142      0.2290
    183  O         61.6730   24.8910   62.0920 O.2   142  PHE142     -0.2864
    184  CB        60.9820   22.5820   60.6190 C.3   142  PHE142      0.0560
    185  CG        60.0440   21.7130   59.8490 C.ar  142  PHE142     -0.0200
    186  CD1       60.4810   21.0390   58.7280 C.ar  142  PHE142     -0.0042
    187  CD2       58.7280   21.6160   60.2110 C.ar  142  PHE142     -0.0042
    188  CE1       59.6230   20.2660   57.9920 C.ar  142  PHE142     -0.0003
    189  CE2       57.8530   20.8390   59.4800 C.ar  142  PHE142     -0.0003
    190  CZ        58.3000   20.1620   58.3690 C.ar  142  PHE142     -0.0000
@<TRIPOS>BOND
     1   119   118    2
     2   112   111    2
     3   114   113    1
     4   117   118    1
     5   117   116    1
     6   118   120   am
     7   127   126    2
     8   115   113    1
     9   111   116   am
    10   111   110    1
    11   113   110    1
    12   120   121    1
    13   121   122    1
    14   126   125    1
    15   110   109    1
    16   124   122   am
    17   124   125    1
    18   122   123    2
    19   125   128    1
    20   128   129    1
    21   109   104   am
    22   131   130   ar
    23     8     6    1
    24   129   130    1
    25   130   132   ar
    26     4     3    2
    27   104   105    2
    28   104   103    1
    29     2     3    1
    30     2     1    1
    31     2     5    1
    32     3     9   am
    33   101    99    1
    34     6     5    1
    35     6     7    1
    36    21    20    1
    37   161   162    2
    38   161   160    1
    39   103   106    1
    40   103   102    1
    41    99   100    1
    42    99    98    1
    43   160   163    1
    44   160   159    1
    45   106   108    1
    46   106   107    1
    47     9    10    1
    48    20    19    1
    49   166   164    1
    50    10    11    1
    51    97    96    2
    52   163   164    1
    53   102    96   am
    54    96    95    1
    55   147   148    1
    56   147   146    1
    57    98    95    1
    58   142   143    1
    59   149   148   ar
    60    19    18    1
    61   143   146    1
    62   143   144    1
    63   164   165    1
    64   148   150   ar
    65    11    13   am
    66    11    12    2
    67    18    17    1
    68    35    34    2
    69    95    94    1
    70    13    14    1
    71   145   144    2
    72   144   151   am
    73    17    14    1
    74   135   136    2
    75   135   134    1
    76    34    33    1
    77    94    88   am
    78   151   152    1
    79    14    15    1
    80    16    15    2
    81   153   152    1
    82   153   154    2
    83    37    36    1
    84    43    40    1
    85    36    33    1
    86    36    38    1
    87    15    22   am
    88   152   155    1
    89   134   137    1
    90   134   133    1
    91    33    32    1
    92    88    89    2
    93    88    87    1
    94    40    39    1
    95    40    41    1
    96   137   138    1
    97   138   139    1
    98   139   140    1
    99    22    23    1
   100    90    87    1
   101    90    91    1
   102    87    86    1
   103   155   156    1
   104    41    42    2
   105    73    72    1
   106   171   168    1
   107   140   141    1
   108   157   156    2
   109    78    77    2
   110   156   158   am
   111    91    93   ar
   112    91    92   ar
   113    23    24    1
   114    29    28    2
   115   167   168    1
   116    25    24    2
   117    86    77   am
   118    77    76    1
   119   168   169    1
   120    72    69    1
   121    72    74    1
   122    69    68    1
   123    69    70    1
   124    28    27    1
   125    79    76    1
   126    79    80    1
   127   169   170    2
   128   169   172   am
   129    44    45    1
   130    76    75    1
   131    70    71    2
   132    45    48    1
   133    45    46    1
   134    31    30    1
   135   172   173    1
   136    27    26    1
   137    27    30    1
   138   176   177    1
   139   176   173    1
   140    80    81   ar
   141    80    82   ar
   142   179   177   ar
   143    48    49    1
   144    81    83   ar
   145    46    47    2
   146    49    50    1
   147   177   178   ar
   148    82    84   ar
   149   173   174    1
   150    83    85   ar
   151    50    51    1
   152    84    85   ar
   153   175   174    2
   154    51    52    1
   155   174   180   am
   156   188   190   ar
   157   188   186   ar
   158   190   189   ar
   159   180   181    1
   160   186   185   ar
   161   189   187   ar
   162   185   187   ar
   163   185   184    1
   164   181   184    1
   165   181   182    1
   166    61    59   ar
   167    67    66    1
   168   182   183    2
   169    66    63    1
   170    59    60   ar
   171    59    58    1
   172    65    64    2
   173    63    64    1
   174    63    62    1
   175    58    57    1
   176    56    55    2
   177    57    54    1
   178    55    54    1
   179    54    53    1
