@<TRIPOS>MOLECULE
tmp/6badC02.pdb
 92 89 0 0 0
SMALL
GASTEIGER

@<TRIPOS>ATOM
      1  N         -9.5700    0.0130   48.0550 N.3    99  GLN99      -0.1245
      2  CA       -10.4950    0.6690   48.9740 C.3    99  GLN99       0.1566
      3  C        -11.8500    0.8940   48.2740 C.2    99  GLN99       0.2260
      4  O        -11.9070    1.2720   47.0970 O.2    99  GLN99      -0.2867
      5  CB        -9.8930    1.9810   49.4880 C.3    99  GLN99       0.0367
      6  CG       -10.5420    2.5620   50.7480 C.3    99  GLN99       0.0905
      7  CD        -9.9210    3.8970   51.0980 C.2    99  GLN99       0.2608
      8  OE1       -9.0590    4.4210   50.3800 O.2    99  GLN99      -0.2717
      9  NE2      -10.3150    4.4670   52.2280 N.am   99  GLN99      -0.0878
     10  N        -15.6730    3.2730   52.5060 N.3   103  GLU103     -0.1231
     11  CA       -14.8070    2.4320   53.3320 C.3   103  GLU103      0.1699
     12  C        -13.6930    3.2290   53.9810 C.2   103  GLU103      0.2593
     13  O        -12.9340    3.9030   53.2920 O.2   103  GLU103     -0.2718
     14  CB       -14.2620    1.2450   52.5110 C.3   103  GLU103      0.0402
     15  CG       -13.5830    0.1640   53.3280 C.3   103  GLU103      0.1161
     16  CD       -13.0250   -1.0130   52.5490 C.2   103  GLU103      0.3649
     17  OE1      -12.9890   -2.1170   53.1320 O.co2 103  GLU103     -0.2457
     18  OE2      -12.6110   -0.8440   51.3770 O.co2 103  GLU103     -0.2457
     19  N        -13.5700    3.1070   55.3140 N.am  104  SER104     -0.1938
     20  CA       -12.5560    3.7760   56.1430 C.3   104  SER104      0.2055
     21  C        -11.1890    3.0940   56.0900 C.2   104  SER104      0.2642
     22  O        -11.0930    1.9370   55.6740 O.2   104  SER104     -0.2714
     23  CB       -13.0230    3.8160   57.5960 C.3   104  SER104      0.2130
     24  OG       -12.9280    2.5370   58.2100 O.3   104  SER104     -0.2179
     25  N        -10.1380    3.7950   56.5870 N.am  105  ARG105     -0.1977
     26  CA        -8.7960    3.2440   56.6870 C.3   105  ARG105      0.1597
     27  C         -8.7810    2.0400   57.6500 C.2   105  ARG105      0.2287
     28  O         -8.2010    1.0090   57.3180 O.2   105  ARG105     -0.2864
     29  CB        -7.7890    4.3150   57.1500 C.3   105  ARG105      0.0334
     30  CG        -6.4260    3.7190   57.4840 C.3   105  ARG105      0.0492
     31  CD        -5.4230    4.7320   57.9470 C.3   105  ARG105      0.2205
     32  NE        -4.5170    5.0570   56.8520 N.pl3 105  ARG105     -0.0865
     33  CZ        -3.5110    5.9200   56.9410 C.cat 105  ARG105      0.5346
     34  NH1       -2.7480    6.1650   55.8860 N.pl3 105  ARG105      0.1354
     35  NH2       -3.2660    6.5500   58.0820 N.pl3 105  ARG105      0.1354
     36  N        -10.0610   -1.0390   56.1000 N.3   108  LEU108     -0.1245
     37  CA        -9.0960   -1.5260   55.1220 C.3   108  LEU108      0.1561
     38  C         -7.9550   -2.2400   55.8720 C.2   108  LEU108      0.2260
     39  O         -7.5280   -3.3190   55.4580 O.2   108  LEU108     -0.2867
     40  CB        -8.5560   -0.3320   54.2950 C.3   108  LEU108      0.0270
     41  CG        -7.7030   -0.6250   53.0560 C.3   108  LEU108      0.0019
     42  CD1       -8.4580   -1.4550   52.0210 C.3   108  LEU108      0.0001
     43  CD2       -7.2350    0.6690   52.4120 C.3   108  LEU108      0.0001
     44  N         -2.5450   -1.1340   50.4530 N.3   137  ASN137     -0.1226
     45  CA        -2.8030   -0.0250   51.3710 C.3   137  ASN137      0.1770
     46  C         -3.4670   -0.4020   52.7050 C.2   137  ASN137      0.2439
     47  O         -4.2400   -1.3600   52.7180 O.2   137  ASN137     -0.2733
     48  CB        -3.6070    1.0550   50.6710 C.3   137  ASN137      0.1168
     49  CG        -2.7250    2.0970   50.0350 C.2   137  ASN137      0.2627
     50  OD1       -1.7750    2.6110   50.6550 O.2   137  ASN137     -0.2716
     51  ND2       -2.9960    2.3970   48.7810 N.am  137  ASN137     -0.0877
     52  N         -3.2500    0.3630   53.8230 N.am  138  PRO138     -0.2729
     53  CA        -2.3750    1.5490   54.0100 C.3   138  PRO138      0.1401
     54  C         -0.9720    1.0050   54.0020 C.2   138  PRO138      0.2269
     55  O         -0.6230    0.1770   54.8490 O.2   138  PRO138     -0.2865
     56  CB        -2.7600    2.0720   55.4100 C.3   138  PRO138      0.0296
     57  CG        -4.0140    1.3330   55.7740 C.3   138  PRO138      0.0237
     58  CD        -3.9150    0.0200   55.0920 C.3   138  PRO138      0.0939
     59  N          2.6080    7.8020   53.1630 N.3   192  HIS192     -0.1226
     60  CA         2.0780    7.7510   51.8070 C.3   192  HIS192      0.1752
     61  C          0.6430    8.3210   51.7490 C.2   192  HIS192      0.2597
     62  O         -0.1460    8.0760   52.6520 O.2   192  HIS192     -0.2718
     63  CB         2.0730    6.2960   51.2880 C.3   192  HIS192      0.0759
     64  CG         1.2240    6.1040   50.0600 C.ar  192  HIS192      0.0818
     65  ND1        1.6090    6.6250   48.8290 N.ar  192  HIS192     -0.2268
     66  CD2       -0.0080    5.5560   49.9290 C.ar  192  HIS192      0.1154
     67  CE1        0.6260    6.3470   47.9920 C.ar  192  HIS192      0.1986
     68  NE2       -0.3730    5.7080   48.6100 N.ar  192  HIS192     -0.2212
     69  N          0.3200    9.0220   50.6620 N.am  193  GLY193     -0.1942
     70  CA        -1.0250    9.5210   50.4120 C.3   193  GLY193      0.2014
     71  C         -1.3400   10.8970   50.9260 C.2   193  GLY193      0.2638
     72  O         -0.5420   11.8160   50.7600 O.2   193  GLY193     -0.2714
     73  N         -2.5210   11.0460   51.5420 N.am  194  ASP194     -0.1971
     74  CA        -3.0500   12.3230   52.0360 C.3   194  ASP194      0.1709
     75  C         -2.1320   13.1270   52.9380 C.2   194  ASP194      0.2293
     76  O         -2.1360   14.3620   52.8630 O.2   194  ASP194     -0.2864
     77  CB        -4.3980   12.1150   52.7730 C.3   194  ASP194      0.1436
     78  CG        -5.5490   11.5500   51.9500 C.2   194  ASP194      0.3671
     79  OD1       -5.4850   11.6220   50.7170 O.co2 194  ASP194     -0.2456
     80  OD2       -6.5280   11.0510   52.5570 O.co2 194  ASP194     -0.2456
     81  N         -7.1640   11.2460   43.7070 N.3   238  TYR238     -0.1241
     82  CA        -8.6170   11.1500   43.8540 C.3   238  TYR238      0.1605
     83  C         -9.3060   11.3170   42.5090 C.2   238  TYR238      0.2264
     84  O        -10.2820   10.6150   42.2250 O.2   238  TYR238     -0.2867
     85  CB        -9.1240   12.2440   44.8280 C.3   238  TYR238      0.0534
     86  CG        -8.8740   11.8720   46.2660 C.ar  238  TYR238     -0.0201
     87  CD1       -9.7980   11.1100   46.9780 C.ar  238  TYR238     -0.0009
     88  CD2       -7.6810   12.2120   46.8970 C.ar  238  TYR238     -0.0009
     89  CE1       -9.5600   10.7350   48.2970 C.ar  238  TYR238      0.0417
     90  CE2       -7.4570   11.8910   48.2310 C.ar  238  TYR238      0.0417
     91  CZ        -8.3920   11.1360   48.9250 C.ar  238  TYR238      0.1957
     92  OH        -8.1510   10.7420   50.2210 O.3   238  TYR238     -0.2866
@<TRIPOS>BOND
     1    84    83    2
     2    83    82    1
     3    81    82    1
     4    82    85    1
     5    85    86    1
     6    86    88   ar
     7    86    87   ar
     8    88    90   ar
     9    87    89   ar
    10     4     3    2
    11    67    68   ar
    12    67    65   ar
    13     1     2    1
    14    90    91   ar
    15     3     2    1
    16    89    91   ar
    17    68    66   ar
    18    51    49   am
    19    65    64   ar
    20    91    92    1
    21     2     5    1
    22     5     6    1
    23    66    64   ar
    24    49    50    2
    25    49    48    1
    26    64    63    1
    27     8     7    2
    28    70    69    1
    29    70    71    1
    30    44    45    1
    31    69    61   am
    32    48    45    1
    33    79    78   ar
    34     6     7    1
    35    72    71    2
    36    71    73   am
    37     7     9   am
    38    63    60    1
    39    45    46    1
    40    18    16   ar
    41    73    74    1
    42    61    60    1
    43    61    62    2
    44    60    59    1
    45    78    80   ar
    46    78    77    1
    47    42    41    1
    48    74    77    1
    49    74    75    1
    50    43    41    1
    51    10    11    1
    52    14    15    1
    53    14    11    1
    54    16    17   ar
    55    16    15    1
    56    46    47    2
    57    46    52   am
    58    76    75    2
    59    41    40    1
    60    13    12    2
    61    11    12    1
    62    52    53    1
    63    52    58    1
    64    12    19   am
    65    54    53    1
    66    54    55    2
    67    53    56    1
    68    40    37    1
    69    58    57    1
    70    37    38    1
    71    37    36    1
    72    19    20    1
    73    56    57    1
    74    39    38    2
    75    22    21    2
    76    34    33    1
    77    21    20    1
    78    21    25   am
    79    20    23    1
    80    25    26    1
    81    26    29    1
    82    26    27    1
    83    32    33    2
    84    32    31    1
    85    33    35    1
    86    29    30    1
    87    28    27    2
    88    30    31    1
    89    23    24    1
