@<TRIPOS>MOLECULE
tmp/6bahB00.pdb
 118 114 0 0 0
SMALL
GASTEIGER

@<TRIPOS>ATOM
      1  N         22.5270   14.8470   13.9050 N.3    39  GLN39      -0.1231
      2  CA        22.9940   16.1670   14.3200 C.3    39  GLN39       0.1698
      3  C         24.2440   15.9920   15.1650 C.2    39  GLN39       0.2593
      4  O         24.2120   15.2770   16.1710 O.2    39  GLN39      -0.2718
      5  CB        21.9020   16.9170   15.1000 C.3    39  GLN39       0.0381
      6  CG        22.2240   18.3880   15.4120 C.3    39  GLN39       0.0905
      7  CD        21.0150   19.1110   15.9710 C.2    39  GLN39       0.2608
      8  OE1       20.1490   18.4870   16.5770 O.2    39  GLN39      -0.2717
      9  NE2       20.9280   20.4200   15.7390 N.am   39  GLN39      -0.0878
     10  N         25.3290   16.6410   14.7610 N.am   40  SER40      -0.1939
     11  CA        26.6330   16.4650   15.3790 C.3    40  SER40       0.2040
     12  C         27.3360   17.8130   15.4580 C.2    40  SER40       0.2485
     13  O         26.9880   18.7450   14.7270 O.2    40  SER40      -0.2729
     14  CB        27.4980   15.4700   14.5880 C.3    40  SER40       0.2129
     15  OG        27.8650   16.0030   13.3190 O.3    40  SER40      -0.2179
     16  N         28.3280   17.9430   16.3450 N.am   41  PRO41      -0.2715
     17  CA        29.1180   19.1840   16.3590 C.3    41  PRO41       0.1536
     18  C         29.7950   19.4740   15.0290 C.2    41  PRO41       0.2599
     19  O         29.8930   20.6380   14.6200 O.2    41  PRO41      -0.2715
     20  CB        30.1450   18.9260   17.4780 C.3    41  PRO41       0.0310
     21  CG        29.5170   17.9030   18.3500 C.3    41  PRO41       0.0237
     22  CD        28.7220   17.0180   17.4260 C.3    41  PRO41       0.0939
     23  N         30.2670   18.4360   14.3380 N.am   42  GLY42      -0.1955
     24  CA        31.0680   18.6630   13.1470 C.3    42  GLY42       0.1869
     25  C         30.2580   19.1810   11.9730 C.2    42  GLY42       0.2309
     26  O         30.6860   20.1040   11.2740 O.2    42  GLY42      -0.2863
     27  N         26.5340   19.6660   12.0520 N.3    44  GLY44      -0.1225
     28  CA        25.2090   20.2120   12.3120 C.3    44  GLY44       0.1811
     29  C         24.1310   19.2130   11.9220 C.2    44  GLY44       0.2280
     30  O         24.3150   18.0010   12.0080 O.2    44  GLY44      -0.2866
     31  N         29.3670    9.7670   15.1250 N.3    91  THR91      -0.1203
     32  CA        28.8490   10.1070   16.4510 C.3    91  THR91       0.1994
     33  C         27.8890   11.2820   16.3430 C.2    91  THR91       0.2618
     34  O         28.2750   12.3490   15.8530 O.2    91  THR91      -0.2717
     35  CB        30.0110   10.4650   17.3740 C.3    91  THR91       0.1784
     36  OG1       30.8260    9.3020   17.5880 O.3    91  THR91      -0.2211
     37  CG2       29.5090   11.0450   18.7020 C.3    91  THR91       0.0376
     38  N         26.6480   11.0940   16.7980 N.am   92  ALA92      -0.1965
     39  CA        25.6020   12.0900   16.5650 C.3    92  ALA92       0.1728
     40  C         24.3060   11.6750   17.2500 C.2    92  ALA92       0.2616
     41  O         24.1080   10.5100   17.5990 O.2    92  ALA92      -0.2715
     42  CB        25.3210   12.2820   15.0600 C.3    92  ALA92       0.0334
     43  N         23.4040   12.6420   17.3890 N.am   93  ILE93      -0.1977
     44  CA        22.0090   12.3250   17.6640 C.3    93  ILE93       0.1596
     45  C         21.3490   11.9410   16.3490 C.2    93  ILE93       0.2287
     46  O         21.4110   12.6940   15.3690 O.2    93  ILE93      -0.2864
     47  CB        21.2880   13.5210   18.3070 C.3    93  ILE93       0.0276
     48  CG1       21.9940   13.9620   19.5910 C.3    93  ILE93       0.0022
     49  CG2       19.8390   13.1620   18.5900 C.3    93  ILE93       0.0022
     50  CD1       21.5720   15.3830   20.0500 C.3    93  ILE93       0.0001
     51  N         17.8870   11.2990   14.4880 N.3    95  TYR95      -0.1241
     52  CA        16.4510   11.4970   14.5140 C.3    95  TYR95       0.1605
     53  C         15.8110   10.7850   13.3410 C.2    95  TYR95       0.2264
     54  O         16.3760   10.7210   12.2460 O.2    95  TYR95      -0.2867
     55  CB        16.0460   12.9690   14.3700 C.3    95  TYR95       0.0534
     56  CG        16.6630   13.9360   15.3260 C.ar   95  TYR95      -0.0201
     57  CD1       16.0380   14.2390   16.5300 C.ar   95  TYR95      -0.0009
     58  CD2       17.8470   14.5860   15.0100 C.ar   95  TYR95      -0.0009
     59  CE1       16.5950   15.1620   17.4100 C.ar   95  TYR95       0.0417
     60  CE2       18.4140   15.5010   15.8840 C.ar   95  TYR95       0.0417
     61  CZ        17.7810   15.7850   17.0780 C.ar   95  TYR95       0.1957
     62  OH        18.3400   16.6950   17.9460 O.3    95  TYR95      -0.2866
     63  N         21.1210    8.9430   20.7330 N.3   115  LEU115     -0.1245
     64  CA        22.5370    9.2920   20.6200 C.3   115  LEU115      0.1561
     65  C         23.3880    8.0680   20.2850 C.2   115  LEU115      0.2260
     66  O         23.2790    7.0330   20.9410 O.2   115  LEU115     -0.2867
     67  CB        23.0280    9.9200   21.9260 C.3   115  LEU115      0.0270
     68  CG        24.5250   10.2330   21.9760 C.3   115  LEU115      0.0019
     69  CD1       24.8440   11.3800   21.0360 C.3   115  LEU115      0.0001
     70  CD2       24.9960   10.5160   23.4180 C.3   115  LEU115      0.0001
     71  N         27.3520    6.9330   19.9790 N.3   117  THR117     -0.1218
     72  CA        28.7050    7.3220   20.3590 C.3   117  THR117      0.1862
     73  C         29.6620    6.2790   19.8030 C.2   117  THR117      0.2287
     74  O         29.6530    5.1250   20.2480 O.2   117  THR117     -0.2866
     75  CB        28.8750    7.4390   21.8800 C.3   117  THR117      0.1770
     76  OG1       27.9190    8.3530   22.4200 O.3   117  THR117     -0.2211
     77  CG2       30.2870    7.9420   22.2090 C.3   117  THR117      0.0375
     78  N         27.6280    9.6310   27.4270 N.3   155  GLU155     -0.1231
     79  CA        26.3180   10.2330   27.5950 C.3   155  GLU155      0.1684
     80  C         25.2580    9.2320   27.1290 C.2   155  GLU155      0.2434
     81  O         25.5500    8.3450   26.3270 O.2   155  GLU155     -0.2733
     82  CB        26.2330   11.5410   26.7980 C.3   155  GLU155      0.0402
     83  CG        26.9750   12.7070   27.4420 C.3   155  GLU155      0.1161
     84  CD        26.2720   13.2120   28.6950 C.2   155  GLU155      0.3649
     85  OE1       25.0230   13.1940   28.7450 O.co2 155  GLU155     -0.2457
     86  OE2       26.9670   13.6210   29.6420 O.co2 155  GLU155     -0.2457
     87  N         24.0050    9.3580   27.6050 N.am  156  PRO156     -0.2729
     88  CA        23.4750   10.4080   28.4700 C.3   156  PRO156      0.1401
     89  C         23.3070    9.9910   29.9240 C.2   156  PRO156      0.2269
     90  O         23.2390    8.8040   30.2520 O.2   156  PRO156     -0.2865
     91  CB        22.1050   10.6730   27.8570 C.3   156  PRO156      0.0296
     92  CG        21.6620    9.2880   27.4450 C.3   156  PRO156      0.0237
     93  CD        22.9190    8.5160   27.0720 C.3   156  PRO156      0.0939
     94  N         24.9150   21.6240   31.8500 N.3   174  PRO174     -0.2102
     95  CA        25.4190   20.7890   30.7490 C.3   174  PRO174      0.1504
     96  C         26.6340   20.0020   31.1930 C.2   174  PRO174      0.2576
     97  O         27.4610   20.4920   31.9660 O.2   174  PRO174     -0.2718
     98  CB        25.7960   21.8080   29.6650 C.3   174  PRO174      0.0282
     99  CG        25.0420   23.0540   30.0040 C.3   174  PRO174      0.0208
    100  CD        24.7900   23.0450   31.4900 C.3   174  PRO174      0.0893
    101  N         26.7330   18.7700   30.6970 N.am  175  CYS175     -0.1971
    102  CA        27.8820   17.9280   30.9960 C.3   175  CYS175      0.1712
    103  C         29.1620   18.5870   30.5030 C.2   175  CYS175      0.2296
    104  O         29.1710   19.2940   29.4890 O.2   175  CYS175     -0.2864
    105  CB        27.7240   16.5570   30.3380 C.3   175  CYS175      0.0983
    106  SG        27.7550   16.6140   28.5210 S.3   175  CYS175     -0.0798
    107  N         32.8920   12.1480   31.6210 N.3   183  TYR183     -0.1241
    108  CA        32.0070   13.2910   31.7710 C.3   183  TYR183      0.1605
    109  C         31.6750   13.5310   33.2380 C.2   183  TYR183      0.2264
    110  O         31.8020   12.6480   34.0920 O.2   183  TYR183     -0.2867
    111  CB        30.7110   13.0960   30.9850 C.3   183  TYR183      0.0534
    112  CG        30.9050   13.1790   29.4980 C.ar  183  TYR183     -0.0201
    113  CD1       30.9110   14.4080   28.8460 C.ar  183  TYR183     -0.0009
    114  CD2       31.0950   12.0260   28.7430 C.ar  183  TYR183     -0.0009
    115  CE1       31.0960   14.4840   27.4710 C.ar  183  TYR183      0.0417
    116  CE2       31.2830   12.0890   27.3770 C.ar  183  TYR183      0.0417
    117  CZ        31.2860   13.3150   26.7460 C.ar  183  TYR183      0.1957
    118  OH        31.4730   13.3680   25.3840 O.3   183  TYR183     -0.2866
@<TRIPOS>BOND
     1    26    25    2
     2    29    30    2
     3    29    28    1
     4    25    24    1
     5    27    28    1
     6    54    53    2
     7    24    23    1
     8    15    14    1
     9    53    52    1
    10     1     2    1
    11     2     5    1
    12     2     3    1
    13    23    18   am
    14    55    52    1
    15    55    56    1
    16    51    52    1
    17    14    11    1
    18    19    18    2
    19    13    12    2
    20    10     3   am
    21    10    11    1
    22    58    56   ar
    23    58    60   ar
    24    18    17    1
    25    42    39    1
    26     5     6    1
    27    31    32    1
    28     3     4    2
    29    56    57   ar
    30    46    45    2
    31    11    12    1
    32     6     7    1
    33    12    16   am
    34     9     7   am
    35    34    33    2
    36    60    61   ar
    37     7     8    2
    38    33    32    1
    39    33    38   am
    40    16    17    1
    41    16    22    1
    42    45    44    1
    43    17    20    1
    44    32    35    1
    45    57    59   ar
    46    39    38    1
    47    39    40    1
    48    61    59   ar
    49    61    62    1
    50    40    43   am
    51    40    41    2
    52    35    36    1
    53    35    37    1
    54    43    44    1
    55    22    21    1
    56    20    21    1
    57    44    47    1
    58    47    49    1
    59    47    48    1
    60    48    50    1
    61    73    74    2
    62    73    72    1
    63    71    72    1
    64    65    64    1
    65    65    66    2
    66    72    75    1
    67    64    63    1
    68    64    67    1
    69    69    68    1
    70    75    77    1
    71    75    76    1
    72    67    68    1
    73    68    70    1
    74   118   117    1
    75    81    80    2
    76   117   116   ar
    77   117   115   ar
    78    82    83    1
    79    82    79    1
    80    93    92    1
    81    93    87    1
    82    80    79    1
    83    80    87   am
    84   116   114   ar
    85    78    79    1
    86    83    84    1
    87    92    91    1
    88   115   113   ar
    89    87    88    1
    90    91    88    1
    91    88    89    1
    92   106   105    1
    93    84    85   ar
    94    84    86   ar
    95   114   112   ar
    96   113   112   ar
    97   104   103    2
    98   112   111    1
    99    98    99    1
   100    98    95    1
   101    89    90    2
   102    99   100    1
   103   105   102    1
   104   103   102    1
   105   101   102    1
   106   101    96   am
   107    95    96    1
   108    95    94    1
   109   111   108    1
   110    96    97    2
   111   100    94    1
   112   107   108    1
   113   108   109    1
   114   109   110    2
