@<TRIPOS>MOLECULE
tmp/6bajC02.pdb
 84 79 0 0 0
SMALL
GASTEIGER

@<TRIPOS>ATOM
      1  N         91.6110  109.2120   60.3970 N.3   440  GLY440     -0.1210
      2  CA        92.1530  110.3910   61.0360 C.3   440  GLY440      0.1956
      3  C         91.0370  111.2720   61.5530 C.2   440  GLY440      0.2611
      4  O         91.2760  112.2340   62.2870 O.2   440  GLY440     -0.2717
      5  N         89.8030  110.9490   61.1670 N.am  441  ALA441     -0.1979
      6  CA        88.6560  111.7100   61.6430 C.3   441  ALA441      0.1597
      7  C         88.3080  111.3280   63.0750 C.2   441  ALA441      0.2287
      8  O         88.2050  112.1900   63.9550 O.2   441  ALA441     -0.2864
      9  CB        87.4610  111.4880   60.7160 C.3   441  ALA441      0.0319
     10  N         90.0660  109.8050   65.2980 N.3   443  VAL443     -0.1231
     11  CA        91.1230  110.1510   66.2410 C.3   443  VAL443      0.1692
     12  C         90.9860  111.6080   66.6770 C.2   443  VAL443      0.2592
     13  O         91.1530  111.9430   67.8610 O.2   443  VAL443     -0.2718
     14  CB        92.4920  109.8570   65.6090 C.3   443  VAL443      0.0266
     15  CG1       93.6020  110.1020   66.5970 C.3   443  VAL443      0.0020
     16  CG2       92.5300  108.4360   65.1080 C.3   443  VAL443      0.0020
     17  N         90.6290  112.4870   65.7380 N.am  444  GLY444     -0.1957
     18  CA        90.3130  113.8560   66.0980 C.3   444  GLY444      0.1869
     19  C         89.0740  113.9700   66.9600 C.2   444  GLY444      0.2309
     20  O         89.0030  114.8410   67.8280 O.2   444  GLY444     -0.2863
     21  N         90.2430  113.1950   70.4360 N.3   447  MET447     -0.1230
     22  CA        90.9380  114.3120   71.0750 C.3   447  MET447      0.1702
     23  C         89.9970  115.4660   71.4160 C.2   447  MET447      0.2592
     24  O         90.2020  116.1440   72.4280 O.2   447  MET447     -0.2718
     25  CB        92.0960  114.8210   70.2220 C.3   447  MET447      0.0401
     26  CG        93.4410  114.1790   70.5240 C.3   447  MET447      0.0596
     27  SD        93.8190  112.6780   69.6200 S.3   447  MET447     -0.1393
     28  CE        94.3360  113.4060   68.0710 C.3   447  MET447      0.0692
     29  N         88.9700  115.7240   70.5960 N.am  448  VAL448     -0.1980
     30  CA        88.0830  116.8400   70.9340 C.3   448  VAL448      0.1595
     31  C         87.1200  116.4520   72.0500 C.2   448  VAL448      0.2287
     32  O         86.6170  117.3240   72.7670 O.2   448  VAL448     -0.2864
     33  CB        87.3050  117.3830   69.7130 C.3   448  VAL448      0.0276
     34  CG1       88.2240  117.9030   68.6340 C.3   448  VAL448      0.0022
     35  CG2       86.3780  116.3550   69.1480 C.3   448  VAL448      0.0022
     36  N         90.4640  123.1300   70.5420 N.3   848  CYS848     -0.1235
     37  CA        90.6570  121.8330   69.9140 C.3   848  CYS848      0.1677
     38  C         89.7980  121.6710   68.6610 C.2   848  CYS848      0.2270
     39  O         90.2390  121.0410   67.6920 O.2   848  CYS848     -0.2867
     40  CB        90.3620  120.7480   70.9420 C.3   848  CYS848      0.0956
     41  SG        90.9950  119.1350   70.5390 S.3   848  CYS848     -0.0801
     42  N         91.5420  123.5990   66.0390 N.3   851  ALA851     -0.1231
     43  CA        92.6360  122.7500   65.5970 C.3   851  ALA851      0.1694
     44  C         92.1650  121.7050   64.5990 C.2   851  ALA851      0.2592
     45  O         92.8850  121.3920   63.6450 O.2   851  ALA851     -0.2718
     46  CB        93.2670  122.0730   66.8050 C.3   851  ALA851      0.0304
     47  N         90.9730  121.1470   64.8140 N.am  852  LEU852     -0.1966
     48  CA        90.4480  120.1240   63.9130 C.3   852  LEU852      0.1728
     49  C         90.0510  120.6990   62.5560 C.2   852  LEU852      0.2616
     50  O         90.2660  120.0560   61.5230 O.2   852  LEU852     -0.2715
     51  CB        89.2570  119.4220   64.5630 C.3   852  LEU852      0.0311
     52  CG        88.5820  118.3000   63.7760 C.3   852  LEU852      0.0022
     53  CD1       89.5600  117.1910   63.5040 C.3   852  LEU852      0.0001
     54  CD2       87.3830  117.7670   64.5310 C.3   852  LEU852      0.0001
     55  N         89.4870  121.9060   62.5260 N.am  853  TYR853     -0.1960
     56  CA        88.9130  122.4260   61.2890 C.3   853  TYR853      0.1771
     57  C         89.7450  123.5040   60.6070 C.2   853  TYR853      0.2619
     58  O         89.5520  123.7260   59.4060 O.2   853  TYR853     -0.2715
     59  CB        87.5050  122.9640   61.5600 C.3   853  TYR853      0.0574
     60  CG        86.5080  121.8550   61.7580 C.ar  853  TYR853     -0.0198
     61  CD1       86.7450  120.5970   61.2240 C.ar  853  TYR853     -0.0009
     62  CD2       85.3630  122.0410   62.5180 C.ar  853  TYR853     -0.0009
     63  CE1       85.8610  119.5720   61.4020 C.ar  853  TYR853      0.0417
     64  CE2       84.4690  121.0090   62.7080 C.ar  853  TYR853      0.0417
     65  CZ        84.7290  119.7760   62.1430 C.ar  853  TYR853      0.1957
     66  OH        83.8700  118.7210   62.3040 O.3   853  TYR853     -0.2866
     67  N         90.6310  124.1800   61.3490 N.am  854  GLU854     -0.1977
     68  CA        91.6070  125.1470   60.8230 C.3   854  GLU854      0.1602
     69  C         90.9330  126.3330   60.1370 C.2   854  GLU854      0.2287
     70  O         91.3300  126.7580   59.0500 O.2   854  GLU854     -0.2864
     71  CB        92.6090  124.4700   59.8870 C.3   854  GLU854      0.0415
     72  CG        93.4240  123.4040   60.5680 C.3   854  GLU854      0.1163
     73  CD        94.3720  122.7250   59.6240 C.2   854  GLU854      0.3649
     74  OE1       94.3440  123.0530   58.4210 O.co2 854  GLU854     -0.2457
     75  OE2       95.1370  121.8500   60.0800 O.co2 854  GLU854     -0.2457
     76  N         81.2870  117.7020   59.8560 N.3   908  GLU908     -0.1245
     77  CA        82.4430  117.1490   59.1570 C.3   908  GLU908      0.1567
     78  C         82.1670  116.9670   57.6660 C.2   908  GLU908      0.2260
     79  O         82.9780  117.3730   56.8270 O.2   908  GLU908     -0.2867
     80  CB        82.8450  115.8130   59.7850 C.3   908  GLU908      0.0388
     81  CG        84.0530  115.1470   59.1400 C.3   908  GLU908      0.1160
     82  CD        85.3510  115.8780   59.4150 C.2   908  GLU908      0.3649
     83  OE1       85.4520  116.5360   60.4700 O.co2 908  GLU908     -0.2457
     84  OE2       86.2730  115.7960   58.5780 O.co2 908  GLU908     -0.2457
@<TRIPOS>BOND
     1    79    78    2
     2    78    77    1
     3    74    73   ar
     4    84    82   ar
     5    70    69    2
     6    81    82    1
     7    81    80    1
     8    77    80    1
     9    77    76    1
    10    58    57    2
    11    82    83   ar
    12    73    75   ar
    13    73    72    1
    14    71    72    1
    15    71    68    1
    16    69    68    1
    17     1     2    1
    18    57    56    1
    19    57    67   am
    20     9     6    1
    21    68    67    1
    22     2     3    1
    23     5     3   am
    24     5     6    1
    25    61    63   ar
    26    61    60   ar
    27    56    59    1
    28    56    55    1
    29    63    65   ar
    30    50    49    2
    31     3     4    2
    32    59    60    1
    33     6     7    1
    34    60    62   ar
    35    65    66    1
    36    65    64   ar
    37    62    64   ar
    38    55    49   am
    39    49    48    1
    40     7     8    2
    41    53    52    1
    42    45    44    2
    43    52    54    1
    44    52    51    1
    45    48    51    1
    46    48    47    1
    47    44    47   am
    48    44    43    1
    49    16    14    1
    50    10    11    1
    51    43    42    1
    52    43    46    1
    53    14    11    1
    54    14    15    1
    55    17    18    1
    56    17    12   am
    57    18    19    1
    58    11    12    1
    59    12    13    2
    60    19    20    2
    61    39    38    2
    62    28    27    1
    63    34    33    1
    64    38    37    1
    65    35    33    1
    66    27    26    1
    67    33    30    1
    68    37    36    1
    69    37    40    1
    70    25    26    1
    71    25    22    1
    72    21    22    1
    73    41    40    1
    74    29    30    1
    75    29    23   am
    76    30    31    1
    77    22    23    1
    78    23    24    2
    79    31    32    2
