@<TRIPOS>MOLECULE
tmp/6bajC10.pdb
 112 103 0 0 0
SMALL
GASTEIGER

@<TRIPOS>ATOM
      1  N         98.4230  101.1180   61.4550 N.3     1  MET1       -0.1231
      2  CA        97.5940   99.9980   61.9110 C.3     1  MET1        0.1687
      3  C         96.4050   99.5250   61.0410 C.2     1  MET1        0.2434
      4  O         96.3210   98.3230   60.8320 O.2     1  MET1       -0.2733
      5  CB        97.0690  100.2800   63.3240 C.3     1  MET1        0.0400
      6  CG        98.1490  100.2560   64.3750 C.3     1  MET1        0.0596
      7  SD        97.5210  100.4520   66.0420 S.3     1  MET1       -0.1393
      8  CE        97.0030  102.1580   65.9940 C.3     1  MET1        0.0692
      9  N         95.5050  100.3990   60.5440 N.am    2  PRO2       -0.2718
     10  CA        94.2500   99.8750   59.9640 C.3     2  PRO2        0.1535
     11  C         94.4140   99.0590   58.6930 C.2     2  PRO2        0.2598
     12  O         93.4700   98.3660   58.3080 O.2     2  PRO2       -0.2715
     13  CB        93.4300  101.1400   59.6850 C.3     2  PRO2        0.0310
     14  CG        94.0130  102.1700   60.5230 C.3     2  PRO2        0.0237
     15  CD        95.4660  101.8750   60.5300 C.3     2  PRO2        0.0939
     16  N         95.5720   99.1040   58.0370 N.am    3  ASN3       -0.1973
     17  CA        95.8580   98.2140   56.9250 C.3     3  ASN3        0.1688
     18  C         96.6300   96.9760   57.3580 C.2     3  ASN3        0.2292
     19  O         96.6740   95.9990   56.6050 O.2     3  ASN3       -0.2864
     20  CB        96.6510   98.9620   55.8420 C.3     3  ASN3        0.1181
     21  CG        96.4210   98.4080   54.4420 C.2     3  ASN3        0.2629
     22  OD1       96.7430   99.0650   53.4560 O.2     3  ASN3       -0.2716
     23  ND2       95.8530   97.2120   54.3480 N.am    3  ASN3       -0.0877
     24  N         90.2960  107.2300   59.0720 N.3   439  GLN439     -0.1231
     25  CA        91.0470  106.8350   60.2540 C.3   439  GLN439      0.1698
     26  C         91.8260  107.9900   60.8730 C.2   439  GLN439      0.2592
     27  O         92.6270  107.7680   61.7860 O.2   439  GLN439     -0.2718
     28  CB        91.9750  105.6620   59.9130 C.3   439  GLN439      0.0381
     29  CG        92.9870  105.9110   58.7960 C.3   439  GLN439      0.0905
     30  CD        94.3150  106.4360   59.2980 C.2   439  GLN439      0.2608
     31  OE1       94.7260  106.1400   60.4190 O.2   439  GLN439     -0.2717
     32  NE2       94.9990  107.2110   58.4660 N.am  439  GLN439     -0.0878
     33  N         91.6110  109.2120   60.3970 N.am  440  GLY440     -0.1957
     34  CA        92.1530  110.3910   61.0360 C.3   440  GLY440      0.1869
     35  C         91.0370  111.2720   61.5530 C.2   440  GLY440      0.2309
     36  O         91.2760  112.2340   62.2870 O.2   440  GLY440     -0.2863
     37  N         90.0660  109.8050   65.2980 N.3   443  VAL443     -0.1245
     38  CA        91.1230  110.1510   66.2410 C.3   443  VAL443      0.1561
     39  C         90.9860  111.6080   66.6770 C.2   443  VAL443      0.2260
     40  O         91.1530  111.9430   67.8610 O.2   443  VAL443     -0.2867
     41  CB        92.4920  109.8570   65.6090 C.3   443  VAL443      0.0252
     42  CG1       93.6020  110.1020   66.5970 C.3   443  VAL443      0.0019
     43  CG2       92.5300  108.4360   65.1080 C.3   443  VAL443      0.0019
     44  N         88.2470  111.6860   69.1780 N.3   446  ALA446     -0.1231
     45  CA        88.7110  111.2870   70.5040 C.3   446  ALA446      0.1694
     46  C         89.4730  112.4100   71.1940 C.2   446  ALA446      0.2591
     47  O         89.3520  112.5890   72.4110 O.2   446  ALA446     -0.2718
     48  CB        89.5850  110.0420   70.4060 C.3   446  ALA446      0.0304
     49  N         90.2430  113.1950   70.4360 N.am  447  MET447     -0.1979
     50  CA        90.9380  114.3120   71.0750 C.3   447  MET447      0.1605
     51  C         89.9970  115.4660   71.4160 C.2   447  MET447      0.2287
     52  O         90.2020  116.1440   72.4280 O.2   447  MET447     -0.2864
     53  CB        92.0960  114.8210   70.2220 C.3   447  MET447      0.0413
     54  CG        93.4410  114.1790   70.5240 C.3   447  MET447      0.0598
     55  SD        93.8190  112.6780   69.6200 S.3   447  MET447     -0.1393
     56  CE        94.3360  113.4060   68.0710 C.3   447  MET447      0.0692
     57  N         88.1150  114.2230   74.4760 N.3   450  SER450     -0.1217
     58  CA        88.9400  114.0700   75.6640 C.3   450  SER450      0.1889
     59  C         89.2280  115.4080   76.3200 C.2   450  SER450      0.2288
     60  O         89.4510  115.4620   77.5320 O.2   450  SER450     -0.2866
     61  CB        90.2480  113.3740   75.3090 C.3   450  SER450      0.2089
     62  OG        91.0540  114.2010   74.4900 O.3   450  SER450     -0.2183
     63  N         89.7550  116.3330   80.5650 N.3   454  VAL454     -0.1245
     64  CA        91.0510  116.5760   81.2080 C.3   454  VAL454      0.1561
     65  C         91.1600  117.8830   82.0040 C.2   454  VAL454      0.2260
     66  O         92.0260  117.9370   82.8870 O.2   454  VAL454     -0.2867
     67  CB        92.2200  116.4330   80.2120 C.3   454  VAL454      0.0252
     68  CG1       92.4430  114.9760   79.9110 C.3   454  VAL454      0.0019
     69  CG2       91.9650  117.1320   78.9080 C.3   454  VAL454      0.0019
     70  N         88.2790  109.3640   79.9680 N.3   475  VAL475     -0.1245
     71  CA        89.3190  109.6340   78.9740 C.3   475  VAL475      0.1561
     72  C         90.0850  108.3530   78.6270 C.2   475  VAL475      0.2260
     73  O         90.4820  108.1490   77.4700 O.2   475  VAL475     -0.2867
     74  CB        90.2460  110.7830   79.4260 C.3   475  VAL475      0.0252
     75  CG1       91.1500  110.3860   80.5640 C.3   475  VAL475      0.0019
     76  CG2       91.0710  111.2860   78.2680 C.3   475  VAL475      0.0019
     77  N         87.7940  106.3390   76.3270 N.3   478  MET478     -0.1230
     78  CA        87.8010  106.8320   74.9560 C.3   478  MET478      0.1702
     79  C         89.1160  106.5730   74.2400 C.2   478  MET478      0.2592
     80  O         89.1050  106.3640   73.0220 O.2   478  MET478     -0.2718
     81  CB        87.4870  108.3270   74.9000 C.3   478  MET478      0.0401
     82  CG        86.0560  108.6610   75.2410 C.3   478  MET478      0.0596
     83  SD        85.7090  110.3820   74.8950 S.3   478  MET478     -0.1393
     84  CE        86.6630  111.1540   76.1850 C.3   478  MET478      0.0692
     85  N         90.2420  106.5710   74.9600 N.am  479  ALA479     -0.1980
     86  CA        91.5080  106.1810   74.3430 C.3   479  ALA479      0.1597
     87  C         91.4820  104.7180   73.9070 C.2   479  ALA479      0.2287
     88  O         91.8950  104.3820   72.7870 O.2   479  ALA479     -0.2864
     89  CB        92.6620  106.4360   75.3090 C.3   479  ALA479      0.0319
     90  N         89.1200  104.4700   70.8020 N.3   482  VAL482     -0.1231
     91  CA        89.6910  104.9180   69.5360 C.3   482  VAL482      0.1692
     92  C         90.8620  104.0500   69.1040 C.2   482  VAL482      0.2591
     93  O         91.1890  104.0230   67.9120 O.2   482  VAL482     -0.2718
     94  CB        90.0780  106.4080   69.6250 C.3   482  VAL482      0.0266
     95  CG1       91.3240  106.6070   70.4420 C.3   482  VAL482      0.0020
     96  CG2       90.2030  107.0460   68.2490 C.3   482  VAL482      0.0020
     97  N         91.3620  103.2440   70.0360 N.am  483  LEU483     -0.1980
     98  CA        92.4410  102.3080   69.7630 C.3   483  LEU483      0.1596
     99  C         91.8700  100.9650   69.2860 C.2   483  LEU483      0.2287
    100  O         92.5110  100.2600   68.5070 O.2   483  LEU483     -0.2864
    101  CB        93.3030  102.1020   71.0100 C.3   483  LEU483      0.0297
    102  CG        94.2230  100.8800   71.0040 C.3   483  LEU483      0.0022
    103  CD1       95.3320  101.0370   72.0320 C.3   483  LEU483      0.0001
    104  CD2       93.4290   99.6080   71.2560 C.3   483  LEU483      0.0001
    105  N         90.6490  101.0450   65.6490 N.3   486  LEU486     -0.1245
    106  CA        91.7210  100.8660   64.6820 C.3   486  LEU486      0.1561
    107  C         92.1840   99.4170   64.5910 C.2   486  LEU486      0.2260
    108  O         92.4040   98.9100   63.4900 O.2   486  LEU486     -0.2867
    109  CB        92.9010  101.7740   65.0390 C.3   486  LEU486      0.0270
    110  CG        92.6190  103.2730   64.9550 C.3   486  LEU486      0.0019
    111  CD1       93.7590  104.0690   65.5450 C.3   486  LEU486      0.0001
    112  CD2       92.3860  103.6820   63.5240 C.3   486  LEU486      0.0001
@<TRIPOS>BOND
     1    22    21    2
     2    23    21   am
     3    21    20    1
     4    20    17    1
     5    19    18    2
     6    17    18    1
     7    17    16    1
     8    16    11   am
     9    12    11    2
    10    32    30   am
    11    11    10    1
    12    29    30    1
    13    29    28    1
    14    24    25    1
    15    30    31    2
    16    13    10    1
    17    13    14    1
    18    28    25    1
    19    10     9    1
    20    25    26    1
    21    33    26   am
    22    33    34    1
    23    14    15    1
    24    15     9    1
    25     9     3   am
    26     4     3    2
    27    26    27    2
    28    34    35    1
    29     3     2    1
    30     1     2    1
    31    35    36    2
    32     2     5    1
    33     5     6    1
    34   108   107    2
    35   112   110    1
    36     6     7    1
    37   107   106    1
    38   106   109    1
    39   106   105    1
    40   110   109    1
    41   110   111    1
    42    43    41    1
    43    37    38    1
    44    41    38    1
    45    41    42    1
    46     8     7    1
    47    38    39    1
    48    39    40    2
    49    93    92    2
    50    56    55    1
    51    96    94    1
    52   100    99    2
    53    92    91    1
    54    92    97   am
    55    44    45    1
    56    99    98    1
    57    91    94    1
    58    91    90    1
    59    55    54    1
    60    94    95    1
    61    98    97    1
    62    98   101    1
    63    53    54    1
    64    53    50    1
    65    48    45    1
    66    49    50    1
    67    49    46   am
    68    45    46    1
    69   102   101    1
    70   102   104    1
    71   102   103    1
    72    50    51    1
    73    46    47    2
    74    51    52    2
    75    88    87    2
    76    80    79    2
    77    87    86    1
    78    79    78    1
    79    79    85   am
    80    86    85    1
    81    86    89    1
    82    57    58    1
    83    62    61    1
    84    83    82    1
    85    83    84    1
    86    81    78    1
    87    81    82    1
    88    78    77    1
    89    61    58    1
    90    58    59    1
    91    59    60    2
    92    73    72    2
    93    76    74    1
    94    72    71    1
    95    69    67    1
    96    71    74    1
    97    71    70    1
    98    74    75    1
    99    68    67    1
   100    67    64    1
   101    63    64    1
   102    64    65    1
   103    65    66    2
