@<TRIPOS>MOLECULE
tmp/6bajC03.pdb
 113 108 0 0 0
SMALL
GASTEIGER

@<TRIPOS>ATOM
      1  N         93.7070   89.2170   60.7350 N.3     9  PRO9       -0.2102
      2  CA        92.6220   89.3960   61.7140 C.3     9  PRO9        0.1504
      3  C         92.8750   88.6860   63.0310 C.2     9  PRO9        0.2575
      4  O         92.4240   89.1630   64.0840 O.2     9  PRO9       -0.2718
      5  CB        91.4030   88.8240   60.9820 C.3     9  PRO9        0.0282
      6  CG        91.9730   87.8000   60.0750 C.3     9  PRO9        0.0208
      7  CD        93.3180   88.3100   59.6410 C.3     9  PRO9        0.0893
      8  N         93.6030   87.5650   62.9940 N.am   10  ILE10      -0.1980
      9  CA        93.8320   86.7360   64.1750 C.3    10  ILE10       0.1595
     10  C         94.6660   87.4820   65.2030 C.2    10  ILE10       0.2287
     11  O         94.4480   87.3450   66.4110 O.2    10  ILE10      -0.2864
     12  CB        94.4970   85.4120   63.7520 C.3    10  ILE10       0.0276
     13  CG1       93.6650   84.7260   62.6710 C.3    10  ILE10       0.0022
     14  CG2       94.6430   84.4750   64.9270 C.3    10  ILE10       0.0022
     15  CD1       92.2690   84.3810   63.1070 C.3    10  ILE10       0.0001
     16  N         92.2530   89.6660   67.0240 N.3    13  TRP13      -0.1241
     17  CA        91.5180   88.8680   68.0070 C.3    13  TRP13       0.1605
     18  C         92.3640   88.5640   69.2370 C.2    13  TRP13       0.2264
     19  O         91.8500   88.5510   70.3620 O.2    13  TRP13      -0.2867
     20  CB        91.0400   87.5590   67.3900 C.3    13  TRP13       0.0550
     21  CG        89.8930   87.6840   66.4710 C.ar   13  TRP13       0.0003
     22  CD1       89.9260   87.6850   65.1130 C.ar   13  TRP13       0.0946
     23  CD2       88.5220   87.8090   66.8400 C.ar   13  TRP13       0.0152
     24  NE1       88.6580   87.8080   64.6090 N.ar   13  TRP13      -0.2442
     25  CE2       87.7770   87.8860   65.6530 C.ar   13  TRP13       0.0810
     26  CE3       87.8510   87.8660   68.0630 C.ar   13  TRP13       0.0012
     27  CZ2       86.3970   88.0150   65.6510 C.ar   13  TRP13       0.0191
     28  CZ3       86.4840   87.9980   68.0600 C.ar   13  TRP13       0.0001
     29  CH2       85.7690   88.0660   66.8630 C.ar   13  TRP13       0.0015
     30  N         91.4920   89.6150   73.1010 N.3    17  ILE17      -0.1245
     31  CA        91.3540   88.6910   74.2210 C.3    17  ILE17       0.1561
     32  C         92.3790   89.0000   75.3170 C.2    17  ILE17       0.2260
     33  O         92.0970   88.8030   76.5040 O.2    17  ILE17      -0.2867
     34  CB        91.4310   87.2440   73.7020 C.3    17  ILE17       0.0252
     35  CG1       90.2810   86.9910   72.7350 C.3    17  ILE17       0.0019
     36  CG2       91.2790   86.2400   74.8100 C.3    17  ILE17       0.0019
     37  CD1       90.4000   85.7100   71.9750 C.3    17  ILE17       0.0001
     38  N         90.7200   91.7500   77.2330 N.3    20  MET20      -0.1230
     39  CA        89.6470   91.1900   78.0570 C.3    20  MET20       0.1702
     40  C         90.1820   90.4440   79.2790 C.2    20  MET20       0.2592
     41  O         89.5980   90.5210   80.3650 O.2    20  MET20      -0.2718
     42  CB        88.7700   90.2510   77.2350 C.3    20  MET20       0.0401
     43  CG        87.8380   90.9080   76.2510 C.3    20  MET20       0.0596
     44  SD        86.8380   89.6170   75.4930 S.3    20  MET20      -0.1393
     45  CE        85.8280   90.5450   74.3530 C.3    20  MET20       0.0692
     46  N         91.2910   89.7200   79.1270 N.am   21  LEU21      -0.1980
     47  CA        91.8560   88.9960   80.2640 C.3    21  LEU21       0.1596
     48  C         92.5140   89.9310   81.2670 C.2    21  LEU21       0.2287
     49  O         92.4550   89.6790   82.4780 O.2    21  LEU21      -0.2864
     50  CB        92.8540   87.9550   79.7810 C.3    21  LEU21       0.0297
     51  CG        92.3750   86.5220   79.6000 C.3    21  LEU21       0.0022
     52  CD1       91.2860   86.3820   78.5740 C.3    21  LEU21       0.0001
     53  CD2       93.5750   85.7530   79.1540 C.3    21  LEU21       0.0001
     54  N         89.6380   91.1940   83.2010 N.3    24  GLY24      -0.1210
     55  CA        89.1030   90.2170   84.1410 C.3    24  GLY24       0.1956
     56  C         89.9740   90.0490   85.3730 C.2    24  GLY24       0.2611
     57  O         89.4800   90.0380   86.5060 O.2    24  GLY24      -0.2717
     58  N         91.2890   89.9400   85.1700 N.am   25  LEU25      -0.1979
     59  CA        92.2040   89.8770   86.3030 C.3    25  LEU25       0.1596
     60  C         92.2940   91.1980   87.0520 C.2    25  LEU25       0.2287
     61  O         92.7290   91.2080   88.2060 O.2    25  LEU25      -0.2864
     62  CB        93.6000   89.4450   85.8540 C.3    25  LEU25       0.0297
     63  CG        93.9250   87.9520   85.7890 C.3    25  LEU25       0.0022
     64  CD1       93.2410   87.2420   84.6360 C.3    25  LEU25       0.0001
     65  CD2       95.4240   87.7910   85.6950 C.3    25  LEU25       0.0001
     66  N         89.4070   93.0820   87.5110 N.3    27  ILE27      -0.1231
     67  CA        88.1530   93.0510   88.2680 C.3    27  ILE27       0.1692
     68  C         88.2750   92.1290   89.4740 C.2    27  ILE27       0.2592
     69  O         87.8220   92.4620   90.5770 O.2    27  ILE27      -0.2718
     70  CB        86.9860   92.6290   87.3530 C.3    27  ILE27       0.0266
     71  CG1       86.6710   93.7180   86.3410 C.3    27  ILE27       0.0019
     72  CG2       85.7330   92.3210   88.1370 C.3    27  ILE27       0.0020
     73  CD1       85.7030   93.2660   85.2910 C.3    27  ILE27       0.0001
     74  N         88.9330   90.9790   89.2980 N.am   28  LEU28      -0.1966
     75  CA        89.0270   90.0030   90.3830 C.3    28  LEU28       0.1728
     76  C         89.8990   90.4660   91.5460 C.2    28  LEU28       0.2616
     77  O         89.8150   89.8820   92.6300 O.2    28  LEU28      -0.2715
     78  CB        89.5610   88.6670   89.8600 C.3    28  LEU28       0.0311
     79  CG        88.5930   87.5620   89.4250 C.3    28  LEU28       0.0022
     80  CD1       87.8050   87.0640   90.6210 C.3    28  LEU28       0.0001
     81  CD2       87.6460   88.0000   88.3270 C.3    28  LEU28       0.0001
     82  N         90.7340   91.4850   91.3610 N.am   29  LYS29      -0.1977
     83  CA        91.6810   91.9080   92.3930 C.3    29  LYS29       0.1596
     84  C         91.6960   93.4270   92.5370 C.2    29  LYS29       0.2287
     85  O         92.7510   94.0610   92.5360 O.2    29  LYS29      -0.2864
     86  CB        93.0840   91.3820   92.0920 C.3    29  LYS29       0.0298
     87  CG        93.2290   89.8760   92.2500 C.3    29  LYS29       0.0038
     88  CD        94.6080   89.3810   91.8820 C.3    29  LYS29       0.0206
     89  CE        94.7170   87.8900   92.1550 C.3    29  LYS29       0.1093
     90  NZ        93.8010   87.0970   91.2870 N.3    29  LYS29      -0.1314
     91  N         85.8920   96.2160   79.6390 N.3   377  LEU377     -0.1245
     92  CA        86.7710   95.4090   80.4730 C.3   377  LEU377      0.1561
     93  C         88.1410   96.0520   80.6100 C.2   377  LEU377      0.2260
     94  O         88.6630   96.1590   81.7250 O.2   377  LEU377     -0.2867
     95  CB        86.8960   93.9940   79.9210 C.3   377  LEU377      0.0270
     96  CG        85.6620   93.1210   80.1220 C.3   377  LEU377      0.0019
     97  CD1       85.8140   91.8090   79.3930 C.3   377  LEU377      0.0001
     98  CD2       85.4470   92.8740   81.5880 C.3   377  LEU377      0.0001
     99  N         86.0280   90.1280   58.0460 N.3   495  THR495     -0.1203
    100  CA        85.6380   88.7260   58.0790 C.3   495  THR495      0.1994
    101  C         84.1250   88.5510   58.1310 C.2   495  THR495      0.2617
    102  O         83.5750   87.7070   57.4170 O.2   495  THR495     -0.2717
    103  CB        86.2850   88.0230   59.2760 C.3   495  THR495      0.1784
    104  OG1       85.8110   88.6140   60.4900 O.3   495  THR495     -0.2211
    105  CG2       87.7930   88.1550   59.2170 C.3   495  THR495      0.0376
    106  N         83.4360   89.3450   58.9550 N.am  496  MET496     -0.1979
    107  CA        82.0200   89.0940   59.2090 C.3   496  MET496      0.1605
    108  C         81.1400   89.5550   58.0520 C.2   496  MET496      0.2287
    109  O         80.2280   88.8330   57.6360 O.2   496  MET496     -0.2864
    110  CB        81.5940   89.7660   60.5120 C.3   496  MET496      0.0413
    111  CG        82.1900   89.1260   61.7440 C.3   496  MET496      0.0598
    112  SD        81.6100   87.4430   62.0030 S.3   496  MET496     -0.1393
    113  CE        82.6770   86.9240   63.3430 C.3   496  MET496      0.0692
@<TRIPOS>BOND
     1   102   101    2
     2   109   108    2
     3    99   100    1
     4   108   107    1
     5   100   101    1
     6   100   103    1
     7   101   106   am
     8   106   107    1
     9   107   110    1
    10   105   103    1
    11   103   104    1
    12     7     6    1
    13     7     1    1
    14     6     5    1
    15   110   111    1
    16     1     2    1
    17     5     2    1
    18     2     3    1
    19   111   112    1
    20   112   113    1
    21    13    15    1
    22    13    12    1
    23     8     3   am
    24     8     9    1
    25     3     4    2
    26    12     9    1
    27    12    14    1
    28     9    10    1
    29    24    22   ar
    30    24    25   ar
    31    22    21   ar
    32    10    11    2
    33    27    25   ar
    34    27    29   ar
    35    25    23   ar
    36    21    23   ar
    37    21    20    1
    38    23    26   ar
    39    29    28   ar
    40    16    17    1
    41    20    17    1
    42    17    18    1
    43    28    26   ar
    44    18    19    2
    45    37    35    1
    46    35    34    1
    47    30    31    1
    48    34    31    1
    49    34    36    1
    50    31    32    1
    51    45    44    1
    52    32    33    2
    53    44    43    1
    54    43    42    1
    55    38    39    1
    56    42    39    1
    57    39    40    1
    58    52    51    1
    59    46    40   am
    60    46    47    1
    61    53    51    1
    62    40    41    2
    63    97    96    1
    64    51    50    1
    65    91    92    1
    66    50    47    1
    67    95    96    1
    68    95    92    1
    69    96    98    1
    70    47    48    1
    71    92    93    1
    72    93    94    2
    73    48    49    2
    74    54    55    1
    75    55    56    1
    76    64    63    1
    77    58    56   am
    78    58    59    1
    79    73    71    1
    80    56    57    2
    81    65    63    1
    82    63    62    1
    83    62    59    1
    84    59    60    1
    85    71    70    1
    86    60    61    2
    87    70    72    1
    88    70    67    1
    89    66    67    1
    90    67    68    1
    91    81    79    1
    92    74    68   am
    93    74    75    1
    94    79    78    1
    95    79    80    1
    96    68    69    2
    97    78    75    1
    98    75    76    1
    99    90    89    1
   100    82    76   am
   101    82    83    1
   102    76    77    2
   103    88    89    1
   104    88    87    1
   105    86    87    1
   106    86    83    1
   107    83    84    1
   108    85    84    2
