@<TRIPOS>MOLECULE
tmp/6bajC06.pdb
 130 121 0 0 0
SMALL
GASTEIGER

@<TRIPOS>ATOM
      1  N         89.4070   93.0820   87.5110 N.3    27  ILE27      -0.1245
      2  CA        88.1530   93.0510   88.2680 C.3    27  ILE27       0.1561
      3  C         88.2750   92.1290   89.4740 C.2    27  ILE27       0.2260
      4  O         87.8220   92.4620   90.5770 O.2    27  ILE27      -0.2867
      5  CB        86.9860   92.6290   87.3530 C.3    27  ILE27       0.0252
      6  CG1       86.6710   93.7180   86.3410 C.3    27  ILE27       0.0019
      7  CG2       85.7330   92.3210   88.1370 C.3    27  ILE27       0.0019
      8  CD1       85.7030   93.2660   85.2910 C.3    27  ILE27       0.0001
      9  N         86.4370   97.2000   96.0930 N.3    32  VAL32      -0.1245
     10  CA        85.1160   97.7830   95.9010 C.3    32  VAL32       0.1561
     11  C         84.8470   98.7330   97.0580 C.2    32  VAL32       0.2260
     12  O         85.1300   98.4140   98.2170 O.2    32  VAL32      -0.2867
     13  CB        84.0490   96.6780   95.8270 C.3    32  VAL32       0.0252
     14  CG1       82.6860   97.2510   95.4790 C.3    32  VAL32       0.0019
     15  CG2       84.4680   95.5880   94.8670 C.3    32  VAL32       0.0019
     16  N         77.4640   97.3410   98.6480 N.3   334  LYS334     -0.1231
     17  CA        77.5300   96.1830   97.7670 C.3   334  LYS334      0.1693
     18  C         76.2970   96.0840   96.8730 C.2   334  LYS334      0.2591
     19  O         76.4180   95.8060   95.6720 O.2   334  LYS334     -0.2718
     20  CB        77.7110   94.9290   98.6160 C.3   334  LYS334      0.0285
     21  CG        77.8720   93.6410   97.8600 C.3   334  LYS334      0.0035
     22  CD        78.2330   92.5330   98.8320 C.3   334  LYS334      0.0206
     23  CE        77.0620   92.2020   99.7360 C.3   334  LYS334      0.1093
     24  NZ        77.3610   91.0620  100.6420 N.3   334  LYS334     -0.1314
     25  N         75.1110   96.3680   97.4200 N.am  335  ILE335     -0.1980
     26  CA        73.8910   96.3100   96.6150 C.3   335  ILE335      0.1595
     27  C         73.8380   97.4680   95.6200 C.2   335  ILE335      0.2287
     28  O         73.3830   97.2950   94.4830 O.2   335  ILE335     -0.2864
     29  CB        72.6480   96.2540   97.5260 C.3   335  ILE335      0.0276
     30  CG1       72.6550   94.9660   98.3420 C.3   335  ILE335      0.0022
     31  CG2       71.3550   96.2840   96.7360 C.3   335  ILE335      0.0022
     32  CD1       72.6590   93.7140   97.5050 C.3   335  ILE335      0.0001
     33  N         76.5150   98.9740   94.1790 N.3   337  ILE337     -0.1231
     34  CA        77.4530   98.6450   93.1050 C.3   337  ILE337      0.1692
     35  C         76.8890   97.5400   92.2190 C.2   337  ILE337      0.2592
     36  O         77.0230   97.5880   90.9890 O.2   337  ILE337     -0.2718
     37  CB        78.8320   98.2780   93.6860 C.3   337  ILE337      0.0266
     38  CG1       79.4240   99.4790   94.4130 C.3   337  ILE337      0.0019
     39  CG2       79.7990   97.8380   92.6070 C.3   337  ILE337      0.0020
     40  CD1       79.5840  100.6810   93.5440 C.3   337  ILE337      0.0001
     41  N         76.1920   96.5660   92.8170 N.am  338  HIS338     -0.1976
     42  CA        75.5310   95.5340   92.0240 C.3   338  HIS338      0.1656
     43  C         74.4170   96.1040   91.1550 C.2   338  HIS338      0.2291
     44  O         74.2130   95.6390   90.0300 O.2   338  HIS338     -0.2864
     45  CB        74.9760   94.4480   92.9380 C.3   338  HIS338      0.0771
     46  CG        74.2540   93.3600   92.2120 C.ar  338  HIS338      0.0820
     47  ND1       74.9030   92.4250   91.4350 N.ar  338  HIS338     -0.2267
     48  CD2       72.9380   93.0520   92.1500 C.ar  338  HIS338      0.1154
     49  CE1       74.0170   91.5910   90.9220 C.ar  338  HIS338      0.1986
     50  NE2       72.8170   91.9490   91.3400 N.ar  338  HIS338     -0.2212
     51  N         76.1360   97.8610   88.1900 N.3   341  VAL341     -0.1245
     52  CA        76.6380   96.8440   87.2640 C.3   341  VAL341      0.1561
     53  C         75.4840   96.1770   86.5150 C.2   341  VAL341      0.2260
     54  O         75.6020   95.8540   85.3250 O.2   341  VAL341     -0.2867
     55  CB        77.5170   95.8350   88.0320 C.3   341  VAL341      0.0252
     56  CG1       77.8730   94.6220   87.1930 C.3   341  VAL341      0.0019
     57  CG2       78.7930   96.5170   88.4670 C.3   341  VAL341      0.0019
     58  N         74.4540   98.5770   83.8530 N.3   344  LEU344     -0.1231
     59  CA        75.5310   98.6430   82.8700 C.3   344  LEU344      0.1693
     60  C         75.5000   97.4420   81.9300 C.2   344  LEU344      0.2591
     61  O         75.7980   97.5740   80.7390 O.2   344  LEU344     -0.2718
     62  CB        76.8690   98.7590   83.6050 C.3   344  LEU344      0.0284
     63  CG        78.2150   99.0190   82.9290 C.3   344  LEU344      0.0019
     64  CD1       78.8970   97.7510   82.4620 C.3   344  LEU344      0.0001
     65  CD2       78.0070   99.9550   81.7670 C.3   344  LEU344      0.0001
     66  N         75.1520   96.2620   82.4440 N.am  345  VAL345     -0.1980
     67  CA        74.9780   95.1050   81.5660 C.3   345  VAL345      0.1595
     68  C         73.6710   95.2200   80.7770 C.2   345  VAL345      0.2287
     69  O         73.5990   94.7810   79.6220 O.2   345  VAL345     -0.2864
     70  CB        75.0710   93.8080   82.3960 C.3   345  VAL345      0.0276
     71  CG1       74.7640   92.5640   81.5750 C.3   345  VAL345      0.0022
     72  CG2       76.4630   93.6760   82.9770 C.3   345  VAL345      0.0022
     73  N         73.9640   97.1950   77.3840 N.3   348  ILE348     -0.1245
     74  CA        74.5780   96.4970   76.2560 C.3   348  ILE348      0.1561
     75  C         73.5220   95.7310   75.4660 C.2   348  ILE348      0.2260
     76  O         73.5090   95.7450   74.2270 O.2   348  ILE348     -0.2867
     77  CB        75.6910   95.5600   76.7580 C.3   348  ILE348      0.0252
     78  CG1       76.6850   96.3280   77.6270 C.3   348  ILE348      0.0019
     79  CG2       76.4070   94.9060   75.5960 C.3   348  ILE348      0.0019
     80  CD1       77.3620   97.4540   76.9230 C.3   348  ILE348      0.0001
     81  N         82.3610   95.4400   74.9260 N.3   373  PRO373     -0.2116
     82  CA        82.9750   94.7960   76.1030 C.3   373  PRO373      0.1372
     83  C         84.4900   94.7050   76.0750 C.2   373  PRO373      0.2244
     84  O         85.0800   94.3460   77.0990 O.2   373  PRO373     -0.2868
     85  CB        82.3510   93.3970   76.1070 C.3   373  PRO373      0.0268
     86  CG        81.1040   93.5490   75.4210 C.3   373  PRO373      0.0207
     87  CD        81.3690   94.5200   74.3370 C.3   373  PRO373      0.0892
     88  N         85.1860   98.2390   77.9070 N.3   376  LEU376     -0.1231
     89  CA        84.6350   98.2850   79.2580 C.3   376  LEU376      0.1693
     90  C         85.2790   97.2660   80.1820 C.2   376  LEU376      0.2591
     91  O         85.2190   97.4270   81.4020 O.2   376  LEU376     -0.2718
     92  CB        83.1220   98.0810   79.2250 C.3   376  LEU376      0.0284
     93  CG        82.2340   99.3230   79.1190 C.3   376  LEU376      0.0019
     94  CD1       82.3360  100.0200   77.7790 C.3   376  LEU376      0.0001
     95  CD2       80.8000   98.9250   79.3850 C.3   376  LEU376      0.0001
     96  N         85.8920   96.2160   79.6390 N.am  377  LEU377     -0.1980
     97  CA        86.7710   95.4090   80.4730 C.3   377  LEU377      0.1596
     98  C         88.1410   96.0520   80.6100 C.2   377  LEU377      0.2287
     99  O         88.6630   96.1590   81.7250 O.2   377  LEU377     -0.2864
    100  CB        86.8960   93.9940   79.9210 C.3   377  LEU377      0.0297
    101  CG        85.6620   93.1210   80.1220 C.3   377  LEU377      0.0022
    102  CD1       85.8140   91.8090   79.3930 C.3   377  LEU377      0.0001
    103  CD2       85.4470   92.8740   81.5880 C.3   377  LEU377      0.0001
    104  N         89.0340   98.6460   83.2560 N.3   380  PHE380     -0.1241
    105  CA        89.4140   98.1250   84.5660 C.3   380  PHE380      0.1605
    106  C         90.9070   97.8490   84.6540 C.2   380  PHE380      0.2264
    107  O         91.4900   97.9580   85.7360 O.2   380  PHE380     -0.2867
    108  CB        88.6340   96.8580   84.8930 C.3   380  PHE380      0.0534
    109  CG        87.1930   97.1000   85.1770 C.ar  380  PHE380     -0.0203
    110  CD1       86.8030   97.6780   86.3670 C.ar  380  PHE380     -0.0042
    111  CD2       86.2260   96.7240   84.2750 C.ar  380  PHE380     -0.0042
    112  CE1       85.4730   97.8970   86.6350 C.ar  380  PHE380     -0.0003
    113  CE2       84.8910   96.9410   84.5410 C.ar  380  PHE380     -0.0003
    114  CZ        84.5170   97.5290   85.7220 C.ar  380  PHE380     -0.0000
    115  N         86.9200  100.4960   92.4990 N.3   390  ILE390     -0.1245
    116  CA        85.6320  100.5720   91.8260 C.3   390  ILE390      0.1561
    117  C         84.6000  101.0220   92.8430 C.2   390  ILE390      0.2260
    118  O         84.5410  100.5040   93.9630 O.2   390  ILE390     -0.2867
    119  CB        85.2440   99.2580   91.1310 C.3   390  ILE390      0.0252
    120  CG1       85.3000   98.0510   92.0530 C.3   390  ILE390      0.0019
    121  CG2       86.1270   99.0310   89.9490 C.3   390  ILE390      0.0019
    122  CD1       84.7730   96.8170   91.3910 C.3   390  ILE390      0.0001
    123  N         82.0070  103.5400   88.1630 N.3   395  MET395     -0.1245
    124  CA        80.9260  102.8220   87.5010 C.3   395  MET395      0.1570
    125  C         79.9700  103.7740   86.7930 C.2   395  MET395      0.2261
    126  O         79.4130  103.4220   85.7470 O.2   395  MET395     -0.2867
    127  CB        80.1830  101.9530   88.5060 C.3   395  MET395      0.0387
    128  CG        80.9770  100.7740   89.0130 C.3   395  MET395      0.0595
    129  SD        81.3600   99.6070   87.7140 S.3   395  MET395     -0.1393
    130  CE        82.4610   98.5140   88.5930 C.3   395  MET395      0.0692
@<TRIPOS>BOND
     1    76    75    2
     2    87    81    1
     3    87    86    1
     4    81    82    1
     5    86    85    1
     6    75    74    1
     7    79    77    1
     8    83    82    1
     9    83    84    2
    10    82    85    1
    11    74    77    1
    12    74    73    1
    13    77    78    1
    14    80    78    1
    15    94    93    1
    16    88    89    1
    17    93    92    1
    18    93    95    1
    19    92    89    1
    20    89    90    1
    21   102   101    1
    22    69    68    2
    23    96    90   am
    24    96    97    1
    25   100   101    1
    26   100    97    1
    27   101   103    1
    28    90    91    2
    29    97    98    1
    30    98    99    2
    31    61    60    2
    32    68    67    1
    33    67    70    1
    34    67    66    1
    35    71    70    1
    36    65    63    1
    37    60    66   am
    38    60    59    1
    39    70    72    1
    40    64    63    1
    41    59    62    1
    42    59    58    1
    43    63    62    1
    44   104   105    1
    45   111   113   ar
    46   111   109   ar
    47   113   114   ar
    48   105   106    1
    49   105   108    1
    50   106   107    2
    51   108   109    1
    52   109   110   ar
    53     8     6    1
    54    54    53    2
    55   114   112   ar
    56   126   125    2
    57     6     5    1
    58   110   112   ar
    59    53    52    1
    60   125   124    1
    61    56    55    1
    62    52    55    1
    63    52    51    1
    64     5     7    1
    65     5     2    1
    66   124   123    1
    67   124   127    1
    68     1     2    1
    69   129   130    1
    70   129   128    1
    71    55    57    1
    72     2     3    1
    73   127   128    1
    74     3     4    2
    75   121   119    1
    76    44    43    2
    77    49    50   ar
    78    49    47   ar
    79    36    35    2
    80   119   116    1
    81   119   120    1
    82    43    42    1
    83    50    48   ar
    84   122   120    1
    85    47    46   ar
    86   116   115    1
    87   116   117    1
    88    42    41    1
    89    42    45    1
    90    48    46   ar
    91    46    45    1
    92    35    41   am
    93    35    34    1
    94    39    37    1
    95   117   118    2
    96    34    37    1
    97    34    33    1
    98    40    38    1
    99    37    38    1
   100    28    27    2
   101    15    13    1
   102    14    13    1
   103    27    26    1
   104    19    18    2
   105    13    10    1
   106    10     9    1
   107    10    11    1
   108    26    25    1
   109    26    29    1
   110    31    29    1
   111    18    25   am
   112    18    17    1
   113    11    12    2
   114    32    30    1
   115    29    30    1
   116    17    20    1
   117    17    16    1
   118    21    20    1
   119    21    22    1
   120    22    23    1
   121    23    24    1
