@<TRIPOS>MOLECULE
tmp/6bajC04.pdb
 92 86 0 0 0
SMALL
GASTEIGER

@<TRIPOS>ATOM
      1  N         98.4230  101.1180   61.4550 N.3     1  MET1       -0.1245
      2  CA        97.5940   99.9980   61.9110 C.3     1  MET1        0.1570
      3  C         96.4050   99.5250   61.0410 C.2     1  MET1        0.2261
      4  O         96.3210   98.3230   60.8320 O.2     1  MET1       -0.2867
      5  CB        97.0690  100.2800   63.3240 C.3     1  MET1        0.0387
      6  CG        98.1490  100.2560   64.3750 C.3     1  MET1        0.0595
      7  SD        97.5210  100.4520   66.0420 S.3     1  MET1       -0.1393
      8  CE        97.0030  102.1580   65.9940 C.3     1  MET1        0.0692
      9  N         97.2270   96.9900   58.5490 N.3     4  PHE4       -0.1227
     10  CA        97.9860   95.8400   59.0230 C.3     4  PHE4        0.1736
     11  C         97.0720   94.7240   59.5060 C.2     4  PHE4        0.2595
     12  O         97.4300   93.5470   59.4010 O.2     4  PHE4       -0.2718
     13  CB        98.9370   96.2860   60.1350 C.3     4  PHE4        0.0547
     14  CG        99.7670   95.1820   60.7170 C.ar    4  PHE4       -0.0202
     15  CD1      100.8240   94.6410   60.0120 C.ar    4  PHE4       -0.0042
     16  CD2       99.5080   94.7090   61.9910 C.ar    4  PHE4       -0.0042
     17  CE1      101.5920   93.6330   60.5610 C.ar    4  PHE4       -0.0003
     18  CE2      100.2740   93.7030   62.5440 C.ar    4  PHE4       -0.0003
     19  CZ       101.3160   93.1670   61.8290 C.ar    4  PHE4       -0.0000
     20  N         95.8880   95.0670   60.0140 N.am    5  PHE5       -0.1976
     21  CA        95.0210   94.0930   60.6630 C.3     5  PHE5        0.1639
     22  C         93.9350   93.5320   59.7610 C.2     5  PHE5        0.2290
     23  O         93.3350   92.5170   60.1200 O.2     5  PHE5       -0.2864
     24  CB        94.3570   94.7070   61.8970 C.3     5  PHE5        0.0560
     25  CG        95.3110   95.0110   63.0050 C.ar    5  PHE5       -0.0200
     26  CD1       95.6830   94.0400   63.9070 C.ar    5  PHE5       -0.0042
     27  CD2       95.8440   96.2740   63.1400 C.ar    5  PHE5       -0.0042
     28  CE1       96.5560   94.3380   64.9280 C.ar    5  PHE5       -0.0003
     29  CE2       96.7260   96.5670   64.1510 C.ar    5  PHE5       -0.0003
     30  CZ        97.0810   95.5950   65.0440 C.ar    5  PHE5       -0.0000
     31  N         95.5420   90.6250   58.6530 N.3     8  ARG8       -0.1245
     32  CA        95.9050   89.8060   59.8090 C.3     8  ARG8        0.1563
     33  C         94.8300   89.9280   60.8800 C.2     8  ARG8        0.2260
     34  O         95.0020   90.6640   61.8590 O.2     8  ARG8       -0.2867
     35  CB        97.2620   90.2260   60.3740 C.3     8  ARG8        0.0307
     36  CG        98.4360   89.9690   59.4540 C.3     8  ARG8        0.0489
     37  CD        99.7260   90.4630   60.0740 C.3     8  ARG8        0.2205
     38  NE       100.8800   90.2180   59.2160 N.pl3   8  ARG8       -0.0865
     39  CZ       101.3000   91.0580   58.2760 C.cat   8  ARG8        0.5346
     40  NH1      100.6540   92.1970   58.0650 N.pl3   8  ARG8        0.1354
     41  NH2      102.3620   90.7590   57.5420 N.pl3   8  ARG8        0.1354
     42  N         95.5970   88.3180   64.7420 N.3    11  PHE11      -0.1241
     43  CA        96.3980   89.1390   65.6440 C.3    11  PHE11       0.1605
     44  C         95.5300   90.1730   66.3590 C.2    11  PHE11       0.2264
     45  O         95.7340   90.4510   67.5490 O.2    11  PHE11      -0.2867
     46  CB        97.5300   89.7780   64.8360 C.3    11  PHE11       0.0534
     47  CG        98.5440   90.5090   65.6550 C.ar   11  PHE11      -0.0203
     48  CD1       99.3260   89.8430   66.5610 C.ar   11  PHE11      -0.0042
     49  CD2       98.7950   91.8410   65.4330 C.ar   11  PHE11      -0.0042
     50  CE1      100.2780   90.5070   67.3000 C.ar   11  PHE11      -0.0003
     51  CE2       99.7510   92.5160   66.1630 C.ar   11  PHE11      -0.0003
     52  CZ       100.4930   91.8450   67.0960 C.ar   11  PHE11      -0.0000
     53  N         94.8750   90.4570   70.4400 N.3    15  ILE15      -0.1245
     54  CA        94.9840   91.6830   71.2330 C.3    15  ILE15       0.1561
     55  C         93.6780   91.9650   71.9760 C.2    15  ILE15       0.2260
     56  O         93.6910   92.3940   73.1400 O.2    15  ILE15      -0.2867
     57  CB        95.4130   92.8620   70.3410 C.3    15  ILE15       0.0252
     58  CG1       96.7910   92.5980   69.7470 C.3    15  ILE15       0.0019
     59  CG2       95.5060   94.1440   71.1310 C.3    15  ILE15       0.0019
     60  CD1       97.1790   93.5790   68.6770 C.3    15  ILE15       0.0001
     61  N         93.2860   92.1010   76.1000 N.3    19  ILE19      -0.1245
     62  CA        92.6380   93.2170   76.8000 C.3    19  ILE19       0.1561
     63  C         91.5150   92.7170   77.7100 C.2    19  ILE19       0.2260
     64  O         91.3890   93.1610   78.8610 O.2    19  ILE19      -0.2867
     65  CB        92.1360   94.2630   75.7850 C.3    19  ILE19       0.0252
     66  CG1       93.3080   94.9400   75.0800 C.3    19  ILE19       0.0019
     67  CG2       91.2820   95.3210   76.4470 C.3    19  ILE19       0.0019
     68  CD1       94.1930   95.7180   76.0040 C.3    19  ILE19       0.0001
     69  N         90.9720  103.8340   74.7720 N.3   480  LEU480     -0.1245
     70  CA        90.8410  102.4320   74.3880 C.3   480  LEU480      0.1561
     71  C         89.8120  102.2360   73.2860 C.2   480  LEU480      0.2260
     72  O         89.9710  101.3400   72.4530 O.2   480  LEU480     -0.2867
     73  CB        90.4810  101.5720   75.5950 C.3   480  LEU480      0.0270
     74  CG        91.6090  101.3580   76.5890 C.3   480  LEU480      0.0019
     75  CD1       91.1030  100.5960   77.7780 C.3   480  LEU480      0.0001
     76  CD2       92.7200  100.5990   75.9110 C.3   480  LEU480      0.0001
     77  N         91.3620  103.2440   70.0360 N.3   483  LEU483     -0.1245
     78  CA        92.4410  102.3080   69.7630 C.3   483  LEU483      0.1561
     79  C         91.8700  100.9650   69.2860 C.2   483  LEU483      0.2260
     80  O         92.5110  100.2600   68.5070 O.2   483  LEU483     -0.2867
     81  CB        93.3030  102.1020   71.0100 C.3   483  LEU483      0.0270
     82  CG        94.2230  100.8800   71.0040 C.3   483  LEU483      0.0019
     83  CD1       95.3320  101.0370   72.0320 C.3   483  LEU483      0.0001
     84  CD2       93.4290   99.6080   71.2560 C.3   483  LEU483      0.0001
     85  N         92.3300   98.7320   65.7260 N.3   487  ILE487     -0.1245
     86  CA        92.7900   97.3430   65.6880 C.3   487  ILE487      0.1561
     87  C         91.6520   96.4010   65.3000 C.2   487  ILE487      0.2260
     88  O         91.7360   95.6900   64.2940 O.2   487  ILE487     -0.2867
     89  CB        93.4460   96.9300   67.0200 C.3   487  ILE487      0.0252
     90  CG1       94.8550   97.5090   67.1490 C.3   487  ILE487      0.0019
     91  CG2       93.5540   95.4230   67.1400 C.3   487  ILE487      0.0019
     92  CD1       94.9910   98.7050   68.0000 C.3   487  ILE487      0.0001
@<TRIPOS>BOND
     1    41    39    1
     2    40    39    1
     3    39    38    2
     4     9    10    1
     5    31    32    1
     6    10    11    1
     7    10    13    1
     8    38    37    1
     9    12    11    2
    10    36    37    1
    11    36    35    1
    12    11    20   am
    13    22    23    2
    14    22    21    1
    15    32    35    1
    16    32    33    1
    17    15    17   ar
    18    15    14   ar
    19    20    21    1
    20    13    14    1
    21    17    19   ar
    22    21    24    1
    23    14    16   ar
    24     4     3    2
    25    33    34    2
    26     3     2    1
    27     1     2    1
    28    19    18   ar
    29    24    25    1
    30     2     5    1
    31    16    18   ar
    32    25    27   ar
    33    25    26   ar
    34    27    29   ar
    35     5     6    1
    36    26    28   ar
    37    29    30   ar
    38    88    87    2
    39     6     7    1
    40    42    43    1
    41    46    43    1
    42    46    47    1
    43    28    30   ar
    44    87    86    1
    45    49    47   ar
    46    49    51   ar
    47    43    44    1
    48    47    48   ar
    49    86    85    1
    50    86    89    1
    51     8     7    1
    52    51    52   ar
    53    44    45    2
    54    48    50   ar
    55    89    91    1
    56    89    90    1
    57    52    50   ar
    58    90    92    1
    59    80    79    2
    60    60    58    1
    61    79    78    1
    62    58    57    1
    63    78    77    1
    64    78    81    1
    65    57    59    1
    66    57    54    1
    67    53    54    1
    68    82    81    1
    69    82    84    1
    70    82    83    1
    71    54    55    1
    72    55    56    2
    73    72    71    2
    74    71    70    1
    75    70    69    1
    76    70    73    1
    77    66    65    1
    78    66    68    1
    79    73    74    1
    80    65    67    1
    81    65    62    1
    82    76    74    1
    83    61    62    1
    84    74    75    1
    85    62    63    1
    86    63    64    2
