@<TRIPOS>MOLECULE
tmp/6bajC01.pdb
 76 72 0 0 0
SMALL
GASTEIGER

@<TRIPOS>ATOM
      1  N         90.2430  113.1950   70.4360 N.3   447  MET447     -0.1245
      2  CA        90.9380  114.3120   71.0750 C.3   447  MET447      0.1570
      3  C         89.9970  115.4660   71.4160 C.2   447  MET447      0.2261
      4  O         90.2020  116.1440   72.4280 O.2   447  MET447     -0.2867
      5  CB        92.0960  114.8210   70.2220 C.3   447  MET447      0.0387
      6  CG        93.4410  114.1790   70.5240 C.3   447  MET447      0.0595
      7  SD        93.8190  112.6780   69.6200 S.3   447  MET447     -0.1393
      8  CE        94.3360  113.4060   68.0710 C.3   447  MET447      0.0692
      9  N         88.1150  114.2230   74.4760 N.3   450  SER450     -0.1202
     10  CA        88.9400  114.0700   75.6640 C.3   450  SER450      0.2020
     11  C         89.2280  115.4080   76.3200 C.2   450  SER450      0.2618
     12  O         89.4510  115.4620   77.5320 O.2   450  SER450     -0.2717
     13  CB        90.2480  113.3740   75.3090 C.3   450  SER450      0.2103
     14  OG        91.0540  114.2010   74.4900 O.3   450  SER450     -0.2182
     15  N         89.2050  116.4950   75.5480 N.am  451  ALA451     -0.1979
     16  CA        89.5020  117.8170   76.0820 C.3   451  ALA451      0.1597
     17  C         88.3590  118.3980   76.8980 C.2   451  ALA451      0.2287
     18  O         88.5340  119.4540   77.5090 O.2   451  ALA451     -0.2864
     19  CB        89.8610  118.7720   74.9450 C.3   451  ALA451      0.0319
     20  N         89.7550  116.3330   80.5650 N.3   454  VAL454     -0.1231
     21  CA        91.0510  116.5760   81.2080 C.3   454  VAL454      0.1678
     22  C         91.1600  117.8830   82.0040 C.2   454  VAL454      0.2434
     23  O         92.0260  117.9370   82.8870 O.2   454  VAL454     -0.2733
     24  CB        92.2200  116.4330   80.2120 C.3   454  VAL454      0.0265
     25  CG1       92.4430  114.9760   79.9110 C.3   454  VAL454      0.0020
     26  CG2       91.9650  117.1320   78.9080 C.3   454  VAL454      0.0020
     27  N         90.3800  118.9570   81.7820 N.am  455  PRO455     -0.2729
     28  CA        90.3430  120.0100   82.8100 C.3   455  PRO455      0.1401
     29  C         89.6190  119.6230   84.0840 C.2   455  PRO455      0.2269
     30  O         89.8500  120.2650   85.1150 O.2   455  PRO455     -0.2865
     31  CB        89.6210  121.1570   82.1110 C.3   455  PRO455      0.0296
     32  CG        89.9080  120.9760   80.7280 C.3   455  PRO455      0.0237
     33  CD        89.8530  119.5140   80.5200 C.3   455  PRO455      0.0939
     34  N         92.1110  118.0640   87.1030 N.3   458  PHE458     -0.1227
     35  CA        93.1450  118.8300   87.7850 C.3   458  PHE458      0.1736
     36  C         92.6200  119.7150   88.9030 C.2   458  PHE458      0.2595
     37  O         93.4010  120.1010   89.7780 O.2   458  PHE458     -0.2718
     38  CB        93.8950  119.6970   86.7730 C.3   458  PHE458      0.0547
     39  CG        94.7250  118.9110   85.8100 C.ar  458  PHE458     -0.0202
     40  CD1       95.2190  117.6660   86.1520 C.ar  458  PHE458     -0.0042
     41  CD2       94.9560  119.3890   84.5380 C.ar  458  PHE458     -0.0042
     42  CE1       95.9670  116.9370   85.2550 C.ar  458  PHE458     -0.0003
     43  CE2       95.6990  118.6630   83.6350 C.ar  458  PHE458     -0.0003
     44  CZ        96.2030  117.4360   83.9940 C.ar  458  PHE458     -0.0000
     45  N         91.3310  120.0440   88.9030 N.am  459  PHE459     -0.1976
     46  CA        90.7880  120.9750   89.8880 C.3   459  PHE459      0.1639
     47  C         90.5640  120.2160   91.1900 C.2   459  PHE459      0.2290
     48  O         89.4920  119.6770   91.4710 O.2   459  PHE459     -0.2864
     49  CB        89.5250  121.6420   89.3610 C.3   459  PHE459      0.0560
     50  CG        89.7930  122.6700   88.2880 C.ar  459  PHE459     -0.0200
     51  CD1       91.0810  123.1610   88.0810 C.ar  459  PHE459     -0.0042
     52  CD2       88.7690  123.1510   87.4960 C.ar  459  PHE459     -0.0042
     53  CE1       91.3390  124.1030   87.1000 C.ar  459  PHE459     -0.0003
     54  CE2       89.0270  124.0970   86.5150 C.ar  459  PHE459     -0.0003
     55  CZ        90.3100  124.5700   86.3180 C.ar  459  PHE459     -0.0000
     56  N         86.9890  127.1910   81.3520 N.3   840  ILE840     -0.1245
     57  CA        88.2230  126.8220   80.6650 C.3   840  ILE840      0.1561
     58  C         88.0910  125.4890   79.9360 C.2   840  ILE840      0.2260
     59  O         88.8350  125.2530   78.9740 O.2   840  ILE840     -0.2867
     60  CB        89.4340  126.8730   81.6160 C.3   840  ILE840      0.0252
     61  CG1       89.3320  125.8940   82.7800 C.3   840  ILE840      0.0019
     62  CG2       89.6350  128.2820   82.1420 C.3   840  ILE840      0.0019
     63  CD1       90.1800  124.6890   82.6130 C.3   840  ILE840      0.0001
     64  N         89.1050  125.2680   76.0250 N.3   844  VAL844     -0.1245
     65  CA        90.0130  124.2810   75.4470 C.3   844  VAL844      0.1561
     66  C         89.2980  123.4140   74.4060 C.2   844  VAL844      0.2260
     67  O         89.9200  122.9850   73.4260 O.2   844  VAL844     -0.2867
     68  CB        90.6950  123.4530   76.5570 C.3   844  VAL844      0.0252
     69  CG1       89.7340  122.5350   77.2520 C.3   844  VAL844      0.0019
     70  CG2       91.8830  122.6830   76.0130 C.3   844  VAL844      0.0019
     71  N         90.4640  123.1300   70.5420 N.3   848  CYS848     -0.1235
     72  CA        90.6570  121.8330   69.9140 C.3   848  CYS848      0.1677
     73  C         89.7980  121.6710   68.6610 C.2   848  CYS848      0.2270
     74  O         90.2390  121.0410   67.6920 O.2   848  CYS848     -0.2867
     75  CB        90.3620  120.7480   70.9420 C.3   848  CYS848      0.0956
     76  SG        90.9950  119.1350   70.5390 S.3   848  CYS848     -0.0801
@<TRIPOS>BOND
     1    74    73    2
     2     8     7    1
     3    73    72    1
     4     7     6    1
     5    72    71    1
     6    72    75    1
     7     5     6    1
     8     5     2    1
     9     1     2    1
    10    76    75    1
    11     2     3    1
    12     3     4    2
    13    67    66    2
    14    66    65    1
    15     9    10    1
    16    14    13    1
    17    19    16    1
    18    13    10    1
    19    65    64    1
    20    65    68    1
    21    15    16    1
    22    15    11   am
    23    10    11    1
    24    70    68    1
    25    16    17    1
    26    11    12    2
    27    68    69    1
    28    17    18    2
    29    26    24    1
    30    59    58    2
    31    25    24    1
    32    58    57    1
    33    24    21    1
    34    33    32    1
    35    33    27    1
    36    20    21    1
    37    57    56    1
    38    57    60    1
    39    32    31    1
    40    21    22    1
    41    60    62    1
    42    60    61    1
    43    27    22   am
    44    27    28    1
    45    22    23    2
    46    31    28    1
    47    63    61    1
    48    28    29    1
    49    43    44   ar
    50    43    41   ar
    51    44    42   ar
    52    29    30    2
    53    41    39   ar
    54    42    40   ar
    55    39    40   ar
    56    39    38    1
    57    55    54   ar
    58    55    53   ar
    59    54    52   ar
    60    38    35    1
    61    53    51   ar
    62    34    35    1
    63    52    50   ar
    64    35    36    1
    65    51    50   ar
    66    50    49    1
    67    45    36   am
    68    45    46    1
    69    36    37    2
    70    49    46    1
    71    46    47    1
    72    47    48    2
