@<TRIPOS>MOLECULE
tmp/6bajC09.pdb
 66 60 0 0 0
SMALL
GASTEIGER

@<TRIPOS>ATOM
      1  N         93.2860   92.1010   76.1000 N.3    19  ILE19      -0.1245
      2  CA        92.6380   93.2170   76.8000 C.3    19  ILE19       0.1561
      3  C         91.5150   92.7170   77.7100 C.2    19  ILE19       0.2260
      4  O         91.3890   93.1610   78.8610 O.2    19  ILE19      -0.2867
      5  CB        92.1360   94.2630   75.7850 C.3    19  ILE19       0.0252
      6  CG1       93.3080   94.9400   75.0800 C.3    19  ILE19       0.0019
      7  CG2       91.2820   95.3210   76.4470 C.3    19  ILE19       0.0019
      8  CD1       94.1930   95.7180   76.0040 C.3    19  ILE19       0.0001
      9  N         93.1610   90.9990   80.7900 N.3    22  ALA22      -0.1245
     10  CA        93.6910   92.0010   81.7070 C.3    22  ALA22       0.1562
     11  C         92.5680   92.6720   82.4790 C.2    22  ALA22       0.2260
     12  O         92.6950   92.9160   83.6840 O.2    22  ALA22      -0.2867
     13  CB        94.5160   93.0350   80.9440 C.3    22  ALA22       0.0290
     14  N         88.7080   96.5380   79.5010 N.3   378  GLY378     -0.1225
     15  CA        90.0740   97.0360   79.5250 C.3   378  GLY378      0.1811
     16  C         90.2490   98.3080   80.3290 C.2   378  GLY378      0.2280
     17  O         91.3550   98.6050   80.7850 O.2   378  GLY378     -0.2866
     18  N         91.5500   97.5310   83.5260 N.3   381  ALA381     -0.1231
     19  CA        92.9970   97.3600   83.5360 C.3   381  ALA381      0.1694
     20  C         93.7160   98.6910   83.6870 C.2   381  ALA381      0.2591
     21  O         94.8960   98.7150   84.0480 O.2   381  ALA381     -0.2718
     22  CB        93.4560   96.6550   82.2650 C.3   381  ALA381      0.0304
     23  N         93.0340   99.8020   83.4090 N.am  382  VAL382     -0.1980
     24  CA        93.6350  101.1090   83.6390 C.3   382  VAL382      0.1595
     25  C         93.4200  101.5450   85.0820 C.2   382  VAL382      0.2287
     26  O         94.3470  102.0430   85.7320 O.2   382  VAL382     -0.2864
     27  CB        93.0720  102.1260   82.6300 C.3   382  VAL382      0.0276
     28  CG1       93.5870  103.5190   82.9150 C.3   382  VAL382      0.0022
     29  CG2       93.4410  101.7120   81.2240 C.3   382  VAL382      0.0022
     30  N         93.0440   99.6340   87.6380 N.3   384  ALA384     -0.1231
     31  CA        93.9270   98.8400   88.4760 C.3   384  ALA384      0.1694
     32  C         95.3780   99.2630   88.3380 C.2   384  ALA384      0.2592
     33  O         96.1770   98.9780   89.2330 O.2   384  ALA384     -0.2718
     34  CB        93.7860   97.3590   88.1390 C.3   384  ALA384      0.0304
     35  N         95.7380   99.9400   87.2490 N.am  385  ALA385     -0.1966
     36  CA        97.1230  100.3550   87.0720 C.3   385  ALA385      0.1728
     37  C         97.4090  101.6360   87.8430 C.2   385  ALA385      0.2616
     38  O         98.4510  101.7660   88.4920 O.2   385  ALA385     -0.2715
     39  CB        97.4310  100.5370   85.5900 C.3   385  ALA385      0.0334
     40  N         96.4810  102.5930   87.7910 N.am  386  PHE386     -0.1974
     41  CA        96.6740  103.8670   88.4720 C.3   386  PHE386      0.1639
     42  C         96.4810  103.7580   89.9740 C.2   386  PHE386      0.2290
     43  O         96.8440  104.6860   90.7010 O.2   386  PHE386     -0.2864
     44  CB        95.7090  104.9130   87.9200 C.3   386  PHE386      0.0560
     45  CG        96.0270  105.3650   86.5260 C.ar  386  PHE386     -0.0200
     46  CD1       97.2830  105.1700   85.9780 C.ar  386  PHE386     -0.0042
     47  CD2       95.0600  105.9750   85.7570 C.ar  386  PHE386     -0.0042
     48  CE1       97.5610  105.5870   84.6910 C.ar  386  PHE386     -0.0003
     49  CE2       95.3360  106.3930   84.4710 C.ar  386  PHE386     -0.0003
     50  CZ        96.5870  106.1970   83.9390 C.ar  386  PHE386     -0.0000
     51  N         90.9720  103.8340   74.7720 N.3   480  LEU480     -0.1245
     52  CA        90.8410  102.4320   74.3880 C.3   480  LEU480      0.1561
     53  C         89.8120  102.2360   73.2860 C.2   480  LEU480      0.2260
     54  O         89.9710  101.3400   72.4530 O.2   480  LEU480     -0.2867
     55  CB        90.4810  101.5720   75.5950 C.3   480  LEU480      0.0270
     56  CG        91.6090  101.3580   76.5890 C.3   480  LEU480      0.0019
     57  CD1       91.1030  100.5960   77.7780 C.3   480  LEU480      0.0001
     58  CD2       92.7200  100.5990   75.9110 C.3   480  LEU480      0.0001
     59  N         91.3620  103.2440   70.0360 N.3   483  LEU483     -0.1245
     60  CA        92.4410  102.3080   69.7630 C.3   483  LEU483      0.1561
     61  C         91.8700  100.9650   69.2860 C.2   483  LEU483      0.2260
     62  O         92.5110  100.2600   68.5070 O.2   483  LEU483     -0.2867
     63  CB        93.3030  102.1020   71.0100 C.3   483  LEU483      0.0270
     64  CG        94.2230  100.8800   71.0040 C.3   483  LEU483      0.0019
     65  CD1       95.3320  101.0370   72.0320 C.3   483  LEU483      0.0001
     66  CD2       93.4290   99.6080   71.2560 C.3   483  LEU483      0.0001
@<TRIPOS>BOND
     1    62    61    2
     2    61    60    1
     3    60    59    1
     4    60    63    1
     5    64    63    1
     6    64    66    1
     7    64    65    1
     8    54    53    2
     9    53    52    1
    10    52    51    1
    11    52    55    1
    12     6     5    1
    13     6     8    1
    14    55    56    1
    15     5     7    1
    16     5     2    1
    17    58    56    1
    18     1     2    1
    19    56    57    1
    20     2     3    1
    21     3     4    2
    22    14    15    1
    23    15    16    1
    24    16    17    2
    25     9    10    1
    26    13    10    1
    27    29    27    1
    28    10    11    1
    29    22    19    1
    30    11    12    2
    31    27    28    1
    32    27    24    1
    33    23    24    1
    34    23    20   am
    35    18    19    1
    36    19    20    1
    37    24    25    1
    38    20    21    2
    39    50    49   ar
    40    50    48   ar
    41    49    47   ar
    42    48    46   ar
    43    25    26    2
    44    39    36    1
    45    47    45   ar
    46    46    45   ar
    47    45    44    1
    48    36    35    1
    49    36    37    1
    50    35    32   am
    51    30    31    1
    52    40    37   am
    53    40    41    1
    54    37    38    2
    55    44    41    1
    56    34    31    1
    57    32    31    1
    58    32    33    2
    59    41    42    1
    60    42    43    2
