@<TRIPOS>MOLECULE
tmp/6bajC00.pdb
 109 101 0 0 0
SMALL
GASTEIGER

@<TRIPOS>ATOM
      1  N         93.0340   99.8020   83.4090 N.3   382  VAL382     -0.1245
      2  CA        93.6350  101.1090   83.6390 C.3   382  VAL382      0.1561
      3  C         93.4200  101.5450   85.0820 C.2   382  VAL382      0.2260
      4  O         94.3470  102.0430   85.7320 O.2   382  VAL382     -0.2867
      5  CB        93.0720  102.1260   82.6300 C.3   382  VAL382      0.0252
      6  CG1       93.5870  103.5190   82.9150 C.3   382  VAL382      0.0019
      7  CG2       93.4410  101.7120   81.2240 C.3   382  VAL382      0.0019
      8  N         96.4810  102.5930   87.7910 N.3   386  PHE386     -0.1241
      9  CA        96.6740  103.8670   88.4720 C.3   386  PHE386      0.1605
     10  C         96.4810  103.7580   89.9740 C.2   386  PHE386      0.2264
     11  O         96.8440  104.6860   90.7010 O.2   386  PHE386     -0.2867
     12  CB        95.7090  104.9130   87.9200 C.3   386  PHE386      0.0534
     13  CG        96.0270  105.3650   86.5260 C.ar  386  PHE386     -0.0203
     14  CD1       97.2830  105.1700   85.9780 C.ar  386  PHE386     -0.0042
     15  CD2       95.0600  105.9750   85.7570 C.ar  386  PHE386     -0.0042
     16  CE1       97.5610  105.5870   84.6910 C.ar  386  PHE386     -0.0003
     17  CE2       95.3360  106.3930   84.4710 C.ar  386  PHE386     -0.0003
     18  CZ        96.5870  106.1970   83.9390 C.ar  386  PHE386     -0.0000
     19  N         93.3370  103.0760   91.4340 N.3   388  PHE388     -0.1241
     20  CA        91.9870  103.4590   91.8150 C.3   388  PHE388      0.1605
     21  C         91.2540  102.2390   92.3610 C.2   388  PHE388      0.2264
     22  O         91.8100  101.1470   92.4930 O.2   388  PHE388     -0.2867
     23  CB        91.2390  104.0640   90.6300 C.3   388  PHE388      0.0534
     24  CG        91.7200  105.4250   90.2240 C.ar  388  PHE388     -0.0203
     25  CD1       92.4910  106.1980   91.0730 C.ar  388  PHE388     -0.0042
     26  CD2       91.4010  105.9270   88.9810 C.ar  388  PHE388     -0.0042
     27  CE1       92.9290  107.4450   90.6840 C.ar  388  PHE388     -0.0003
     28  CE2       91.8350  107.1660   88.5900 C.ar  388  PHE388     -0.0003
     29  CZ        92.5990  107.9270   89.4410 C.ar  388  PHE388     -0.0000
     30  N         89.7550  116.3330   80.5650 N.3   454  VAL454     -0.1245
     31  CA        91.0510  116.5760   81.2080 C.3   454  VAL454      0.1561
     32  C         91.1600  117.8830   82.0040 C.2   454  VAL454      0.2260
     33  O         92.0260  117.9370   82.8870 O.2   454  VAL454     -0.2867
     34  CB        92.2200  116.4330   80.2120 C.3   454  VAL454      0.0252
     35  CG1       92.4430  114.9760   79.9110 C.3   454  VAL454      0.0019
     36  CG2       91.9650  117.1320   78.9080 C.3   454  VAL454      0.0019
     37  N         90.1010  116.7620   85.6580 N.3   457  ALA457     -0.1231
     38  CA        91.0260  115.9560   86.4470 C.3   457  ALA457      0.1694
     39  C         91.9380  116.7690   87.3540 C.2   457  ALA457      0.2592
     40  O         92.4890  116.2070   88.3030 O.2   457  ALA457     -0.2718
     41  CB        91.8910  115.1010   85.5230 C.3   457  ALA457      0.0304
     42  N         92.1110  118.0640   87.1030 N.am  458  PHE458     -0.1976
     43  CA        93.1450  118.8300   87.7850 C.3   458  PHE458      0.1639
     44  C         92.6200  119.7150   88.9030 C.2   458  PHE458      0.2290
     45  O         93.4010  120.1010   89.7780 O.2   458  PHE458     -0.2864
     46  CB        93.8950  119.6970   86.7730 C.3   458  PHE458      0.0560
     47  CG        94.7250  118.9110   85.8100 C.ar  458  PHE458     -0.0200
     48  CD1       95.2190  117.6660   86.1520 C.ar  458  PHE458     -0.0042
     49  CD2       94.9560  119.3890   84.5380 C.ar  458  PHE458     -0.0042
     50  CE1       95.9670  116.9370   85.2550 C.ar  458  PHE458     -0.0003
     51  CE2       95.6990  118.6630   83.6350 C.ar  458  PHE458     -0.0003
     52  CZ        96.2030  117.4360   83.9940 C.ar  458  PHE458     -0.0000
     53  N         91.6190  120.1940   92.0020 N.3   460  GLY460     -0.1225
     54  CA        91.6650  119.3940   93.2090 C.3   460  GLY460      0.1811
     55  C         91.0140  120.0450   94.4080 C.2   460  GLY460      0.2280
     56  O         90.1270  120.8970   94.2880 O.2   460  GLY460     -0.2866
     57  N         88.6380  113.1200   89.7400 N.3   468  ARG468     -0.1245
     58  CA        89.7170  112.4020   89.0620 C.3   468  ARG468      0.1563
     59  C         89.2770  111.0130   88.6240 C.2   468  ARG468      0.2260
     60  O         89.6470  110.5650   87.5340 O.2   468  ARG468     -0.2867
     61  CB        90.9510  112.3020   89.9600 C.3   468  ARG468      0.0307
     62  CG        91.6820  113.6130   90.1640 C.3   468  ARG468      0.0489
     63  CD        92.9970  113.4390   90.9160 C.3   468  ARG468      0.2205
     64  NE        92.8080  113.0710   92.3150 N.pl3 468  ARG468     -0.0865
     65  CZ        93.2080  111.9200   92.8450 C.cat 468  ARG468      0.5346
     66  NH1       93.8300  111.0230   92.0950 N.pl3 468  ARG468      0.1354
     67  NH2       92.9930  111.6680   94.1280 N.pl3 468  ARG468      0.1354
     68  N         89.4060  110.3460   84.6090 N.3   472  ILE472     -0.1245
     69  CA        90.3270  109.3100   84.1500 C.3   472  ILE472      0.1561
     70  C         89.5670  108.1430   83.5320 C.2   472  ILE472      0.2260
     71  O         89.9760  107.6090   82.4900 O.2   472  ILE472     -0.2867
     72  CB        91.2360  108.8630   85.3120 C.3   472  ILE472      0.0252
     73  CG1       92.2220  109.9720   85.6760 C.3   472  ILE472      0.0019
     74  CG2       91.9730  107.5920   84.9870 C.3   472  ILE472      0.0019
     75  CD1       93.1500  110.3350   84.5600 C.3   472  ILE472      0.0001
     76  N         88.2790  109.3640   79.9680 N.3   475  VAL475     -0.1231
     77  CA        89.3190  109.6340   78.9740 C.3   475  VAL475      0.1692
     78  C         90.0850  108.3530   78.6270 C.2   475  VAL475      0.2592
     79  O         90.4820  108.1490   77.4700 O.2   475  VAL475     -0.2718
     80  CB        90.2460  110.7830   79.4260 C.3   475  VAL475      0.0266
     81  CG1       91.1500  110.3860   80.5640 C.3   475  VAL475      0.0020
     82  CG2       91.0710  111.2860   78.2680 C.3   475  VAL475      0.0020
     83  N         90.1910  107.4090   79.5710 N.am  476  SER476     -0.1952
     84  CA        90.7920  106.1260   79.2450 C.3   476  SER476      0.1924
     85  C         89.8440  105.2230   78.4710 C.2   476  SER476      0.2314
     86  O         90.2970  104.5040   77.5710 O.2   476  SER476     -0.2863
     87  CB        91.2630  105.4300   80.5180 C.3   476  SER476      0.2116
     88  OG        90.1690  105.1360   81.3600 O.3   476  SER476     -0.2180
     89  N         90.2420  106.5710   74.9600 N.3   479  ALA479     -0.1231
     90  CA        91.5080  106.1810   74.3430 C.3   479  ALA479      0.1694
     91  C         91.4820  104.7180   73.9070 C.2   479  ALA479      0.2591
     92  O         91.8950  104.3820   72.7870 O.2   479  ALA479     -0.2718
     93  CB        92.6620  106.4360   75.3090 C.3   479  ALA479      0.0304
     94  N         90.9720  103.8340   74.7720 N.am  480  LEU480     -0.1980
     95  CA        90.8410  102.4320   74.3880 C.3   480  LEU480      0.1596
     96  C         89.8120  102.2360   73.2860 C.2   480  LEU480      0.2287
     97  O         89.9710  101.3400   72.4530 O.2   480  LEU480     -0.2864
     98  CB        90.4810  101.5720   75.5950 C.3   480  LEU480      0.0297
     99  CG        91.6090  101.3580   76.5890 C.3   480  LEU480      0.0022
    100  CD1       91.1030  100.5960   77.7780 C.3   480  LEU480      0.0001
    101  CD2       92.7200  100.5990   75.9110 C.3   480  LEU480      0.0001
    102  N         91.3620  103.2440   70.0360 N.3   483  LEU483     -0.1245
    103  CA        92.4410  102.3080   69.7630 C.3   483  LEU483      0.1561
    104  C         91.8700  100.9650   69.2860 C.2   483  LEU483      0.2260
    105  O         92.5110  100.2600   68.5070 O.2   483  LEU483     -0.2867
    106  CB        93.3030  102.1020   71.0100 C.3   483  LEU483      0.0270
    107  CG        94.2230  100.8800   71.0040 C.3   483  LEU483      0.0019
    108  CD1       95.3320  101.0370   72.0320 C.3   483  LEU483      0.0001
    109  CD2       93.4290   99.6080   71.2560 C.3   483  LEU483      0.0001
@<TRIPOS>BOND
     1   105   104    2
     2   104   103    1
     3   103   102    1
     4   103   106    1
     5   107   106    1
     6   107   109    1
     7   107   108    1
     8    97    96    2
     9    92    91    2
    10    96    95    1
    11    91    90    1
    12    91    94   am
    13    90    89    1
    14    90    93    1
    15    95    94    1
    16    95    98    1
    17    98    99    1
    18   101    99    1
    19    99   100    1
    20    79    78    2
    21    86    85    2
    22    82    80    1
    23    85    84    1
    24    78    77    1
    25    78    83   am
    26    36    34    1
    27    77    80    1
    28    77    76    1
    29    84    83    1
    30    84    87    1
    31    80    81    1
    32    35    34    1
    33    34    31    1
    34    87    88    1
    35    30    31    1
    36    31    32    1
    37     7     5    1
    38    32    33    2
    39    71    70    2
    40     5     6    1
    41     5     2    1
    42     1     2    1
    43    70    69    1
    44    51    52   ar
    45    51    49   ar
    46     2     3    1
    47    18    17   ar
    48    18    16   ar
    49    52    50   ar
    50    69    68    1
    51    69    72    1
    52    17    15   ar
    53    49    47   ar
    54    75    73    1
    55    16    14   ar
    56    74    72    1
    57     3     4    2
    58    50    48   ar
    59    72    73    1
    60    41    38    1
    61    37    38    1
    62    15    13   ar
    63    47    48   ar
    64    47    46    1
    65    14    13   ar
    66    38    39    1
    67    13    12    1
    68    46    43    1
    69    42    39   am
    70    42    43    1
    71    39    40    2
    72    60    59    2
    73    43    44    1
    74     8     9    1
    75    12     9    1
    76     9    10    1
    77    28    26   ar
    78    28    29   ar
    79    59    58    1
    80    44    45    2
    81    26    24   ar
    82    58    57    1
    83    58    61    1
    84    29    27   ar
    85    61    62    1
    86    10    11    2
    87    62    63    1
    88    24    23    1
    89    24    25   ar
    90    23    20    1
    91    27    25   ar
    92    63    64    1
    93    19    20    1
    94    20    21    1
    95    53    54    1
    96    66    65    1
    97    64    65    2
    98    21    22    2
    99    65    67    1
   100    54    55    1
   101    56    55    2
