@<TRIPOS>MOLECULE
tmp/6bajC08.pdb
 99 98 0 0 0
SMALL
GASTEIGER

@<TRIPOS>ATOM
      1  N         84.1860  127.1190   82.1520 N.3   839  ALA839     -0.1231
      2  CA        84.7580  128.1840   81.3370 C.3   839  ALA839      0.1694
      3  C         86.0100  127.7130   80.6110 C.2   839  ALA839      0.2591
      4  O         86.0940  127.7900   79.3800 O.2   839  ALA839     -0.2718
      5  CB        85.0670  129.3990   82.2090 C.3   839  ALA839      0.0304
      6  N         86.9890  127.1910   81.3520 N.am  840  ILE840     -0.1980
      7  CA        88.2230  126.8220   80.6650 C.3   840  ILE840      0.1595
      8  C         88.0910  125.4890   79.9360 C.2   840  ILE840      0.2287
      9  O         88.8350  125.2530   78.9740 O.2   840  ILE840     -0.2864
     10  CB        89.4340  126.8730   81.6160 C.3   840  ILE840      0.0276
     11  CG1       89.3320  125.8940   82.7800 C.3   840  ILE840      0.0022
     12  CG2       89.6350  128.2820   82.1420 C.3   840  ILE840      0.0022
     13  CD1       90.1800  124.6890   82.6130 C.3   840  ILE840      0.0001
     14  N         86.7790  126.7810   76.6770 N.3   843  ILE843     -0.1245
     15  CA        87.8960  127.3950   75.9560 C.3   843  ILE843      0.1561
     16  C         88.7640  126.3310   75.2900 C.2   843  ILE843      0.2260
     17  O         89.1050  126.4410   74.1040 O.2   843  ILE843     -0.2867
     18  CB        88.7220  128.2900   76.8990 C.3   843  ILE843      0.0252
     19  CG1       87.9150  129.5170   77.3130 C.3   843  ILE843      0.0019
     20  CG2       90.0240  128.7180   76.2550 C.3   843  ILE843      0.0019
     21  CD1       87.5200  130.4000   76.1570 C.3   843  ILE843      0.0001
     22  N         86.9560  124.6540   72.3930 N.3   846  PHE846     -0.1227
     23  CA        86.9300  125.5320   71.2220 C.3   846  PHE846      0.1736
     24  C         88.2720  125.5460   70.5070 C.2   846  PHE846      0.2595
     25  O         88.3290  125.5410   69.2710 O.2   846  PHE846     -0.2718
     26  CB        86.5470  126.9580   71.6100 C.3   846  PHE846      0.0547
     27  CG        86.6730  127.9400   70.4730 C.ar  846  PHE846     -0.0202
     28  CD1       85.7730  127.9170   69.4230 C.ar  846  PHE846     -0.0042
     29  CD2       87.6870  128.8840   70.4570 C.ar  846  PHE846     -0.0042
     30  CE1       85.8850  128.8100   68.3750 C.ar  846  PHE846     -0.0003
     31  CE2       87.8020  129.7820   69.4130 C.ar  846  PHE846     -0.0003
     32  CZ        86.8980  129.7430   68.3730 C.ar  846  PHE846     -0.0000
     33  N         89.3640  125.5850   71.2750 N.am  847  LEU847     -0.1980
     34  CA        90.6900  125.5540   70.6670 C.3   847  LEU847      0.1596
     35  C         90.9380  124.2310   69.9630 C.2   847  LEU847      0.2287
     36  O         91.4970  124.2030   68.8640 O.2   847  LEU847     -0.2864
     37  CB        91.7570  125.8110   71.7250 C.3   847  LEU847      0.0297
     38  CG        91.7740  127.2340   72.2660 C.3   847  LEU847      0.0022
     39  CD1       92.6600  127.3250   73.4760 C.3   847  LEU847      0.0001
     40  CD2       92.2620  128.1730   71.1900 C.3   847  LEU847      0.0001
     41  N         89.8960  126.8700   60.7760 N.3   855  SER855     -0.1202
     42  CA        89.2100  128.0110   60.1890 C.3   855  SER855      0.2020
     43  C         88.8470  129.1240   61.1580 C.2   855  SER855      0.2619
     44  O         88.4940  130.2090   60.6850 O.2   855  SER855     -0.2717
     45  CB        87.9340  127.5480   59.4800 C.3   855  SER855      0.2103
     46  OG        87.2420  128.6460   58.9130 O.3   855  SER855     -0.2182
     47  N         88.8700  128.8940   62.4740 N.am  856  TRP856     -0.1961
     48  CA        88.4830  129.7980   63.5650 C.3   856  TRP856      0.1771
     49  C         87.0160  130.2270   63.5460 C.2   856  TRP856      0.2620
     50  O         86.6130  131.0010   64.4190 O.2   856  TRP856     -0.2715
     51  CB        89.3140  131.0910   63.6270 C.3   856  TRP856      0.0590
     52  CG        90.7460  130.9200   63.9370 C.ar  856  TRP856      0.0006
     53  CD1       91.7890  131.0570   63.0770 C.ar  856  TRP856      0.0946
     54  CD2       91.3090  130.5630   65.1990 C.ar  856  TRP856      0.0152
     55  NE1       92.9710  130.8290   63.7290 N.ar  856  TRP856     -0.2442
     56  CE2       92.7030  130.5130   65.0340 C.ar  856  TRP856      0.0810
     57  CE3       90.7680  130.2790   66.4540 C.ar  856  TRP856      0.0012
     58  CZ2       93.5640  130.1900   66.0730 C.ar  856  TRP856      0.0191
     59  CZ3       91.6230  129.9610   67.4840 C.ar  856  TRP856      0.0001
     60  CH2       93.0060  129.9190   67.2890 C.ar  856  TRP856      0.0015
     61  N         86.2100  129.7680   62.5990 N.am  857  SER857     -0.1950
     62  CA        84.8320  130.2140   62.4570 C.3   857  SER857      0.1924
     63  C         83.8450  129.0670   62.3840 C.2   857  SER857      0.2314
     64  O         82.7240  129.1950   62.8750 O.2   857  SER857     -0.2863
     65  CB        84.6880  131.0830   61.2050 C.3   857  SER857      0.2116
     66  OG        84.9050  130.3140   60.0370 O.3   857  SER857     -0.2180
     67  N         82.4670  127.8320   65.8220 N.3   860  PHE860     -0.1241
     68  CA        81.2940  128.5480   66.3170 C.3   860  PHE860      0.1605
     69  C         80.0240  127.7660   66.0180 C.2   860  PHE860      0.2264
     70  O         79.1700  127.5970   66.8940 O.2   860  PHE860     -0.2867
     71  CB        81.2230  129.9470   65.7090 C.3   860  PHE860      0.0534
     72  CG        82.2070  130.9190   66.2920 C.ar  860  PHE860     -0.0203
     73  CD1       82.8260  130.6660   67.5040 C.ar  860  PHE860     -0.0042
     74  CD2       82.5030  132.0960   65.6280 C.ar  860  PHE860     -0.0042
     75  CE1       83.7240  131.5700   68.0410 C.ar  860  PHE860     -0.0003
     76  CE2       83.4030  132.9990   66.1580 C.ar  860  PHE860     -0.0003
     77  CZ        84.0140  132.7350   67.3650 C.ar  860  PHE860     -0.0000
     78  N         78.5110  135.4440   57.5650 N.3   993  ARG993     -0.1231
     79  CA        79.1520  136.4730   58.3780 C.3   993  ARG993      0.1694
     80  C         80.6650  136.3030   58.3920 C.2   993  ARG993      0.2592
     81  O         81.4090  137.1850   57.9490 O.2   993  ARG993     -0.2718
     82  CB        78.6030  136.4380   59.8040 C.3   993  ARG993      0.0321
     83  CG        77.1440  136.8260   59.9400 C.3   993  ARG993      0.0489
     84  CD        76.7340  136.8060   61.4020 C.3   993  ARG993      0.2205
     85  NE        75.3160  137.0920   61.5940 N.pl3 993  ARG993     -0.0865
     86  CZ        74.7110  137.0870   62.7770 C.cat 993  ARG993      0.5346
     87  NH1       73.4150  137.3530   62.8630 N.pl3 993  ARG993      0.1354
     88  NH2       75.4050  136.8200   63.8770 N.pl3 993  ARG993      0.1354
     89  N         81.1370  135.1710   58.9020 N.am  994  PHE994     -0.1976
     90  CA        82.5670  134.9460   59.1100 C.3   994  PHE994      0.1639
     91  C         83.1470  134.1110   57.9700 C.2   994  PHE994      0.2290
     92  O         83.6110  132.9880   58.1570 O.2   994  PHE994     -0.2864
     93  CB        82.8020  134.2750   60.4620 C.3   994  PHE994      0.0560
     94  CG        82.4720  135.1460   61.6520 C.ar  994  PHE994     -0.0200
     95  CD1       82.3720  136.5280   61.5310 C.ar  994  PHE994     -0.0042
     96  CD2       82.2500  134.5730   62.8950 C.ar  994  PHE994     -0.0042
     97  CE1       82.0610  137.3150   62.6260 C.ar  994  PHE994     -0.0003
     98  CE2       81.9390  135.3570   63.9930 C.ar  994  PHE994     -0.0003
     99  CZ        81.8460  136.7280   63.8580 C.ar  994  PHE994     -0.0000
@<TRIPOS>BOND
     1    78    79    1
     2    81    80    2
     3    91    92    2
     4    91    90    1
     5    79    80    1
     6    79    82    1
     7    80    89   am
     8    89    90    1
     9    46    45    1
    10    90    93    1
    11    45    42    1
    12    82    83    1
    13    83    84    1
    14    66    65    1
    15    42    41    1
    16    42    43    1
    17    93    94    1
    18    44    43    2
    19    43    47   am
    20    65    62    1
    21    84    85    1
    22    95    94   ar
    23    95    97   ar
    24    85    86    2
    25    94    96   ar
    26    63    62    1
    27    63    64    2
    28    62    61    1
    29    47    48    1
    30    61    49   am
    31    97    99   ar
    32    86    87    1
    33    86    88    1
    34    96    98   ar
    35    53    55   ar
    36    53    52   ar
    37    49    48    1
    38    49    50    2
    39    48    51    1
    40    51    52    1
    41    55    56   ar
    42    99    98   ar
    43    52    54   ar
    44    56    54   ar
    45    56    58   ar
    46    54    57   ar
    47    74    76   ar
    48    74    72   ar
    49    71    72    1
    50    71    68    1
    51    67    68    1
    52    69    68    1
    53    69    70    2
    54    58    60   ar
    55    76    77   ar
    56    72    73   ar
    57    57    59   ar
    58    60    59   ar
    59    77    75   ar
    60    73    75   ar
    61    32    30   ar
    62    32    31   ar
    63    30    28   ar
    64    36    35    2
    65    25    24    2
    66    31    29   ar
    67    28    27   ar
    68    35    34    1
    69    29    27   ar
    70    27    26    1
    71    24    23    1
    72    24    33   am
    73    34    33    1
    74    34    37    1
    75    40    38    1
    76    23    26    1
    77    23    22    1
    78    37    38    1
    79    38    39    1
    80    17    16    2
    81    16    15    1
    82    15    14    1
    83    15    18    1
    84    21    19    1
    85    20    18    1
    86    18    19    1
    87     9     8    2
    88     4     3    2
    89     8     7    1
    90     3     2    1
    91     3     6   am
    92     7     6    1
    93     7    10    1
    94     2     1    1
    95     2     5    1
    96    10    12    1
    97    10    11    1
    98    13    11    1
