@<TRIPOS>MOLECULE
tmp/6balA00.pdb
 103 93 0 0 0
SMALL
GASTEIGER

@<TRIPOS>ATOM
      1  N          3.6550  -18.7260   41.7930 N.3    13  ILE13      -0.1245
      2  CA         2.2610  -18.8850   42.2030 C.3    13  ILE13       0.1561
      3  C          2.0070  -18.0330   43.4370 C.2    13  ILE13       0.2260
      4  O          1.0340  -17.2860   43.5000 O.2    13  ILE13      -0.2867
      5  CB         1.9240  -20.3540   42.5450 C.3    13  ILE13       0.0252
      6  CG1        2.0230  -21.2300   41.2960 C.3    13  ILE13       0.0019
      7  CG2        0.5160  -20.4590   43.1220 C.3    13  ILE13       0.0019
      8  CD1        2.0750  -22.7210   41.5760 C.3    13  ILE13       0.0001
      9  N          8.7060  -26.3180   40.5200 N.3    81  ALA81      -0.1231
     10  CA         7.7750  -26.5680   39.4380 C.3    81  ALA81       0.1694
     11  C          8.4250  -27.4480   38.3800 C.2    81  ALA81       0.2591
     12  O          9.6330  -27.6840   38.4090 O.2    81  ALA81      -0.2718
     13  CB         7.3350  -25.2430   38.8250 C.3    81  ALA81       0.0304
     14  N          7.6100  -27.9240   37.4430 N.am   82  ARG82      -0.1980
     15  CA         8.0900  -28.7750   36.3570 C.3    82  ARG82       0.1597
     16  C          9.0490  -28.0810   35.4050 C.2    82  ARG82       0.2287
     17  O          9.0390  -26.8650   35.2620 O.2    82  ARG82      -0.2864
     18  CB         6.9280  -29.3340   35.5310 C.3    82  ARG82       0.0334
     19  CG         6.1420  -30.4340   36.2120 C.3    82  ARG82       0.0492
     20  CD         5.3110  -31.2110   35.1930 C.3    82  ARG82       0.2205
     21  NE         4.0750  -30.5420   34.7830 N.pl3  82  ARG82      -0.0865
     22  CZ         3.2650  -30.9830   33.8170 C.cat  82  ARG82       0.5346
     23  NH1        2.1440  -30.3240   33.5440 N.pl3  82  ARG82       0.1354
     24  NH2        3.5630  -32.0800   33.1150 N.pl3  82  ARG82       0.1354
     25  N          4.1220  -34.5580   36.5090 N.3    88  ARG88      -0.1245
     26  CA         4.0550  -34.0210   37.8810 C.3    88  ARG88       0.1563
     27  C          4.7330  -34.9220   38.9280 C.2    88  ARG88       0.2260
     28  O          5.2340  -34.4270   39.9300 O.2    88  ARG88      -0.2867
     29  CB         2.6050  -33.7120   38.2810 C.3    88  ARG88       0.0307
     30  CG         1.9520  -32.6160   37.4460 C.3    88  ARG88       0.0489
     31  CD         0.4870  -32.4350   37.8300 C.3    88  ARG88       0.2205
     32  NE        -0.1960  -31.3820   37.0610 N.pl3  88  ARG88      -0.0865
     33  CZ        -0.6630  -31.5170   35.8160 C.cat  88  ARG88       0.5346
     34  NH1       -0.5030  -32.6610   35.1360 N.pl3  88  ARG88       0.1354
     35  NH2       -1.2840  -30.4920   35.2270 N.pl3  88  ARG88       0.1354
     36  N          8.5880  -34.5200   40.2140 N.3    91  LEU91      -0.1245
     37  CA         8.8900  -33.4840   41.2180 C.3    91  LEU91       0.1561
     38  C          8.8880  -34.0390   42.6490 C.2    91  LEU91       0.2260
     39  O          9.2340  -33.3250   43.5970 O.2    91  LEU91      -0.2867
     40  CB         7.8540  -32.3540   41.1490 C.3    91  LEU91       0.0270
     41  CG         7.7560  -31.5490   39.8590 C.3    91  LEU91       0.0019
     42  CD1        6.5960  -30.5710   39.9370 C.3    91  LEU91       0.0001
     43  CD2        9.0670  -30.8230   39.5900 C.3    91  LEU91       0.0001
     44  N          2.8320  -29.6810   43.6990 N.3   120  ASN120     -0.1240
     45  CA         2.7680  -30.9590   42.9670 C.3   120  ASN120      0.1653
     46  C          3.8250  -31.9690   43.4170 C.2   120  ASN120      0.2266
     47  O          4.8680  -31.5590   43.9560 O.2   120  ASN120     -0.2867
     48  CB         2.8840  -30.7110   41.4540 C.3   120  ASN120      0.1155
     49  CG         1.5510  -30.4360   40.8190 C.2   120  ASN120      0.2627
     50  OD1        0.5660  -31.1060   41.1390 O.2   120  ASN120     -0.2716
     51  ND2        1.5030  -29.4850   39.8980 N.am  120  ASN120     -0.0877
     52  N         -7.7730  -25.5770   39.3070 N.3   150  LEU150     -0.1245
     53  CA        -7.2530  -25.1280   38.0010 C.3   150  LEU150      0.1561
     54  C         -7.8230  -25.9790   36.8540 C.2   150  LEU150      0.2260
     55  O         -7.9760  -25.5030   35.7430 O.2   150  LEU150     -0.2867
     56  CB        -5.7170  -25.1450   37.9780 C.3   150  LEU150      0.0270
     57  CG        -5.0150  -24.6730   36.6960 C.3   150  LEU150      0.0019
     58  CD1       -5.5100  -23.3110   36.2260 C.3   150  LEU150      0.0001
     59  CD2       -3.5180  -24.6190   36.9530 C.3   150  LEU150      0.0001
     60  N         -9.8300  -24.3880   33.6700 N.3   154  ARG154     -0.1245
     61  CA        -9.5110  -24.8080   32.3150 C.3   154  ARG154      0.1563
     62  C        -10.7200  -25.3740   31.6090 C.2   154  ARG154      0.2260
     63  O        -10.9940  -25.0140   30.4650 O.2   154  ARG154     -0.2867
     64  CB        -8.3810  -25.8170   32.3420 C.3   154  ARG154      0.0307
     65  CG        -7.0510  -25.1570   32.6090 C.3   154  ARG154      0.0489
     66  CD        -6.0340  -26.1570   33.0910 C.3   154  ARG154      0.2205
     67  NE        -4.6950  -25.5790   33.1170 N.pl3 154  ARG154     -0.0865
     68  CZ        -3.6520  -26.1120   33.7410 C.cat 154  ARG154      0.5346
     69  NH1       -3.7800  -27.2350   34.4390 N.pl3 154  ARG154      0.1354
     70  NH2       -2.4800  -25.4950   33.6910 N.pl3 154  ARG154      0.1354
     71  N         -5.2520  -34.7300   40.1310 N.3   178  HIS178     -0.1241
     72  CA        -4.6130  -33.6000   39.4630 C.3   178  HIS178      0.1621
     73  C         -3.3230  -34.0360   38.7410 C.2   178  HIS178      0.2264
     74  O         -2.2030  -33.7510   39.1870 O.2   178  HIS178     -0.2867
     75  CB        -4.3640  -32.4960   40.5020 C.3   178  HIS178      0.0745
     76  CG        -3.8070  -31.2340   39.9310 C.ar  178  HIS178      0.0817
     77  ND1       -4.4930  -30.4680   39.0120 N.ar  178  HIS178     -0.2268
     78  CD2       -2.6430  -30.5860   40.1710 C.ar  178  HIS178      0.1154
     79  CE1       -3.7590  -29.4170   38.6880 C.ar  178  HIS178      0.1986
     80  NE2       -2.6350  -29.4620   39.3820 N.ar  178  HIS178     -0.2212
     81  N         -1.7120  -28.3870   31.5820 N.3   211  GLY211     -0.1225
     82  CA        -0.4810  -28.0940   32.3370 C.3   211  GLY211      0.1811
     83  C          0.7780  -28.2780   31.5000 C.2   211  GLY211      0.2280
     84  O          1.7470  -27.5370   31.6560 O.2   211  GLY211     -0.2866
     85  N          5.9350  -23.7400   34.7520 N.3   223  SER223     -0.1202
     86  CA         4.5750  -24.2010   34.4950 C.3   223  SER223      0.2020
     87  C          3.5990  -23.0600   34.7640 C.2   223  SER223      0.2618
     88  O          4.0210  -21.9160   34.9260 O.2   223  SER223     -0.2717
     89  CB         4.2910  -25.4010   35.4020 C.3   223  SER223      0.2103
     90  OG         4.4810  -25.0720   36.7670 O.3   223  SER223     -0.2182
     91  N          2.3030  -23.3530   34.8050 N.am  224  ALA224     -0.1979
     92  CA         1.3060  -22.3150   35.0620 C.3   224  ALA224      0.1597
     93  C          1.4600  -21.7130   36.4630 C.2   224  ALA224      0.2287
     94  O          1.5940  -22.4310   37.4470 O.2   224  ALA224     -0.2864
     95  CB        -0.0980  -22.8680   34.8870 C.3   224  ALA224      0.0319
     96  N         -3.0320  -20.5040   37.9920 N.3   228  MET228     -0.1245
     97  CA        -2.9770  -21.3150   39.2040 C.3   228  MET228      0.1570
     98  C         -3.2570  -20.4370   40.4410 C.2   228  MET228      0.2261
     99  O         -3.9310  -20.8680   41.3610 O.2   228  MET228     -0.2867
    100  CB        -1.6090  -21.9830   39.3020 C.3   228  MET228      0.0387
    101  CG        -1.3920  -22.9600   40.4540 C.3   228  MET228      0.0595
    102  SD        -2.4370  -24.4400   40.5070 S.3   228  MET228     -0.1393
    103  CE        -3.8880  -23.8700   41.3630 C.3   228  MET228      0.0692
@<TRIPOS>BOND
     1    63    62    2
     2    83    84    2
     3    83    82    1
     4    81    82    1
     5    62    61    1
     6    61    64    1
     7    61    60    1
     8    64    65    1
     9    65    66    1
    10    66    67    1
    11    24    22    1
    12    67    68    2
    13    23    22    1
    14    70    68    1
    15    68    69    1
    16    22    21    2
    17    86    85    1
    18    86    87    1
    19    86    89    1
    20    87    91   am
    21    87    88    2
    22    21    20    1
    23    91    92    1
    24    95    92    1
    25    92    93    1
    26    34    33    1
    27    20    19    1
    28    35    33    1
    29    17    16    2
    30    89    90    1
    31    16    15    1
    32    18    19    1
    33    18    15    1
    34    55    54    2
    35    33    32    2
    36    58    57    1
    37    15    14    1
    38    93    94    2
    39    25    26    1
    40    57    59    1
    41    57    56    1
    42    54    53    1
    43    32    31    1
    44    14    11   am
    45    30    31    1
    46    30    29    1
    47    26    29    1
    48    26    27    1
    49    56    53    1
    50    96    97    1
    51    53    52    1
    52    11    12    2
    53    11    10    1
    54    79    77   ar
    55    79    80   ar
    56    73    74    2
    57    73    72    1
    58    13    10    1
    59    27    28    2
    60    77    76   ar
    61    97   100    1
    62    97    98    1
    63   100   101    1
    64    80    78   ar
    65    10     9    1
    66    72    71    1
    67    72    75    1
    68    43    41    1
    69    41    42    1
    70    41    40    1
    71    51    49   am
    72    76    78   ar
    73    76    75    1
    74    36    37    1
    75    98    99    2
    76   101   102    1
    77   102   103    1
    78    49    50    2
    79    49    48    1
    80    40    37    1
    81    37    38    1
    82     6     8    1
    83     6     5    1
    84    48    45    1
    85     1     2    1
    86     2     5    1
    87     2     3    1
    88     5     7    1
    89    38    39    2
    90    45    46    1
    91    45    44    1
    92    46    47    2
    93     3     4    2
