@<TRIPOS>MOLECULE
tmp/6barA00.pdb
 97 90 0 0 0
SMALL
GASTEIGER

@<TRIPOS>ATOM
      1  N         30.4270   27.2860   21.8050 N.3    15  ALA15      -0.1245
      2  CA        29.5320   26.5760   22.7190 C.3    15  ALA15       0.1562
      3  C         30.2750   25.5290   23.5460 C.2    15  ALA15       0.2260
      4  O         29.9450   25.3080   24.7170 O.2    15  ALA15      -0.2867
      5  CB        28.3880   25.9270   21.9380 C.3    15  ALA15       0.0290
      6  N         32.3300   27.2990   26.2370 N.3    18  VAL18      -0.1231
      7  CA        31.4050   27.8420   27.2340 C.3    18  VAL18       0.1692
      8  C         30.8720   26.7370   28.1490 C.2    18  VAL18       0.2591
      9  O         30.8080   26.9040   29.3770 O.2    18  VAL18      -0.2718
     10  CB        30.2660   28.6100   26.5300 C.3    18  VAL18       0.0266
     11  CG1       29.1320   28.9310   27.5000 C.3    18  VAL18       0.0020
     12  CG2       30.8010   29.8930   25.9070 C.3    18  VAL18       0.0020
     13  N         30.4850   25.5930   27.5730 N.am   19  ALA19      -0.1980
     14  CA        29.9800   24.4860   28.3830 C.3    19  ALA19       0.1597
     15  C         31.0590   23.9250   29.3010 C.2    19  ALA19       0.2287
     16  O         30.7660   23.4900   30.4220 O.2    19  ALA19      -0.2864
     17  CB        29.4230   23.3860   27.4780 C.3    19  ALA19       0.0319
     18  N         31.2890   26.2830   32.2330 N.3    22  PHE22      -0.1227
     19  CA        30.1880   26.1080   33.1820 C.3    22  PHE22       0.1736
     20  C         30.3280   24.8220   33.9880 C.2    22  PHE22       0.2595
     21  O         30.0220   24.8060   35.1860 O.2    22  PHE22      -0.2718
     22  CB        28.8390   26.1270   32.4680 C.3    22  PHE22       0.0547
     23  CG        28.2360   27.4990   32.3260 C.ar   22  PHE22      -0.0202
     24  CD1       27.3370   27.9840   33.2630 C.ar   22  PHE22      -0.0042
     25  CD2       28.5470   28.2930   31.2360 C.ar   22  PHE22      -0.0042
     26  CE1       26.7680   29.2450   33.1190 C.ar   22  PHE22      -0.0003
     27  CE2       27.9840   29.5520   31.0840 C.ar   22  PHE22      -0.0003
     28  CZ        27.0940   30.0290   32.0300 C.ar   22  PHE22      -0.0000
     29  N         30.7600   23.7240   33.3600 N.am   23  VAL23      -0.1980
     30  CA        30.8920   22.4970   34.1430 C.3    23  VAL23       0.1595
     31  C         32.1050   22.5590   35.0650 C.2    23  VAL23       0.2287
     32  O         32.1760   21.8040   36.0440 O.2    23  VAL23      -0.2864
     33  CB        30.9420   21.2450   33.2420 C.3    23  VAL23       0.0276
     34  CG1       29.6440   21.1090   32.4370 C.3    23  VAL23       0.0022
     35  CG2       32.1640   21.2630   32.3380 C.3    23  VAL23       0.0022
     36  N         31.0640   24.8940   38.2740 N.3    26  GLY26      -0.1210
     37  CA        30.2680   24.1460   39.2270 C.3    26  GLY26       0.1956
     38  C         31.0650   23.2500   40.1520 C.2    26  GLY26       0.2612
     39  O         30.4720   22.6580   41.0600 O.2    26  GLY26      -0.2717
     40  N         32.3760   23.1240   39.9430 N.am   27  SER27      -0.1952
     41  CA        33.2060   22.3250   40.8380 C.3    27  SER27       0.1924
     42  C         34.4270   23.1270   41.2740 C.2    27  SER27       0.2314
     43  O         34.9970   22.8780   42.3430 O.2    27  SER27      -0.2863
     44  CB        33.6240   21.0090   40.1700 C.3    27  SER27       0.2116
     45  OG        34.5600   21.2200   39.1270 O.3    27  SER27      -0.2180
     46  N         32.5870   26.2440   43.7920 N.3    30  PRO30      -0.2116
     47  CA        31.1830   26.5010   43.4690 C.3    30  PRO30       0.1372
     48  C         30.4690   27.2170   44.6090 C.2    30  PRO30       0.2244
     49  O         30.9840   27.3610   45.7190 O.2    30  PRO30      -0.2868
     50  CB        30.6190   25.0960   43.2570 C.3    30  PRO30       0.0268
     51  CG        31.4220   24.2460   44.1950 C.3    30  PRO30       0.0207
     52  CD        32.8030   24.8610   44.2590 C.3    30  PRO30       0.0892
     53  N         26.7520   30.6910   40.6970 N.3    35  LEU35      -0.1245
     54  CA        26.4810   30.1170   39.3800 C.3    35  LEU35       0.1561
     55  C         25.2910   30.7620   38.6850 C.2    35  LEU35       0.2260
     56  O         25.1660   30.6390   37.4630 O.2    35  LEU35      -0.2867
     57  CB        26.2260   28.6050   39.4820 C.3    35  LEU35       0.0270
     58  CG        27.3970   27.6720   39.8040 C.3    35  LEU35       0.0019
     59  CD1       26.9170   26.2380   40.0180 C.3    35  LEU35       0.0001
     60  CD2       28.4510   27.7190   38.7100 C.3    35  LEU35       0.0001
     61  N         25.0150   32.3560   34.8510 N.3    39  SER39      -0.1217
     62  CA        23.9910   31.8150   33.9670 C.3    39  SER39       0.1889
     63  C         23.1550   32.9370   33.3560 C.2    39  SER39       0.2288
     64  O         22.8670   32.9220   32.1500 O.2    39  SER39      -0.2866
     65  CB        23.1200   30.8130   34.7210 C.3    39  SER39       0.2089
     66  OG        23.8460   29.6180   34.9720 O.3    39  SER39      -0.2183
     67  N         25.1320   34.4550   30.6780 N.3    42  LEU42      -0.1245
     68  CA        25.0970   33.6940   29.4290 C.3    42  LEU42       0.1561
     69  C         23.8070   33.9590   28.6730 C.2    42  LEU42       0.2260
     70  O         23.8200   34.1350   27.4490 O.2    42  LEU42      -0.2867
     71  CB        25.2510   32.1920   29.6930 C.3    42  LEU42       0.0270
     72  CG        25.1040   31.2460   28.4820 C.3    42  LEU42       0.0019
     73  CD1       26.2760   31.3470   27.5050 C.3    42  LEU42       0.0001
     74  CD2       24.9150   29.8070   28.9360 C.3    42  LEU42       0.0001
     75  N         23.9710   35.4570   24.8740 N.3    46  LEU46      -0.1245
     76  CA        23.3060   34.8790   23.7120 C.3    46  LEU46       0.1561
     77  C         22.2220   35.8070   23.1880 C.2    46  LEU46       0.2260
     78  O         22.1020   36.0060   21.9770 O.2    46  LEU46      -0.2867
     79  CB        22.7120   33.5140   24.0540 C.3    46  LEU46       0.0270
     80  CG        23.7130   32.4890   24.5840 C.3    46  LEU46       0.0019
     81  CD1       23.0400   31.1480   24.8320 C.3    46  LEU46       0.0001
     82  CD2       24.8870   32.3400   23.6300 C.3    46  LEU46       0.0001
     83  N         38.9340   15.3530   38.9290 N.3   190  PHE190     -0.1227
     84  CA        37.5510   15.2820   38.4340 C.3   190  PHE190      0.1736
     85  C         36.5600   15.8560   39.4530 C.2   190  PHE190      0.2596
     86  O         35.4980   15.2840   39.7140 O.2   190  PHE190     -0.2718
     87  CB        37.1670   13.8430   38.0470 C.3   190  PHE190      0.0547
     88  CG        37.7070   13.3830   36.7010 C.ar  190  PHE190     -0.0202
     89  CD1       36.8540   13.2080   35.6160 C.ar  190  PHE190     -0.0042
     90  CD2       39.0550   13.0990   36.5300 C.ar  190  PHE190     -0.0042
     91  CE1       37.3400   12.7730   34.3770 C.ar  190  PHE190     -0.0003
     92  CE2       39.5460   12.6630   35.2950 C.ar  190  PHE190     -0.0003
     93  CZ        38.6860   12.5010   34.2200 C.ar  190  PHE190     -0.0000
     94  N         36.9080   17.0080   40.0260 N.am  191  GLY191     -0.1957
     95  CA        36.0680   17.6220   41.0390 C.3   191  GLY191      0.1869
     96  C         36.2400   17.0680   42.4340 C.2   191  GLY191      0.2309
     97  O         35.3400   17.2180   43.2680 O.2   191  GLY191     -0.2863
@<TRIPOS>BOND
     1     1     2    1
     2     5     2    1
     3    78    77    2
     4     2     3    1
     5    77    76    1
     6     3     4    2
     7    82    80    1
     8    76    79    1
     9    76    75    1
    10    79    80    1
    11    80    81    1
    12    12    10    1
    13     6     7    1
    14    10     7    1
    15    10    11    1
    16     7     8    1
    17    70    69    2
    18    17    14    1
    19    73    72    1
    20    13     8   am
    21    13    14    1
    22     8     9    2
    23    14    15    1
    24    72    74    1
    25    72    71    1
    26    69    68    1
    27    15    16    2
    28    68    71    1
    29    68    67    1
    30    27    25   ar
    31    27    28   ar
    32    25    23   ar
    33    28    26   ar
    34    64    63    2
    35    18    19    1
    36    23    22    1
    37    23    24   ar
    38    35    33    1
    39    34    33    1
    40    22    19    1
    41    26    24   ar
    42    19    20    1
    43    33    30    1
    44    63    62    1
    45    29    20   am
    46    29    30    1
    47    62    65    1
    48    62    61    1
    49    20    21    2
    50    30    31    1
    51    93    91   ar
    52    93    92   ar
    53    91    89   ar
    54    65    66    1
    55    31    32    2
    56    92    90   ar
    57    89    88   ar
    58    90    88   ar
    59    88    87    1
    60    56    55    2
    61    87    84    1
    62    36    37    1
    63    84    83    1
    64    84    85    1
    65    55    54    1
    66    60    58    1
    67    45    44    1
    68    37    38    1
    69    54    57    1
    70    54    53    1
    71    85    86    2
    72    85    94   am
    73    57    58    1
    74    58    59    1
    75    40    38   am
    76    40    41    1
    77    94    95    1
    78    38    39    2
    79    44    41    1
    80    41    42    1
    81    95    96    1
    82    42    43    2
    83    96    97    2
    84    50    47    1
    85    50    51    1
    86    47    46    1
    87    47    48    1
    88    46    52    1
    89    51    52    1
    90    48    49    2
