@<TRIPOS>MOLECULE
tmp/6barA01.pdb
 152 142 0 0 0
SMALL
GASTEIGER

@<TRIPOS>ATOM
      1  N         24.4970   34.1680   38.6890 N.3    37  ARG37      -0.1245
      2  CA        24.9080   35.4040   38.0310 C.3    37  ARG37       0.1563
      3  C         25.5010   35.1240   36.6590 C.2    37  ARG37       0.2260
      4  O         25.1600   35.7970   35.6800 O.2    37  ARG37      -0.2867
      5  CB        25.9110   36.1570   38.9030 C.3    37  ARG37       0.0307
      6  CG        25.3620   36.5690   40.2560 C.3    37  ARG37       0.0489
      7  CD        26.4340   36.4750   41.3270 C.3    37  ARG37       0.2205
      8  NE        25.9830   36.9780   42.6210 N.pl3  37  ARG37      -0.0865
      9  CZ        26.2980   38.1740   43.1020 C.cat  37  ARG37       0.5346
     10  NH1       27.0650   38.9950   42.3970 N.pl3  37  ARG37       0.1354
     11  NH2       25.8460   38.5480   44.2890 N.pl3  37  ARG37       0.1354
     12  N         22.7850   33.9350   34.1630 N.3    40  VAL40      -0.1231
     13  CA        22.0500   35.0800   33.6310 C.3    40  VAL40       0.1692
     14  C         22.9180   35.8540   32.6480 C.2    40  VAL40       0.2591
     15  O         22.4280   36.3770   31.6390 O.2    40  VAL40      -0.2718
     16  CB        21.5400   35.9760   34.7760 C.3    40  VAL40       0.0266
     17  CG1       20.9460   37.2640   34.2200 C.3    40  VAL40       0.0020
     18  CG2       20.5080   35.2310   35.5960 C.3    40  VAL40       0.0020
     19  N         24.2210   35.9380   32.9210 N.am   41  ALA41      -0.1980
     20  CA        25.1240   36.5500   31.9540 C.3    41  ALA41       0.1597
     21  C         25.1240   35.7890   30.6350 C.2    41  ALA41       0.2287
     22  O         25.1350   36.4030   29.5690 O.2    41  ALA41      -0.2864
     23  CB        26.5370   36.6330   32.5200 C.3    41  ALA41       0.0319
     24  N         21.9240   36.6860   28.8090 N.3    44  LEU44      -0.1245
     25  CA        22.0870   38.0220   28.2420 C.3    44  LEU44       0.1561
     26  C         23.0450   38.0180   27.0600 C.2    44  LEU44       0.2260
     27  O         22.8340   38.7400   26.0830 O.2    44  LEU44      -0.2867
     28  CB        22.5920   38.9880   29.3070 C.3    44  LEU44       0.0270
     29  CG        21.6360   39.2850   30.4430 C.3    44  LEU44       0.0019
     30  CD1       22.3320   40.1770   31.4440 C.3    44  LEU44       0.0001
     31  CD2       20.3880   39.9470   29.8830 C.3    44  LEU44       0.0001
     32  N         21.9910   39.0970   23.4170 N.3    48  LEU48      -0.1245
     33  CA        22.5820   40.2590   22.7630 C.3    48  LEU48       0.1561
     34  C         23.2240   39.8780   21.4380 C.2    48  LEU48       0.2260
     35  O         23.1150   40.6140   20.4490 O.2    48  LEU48      -0.2867
     36  CB        23.6140   40.9080   23.6820 C.3    48  LEU48       0.0270
     37  CG        24.3840   42.0480   23.0270 C.3    48  LEU48       0.0019
     38  CD1       23.4260   43.1700   22.6610 C.3    48  LEU48       0.0001
     39  CD2       25.4830   42.5440   23.9440 C.3    48  LEU48       0.0001
     40  N         22.0630   41.3740   17.8250 N.3    52  LEU52      -0.1245
     41  CA        22.9720   42.0180   16.8850 C.3    52  LEU52       0.1561
     42  C         22.9470   41.3800   15.5030 C.2    52  LEU52       0.2260
     43  O         23.5470   41.9360   14.5750 O.2    52  LEU52      -0.2867
     44  CB        24.3920   42.0130   17.4420 C.3    52  LEU52       0.0270
     45  CG        24.4960   42.8440   18.7150 C.3    52  LEU52       0.0019
     46  CD1       25.7940   42.5510   19.4220 C.3    52  LEU52       0.0001
     47  CD2       24.3690   44.3220   18.3990 C.3    52  LEU52       0.0001
     48  N         22.6020   46.1740   39.9760 N.3    96  PRO96      -0.2102
     49  CA        22.8630   44.8880   39.3140 C.3    96  PRO96       0.1504
     50  C         23.5890   45.0060   37.9780 C.2    96  PRO96       0.2576
     51  O         24.0120   43.9740   37.4380 O.2    96  PRO96      -0.2718
     52  CB        21.4510   44.3020   39.1230 C.3    96  PRO96       0.0282
     53  CG        20.5550   45.1040   40.0380 C.3    96  PRO96       0.0208
     54  CD        21.1630   46.4650   40.0760 C.3    96  PRO96       0.0893
     55  N         23.7600   46.2130   37.4370 N.am   97  LEU97      -0.1966
     56  CA        24.4020   46.4090   36.1410 C.3    97  LEU97       0.1728
     57  C         25.8930   46.6690   36.3190 C.2    97  LEU97       0.2616
     58  O         26.2870   47.5370   37.1050 O.2    97  LEU97      -0.2715
     59  CB        23.7610   47.5790   35.3940 C.3    97  LEU97       0.0311
     60  CG        22.2500   47.7180   35.5710 C.3    97  LEU97       0.0022
     61  CD1       21.7400   48.9990   34.9230 C.3    97  LEU97       0.0001
     62  CD2       21.5420   46.4970   35.0070 C.3    97  LEU97       0.0001
     63  N         26.7160   45.9360   35.5690 N.am   98  GLN98      -0.1963
     64  CA        28.1730   46.0570   35.6350 C.3    98  GLN98       0.1733
     65  C         28.7210   46.1580   34.2140 C.2    98  GLN98       0.2616
     66  O         28.7830   45.1540   33.4990 O.2    98  GLN98      -0.2715
     67  CB        28.7790   44.8730   36.3770 C.3    98  GLN98       0.0408
     68  CG        28.2740   44.7260   37.7970 C.3    98  GLN98       0.0908
     69  CD        28.8410   43.5120   38.4950 C.2    98  GLN98       0.2608
     70  OE1       29.7370   42.8420   37.9780 O.2    98  GLN98      -0.2717
     71  NE2       28.3160   43.2160   39.6800 N.am   98  GLN98      -0.0878
     72  N         29.1350   47.3630   33.8120 N.am   99  PHE99      -0.1960
     73  CA        29.6160   47.6100   32.4530 C.3    99  PHE99       0.1771
     74  C         30.9760   48.2910   32.4950 C.2    99  PHE99       0.2619
     75  O         31.0880   49.4320   32.9520 O.2    99  PHE99      -0.2715
     76  CB        28.6270   48.4650   31.6500 C.3    99  PHE99       0.0574
     77  CG        29.2000   48.9940   30.3620 C.ar   99  PHE99      -0.0200
     78  CD1       29.3510   48.1610   29.2610 C.ar   99  PHE99      -0.0042
     79  CD2       29.6010   50.3190   30.2550 C.ar   99  PHE99      -0.0042
     80  CE1       29.8890   48.6380   28.0780 C.ar   99  PHE99      -0.0003
     81  CE2       30.1390   50.8020   29.0760 C.ar   99  PHE99      -0.0003
     82  CZ        30.2810   49.9600   27.9850 C.ar   99  PHE99      -0.0000
     83  N         31.9960   47.6060   31.9780 N.am  100  GLN100     -0.1977
     84  CA        33.3670   48.0950   31.8930 C.3   100  GLN100      0.1601
     85  C         33.6410   48.6600   30.5060 C.2   100  GLN100      0.2287
     86  O         33.4670   47.9440   29.5080 O.2   100  GLN100     -0.2864
     87  CB        34.3400   46.9610   32.1950 C.3   100  GLN100      0.0394
     88  CG        35.7890   47.2910   31.9520 C.3   100  GLN100      0.0908
     89  CD        36.6870   46.0840   32.1400 C.2   100  GLN100      0.2608
     90  OE1       36.2400   44.9380   32.0310 O.2   100  GLN100     -0.2717
     91  NE2       37.9610   46.3330   32.4310 N.am  100  GLN100     -0.0878
     92  N         35.6500   46.9010   27.0550 N.3   103  GLU103     -0.1231
     93  CA        35.1480   46.0500   25.9780 C.3   103  GLU103      0.1699
     94  C         34.6610   46.8890   24.7990 C.2   103  GLU103      0.2592
     95  O         34.9820   46.6050   23.6310 O.2   103  GLU103     -0.2718
     96  CB        34.0280   45.1530   26.5090 C.3   103  GLU103      0.0402
     97  CG        34.4020   44.3500   27.7550 C.3   103  GLU103      0.1161
     98  CD        35.4090   43.2450   27.4730 C.2   103  GLU103      0.3649
     99  OE1       35.5750   42.8550   26.2960 O.co2 103  GLU103     -0.2457
    100  OE2       36.0390   42.7650   28.4370 O.co2 103  GLU103     -0.2457
    101  N         33.8720   47.9250   25.0940 N.am  104  LEU104     -0.1980
    102  CA        33.4430   48.8650   24.0680 C.3   104  LEU104      0.1596
    103  C         34.6370   49.5100   23.3770 C.2   104  LEU104      0.2287
    104  O         34.6150   49.7230   22.1600 O.2   104  LEU104     -0.2864
    105  CB        32.5410   49.9320   24.6880 C.3   104  LEU104      0.0297
    106  CG        31.8680   50.8940   23.7120 C.3   104  LEU104      0.0022
    107  CD1       31.0770   50.1060   22.6890 C.3   104  LEU104      0.0001
    108  CD2       30.9710   51.8640   24.4620 C.3   104  LEU104      0.0001
    109  N         36.1750   46.8380   20.8420 N.3   107  LEU107     -0.1245
    110  CA        35.3900   46.6790   19.6150 C.3   107  LEU107      0.1561
    111  C         35.3970   47.9560   18.7730 C.2   107  LEU107      0.2260
    112  O         35.5830   47.8990   17.5490 O.2   107  LEU107     -0.2867
    113  CB        33.9600   46.2400   19.9470 C.3   107  LEU107      0.0270
    114  CG        33.8800   44.8980   20.6950 C.3   107  LEU107      0.0019
    115  CD1       32.4440   44.4540   20.9850 C.3   107  LEU107      0.0001
    116  CD2       34.6460   43.8030   19.9510 C.3   107  LEU107      0.0001
    117  N         30.6500   37.8900   34.4370 N.3   276  GLY276     -0.1210
    118  CA        29.4790   38.0630   33.5890 C.3   276  GLY276      0.1956
    119  C         29.7020   39.0410   32.4520 C.2   276  GLY276      0.2612
    120  O         29.2380   38.8210   31.3280 O.2   276  GLY276     -0.2717
    121  N         30.4170   40.1320   32.7260 N.am  277  SER277     -0.1952
    122  CA        30.6810   41.1150   31.6860 C.3   277  SER277      0.1924
    123  C         31.5990   40.5540   30.6090 C.2   277  SER277      0.2314
    124  O         31.3810   40.8020   29.4210 O.2   277  SER277     -0.2863
    125  CB        31.2980   42.3690   32.2920 C.3   277  SER277      0.2116
    126  OG        32.7110   42.3360   32.1570 O.3   277  SER277     -0.2180
    127  N         29.5310   38.1770   28.4530 N.3   280  ILE280     -0.1231
    128  CA        28.6040   38.9030   27.5900 C.3   280  ILE280      0.1692
    129  C         29.3540   39.6100   26.4670 C.2   280  ILE280      0.2591
    130  O         28.9420   39.5590   25.3040 O.2   280  ILE280     -0.2718
    131  CB        27.7590   39.8860   28.4180 C.3   280  ILE280      0.0266
    132  CG1       26.7410   39.1210   29.2620 C.3   280  ILE280      0.0019
    133  CG2       27.0510   40.8730   27.5090 C.3   280  ILE280      0.0020
    134  CD1       25.9250   40.0030   30.1800 C.3   280  ILE280      0.0001
    135  N         30.4770   40.2540   26.7870 N.am  281  ALA281     -0.1980
    136  CA        31.2110   41.0100   25.7790 C.3   281  ALA281      0.1597
    137  C         31.8640   40.0910   24.7550 C.2   281  ALA281      0.2287
    138  O         31.9100   40.4170   23.5630 O.2   281  ALA281     -0.2864
    139  CB        32.2610   41.8890   26.4470 C.3   281  ALA281      0.0319
    140  N         29.1180   39.0340   22.4760 N.3   284  ALA284     -0.1245
    141  CA        28.7270   40.1080   21.5690 C.3   284  ALA284      0.1562
    142  C         29.7440   40.2820   20.4500 C.2   284  ALA284      0.2260
    143  O         29.3730   40.4340   19.2790 O.2   284  ALA284     -0.2867
    144  CB        28.5560   41.4130   22.3440 C.3   284  ALA284      0.0290
    145  N         29.1870   39.8420   16.4140 N.3   288  LEU288     -0.1245
    146  CA        29.6420   40.7650   15.3780 C.3   288  LEU288      0.1561
    147  C         30.4830   40.0430   14.3300 C.2   288  LEU288      0.2260
    148  O         30.2770   40.2150   13.1220 O.2   288  LEU288     -0.2867
    149  CB        30.4380   41.9120   16.0000 C.3   288  LEU288      0.0270
    150  CG        29.6930   43.1950   16.3590 C.3   288  LEU288      0.0019
    151  CD1       28.4250   42.8950   17.1350 C.3   288  LEU288      0.0001
    152  CD2       30.5950   44.1250   17.1570 C.3   288  LEU288      0.0001
@<TRIPOS>BOND
     1   148   147    2
     2   147   146    1
     3    43    42    2
     4   146   149    1
     5   146   145    1
     6    42    41    1
     7   149   150    1
     8   150   151    1
     9   150   152    1
    10    41    44    1
    11    41    40    1
    12    44    45    1
    13   112   111    2
    14    47    45    1
    15    45    46    1
    16   111   110    1
    17   143   142    2
    18   110   113    1
    19   110   109    1
    20   113   114    1
    21   116   114    1
    22    35    34    2
    23   142   141    1
    24   114   115    1
    25    34    33    1
    26   141   144    1
    27   141   140    1
    28   104   103    2
    29    38    37    1
    30   107   106    1
    31    33    32    1
    32    33    36    1
    33    37    36    1
    34    37    39    1
    35   103   102    1
    36   138   137    2
    37    95    94    2
    38   106   108    1
    39   106   105    1
    40   102   105    1
    41   102   101    1
    42   137   136    1
    43    94   101   am
    44    94    93    1
    45   130   129    2
    46   136   139    1
    47   136   135    1
    48    93    96    1
    49    93    92    1
    50    27    26    2
    51    99    98   ar
    52   129   135   am
    53   129   128    1
    54    96    97    1
    55    26    25    1
    56    98    97    1
    57    98   100   ar
    58   133   131    1
    59   128   131    1
    60   128   127    1
    61    82    80   ar
    62    82    81   ar
    63    80    78   ar
    64    25    24    1
    65    25    28    1
    66   131   132    1
    67    81    79   ar
    68    78    77   ar
    69   132   134    1
    70    28    29    1
    71   124   123    2
    72    86    85    2
    73    22    21    2
    74    31    29    1
    75    79    77   ar
    76    77    76    1
    77    29    30    1
    78    85    84    1
    79   123   122    1
    80    21    20    1
    81   120   119    2
    82    15    14    2
    83    76    73    1
    84   122   125    1
    85   122   121    1
    86    84    83    1
    87    84    87    1
    88    88    89    1
    89    88    87    1
    90    20    23    1
    91    20    19    1
    92    83    74   am
    93    90    89    2
    94    89    91   am
    95   126   125    1
    96   119   121   am
    97   119   118    1
    98    73    74    1
    99    73    72    1
   100    74    75    2
   101    14    19   am
   102    14    13    1
   103    66    65    2
   104   118   117    1
   105    13    12    1
   106    13    16    1
   107    72    65   am
   108    65    64    1
   109    17    16    1
   110    16    18    1
   111    61    60    1
   112    62    60    1
   113    59    60    1
   114    59    56    1
   115    63    64    1
   116    63    57   am
   117    64    67    1
   118     4     3    2
   119    56    57    1
   120    56    55    1
   121    57    58    2
   122    67    68    1
   123     3     2    1
   124    55    50   am
   125    51    50    2
   126    68    69    1
   127    50    49    1
   128    70    69    2
   129     2     1    1
   130     2     5    1
   131    69    71   am
   132     5     6    1
   133    52    49    1
   134    52    53    1
   135    49    48    1
   136    48    54    1
   137    53    54    1
   138     6     7    1
   139     7     8    1
   140    10     9    1
   141     8     9    2
   142     9    11    1
