@<TRIPOS>MOLECULE
tmp/6bauA00.pdb
 118 107 0 0 0
SMALL
GASTEIGER

@<TRIPOS>ATOM
      1  N         -2.4250   -7.6300   -7.0290 N.3   268  ARG268     -0.1245
      2  CA        -1.2900   -7.9870   -6.1500 C.3   268  ARG268      0.1563
      3  C         -1.0980   -9.4950   -6.0000 C.2   268  ARG268      0.2260
      4  O         -0.2030   -9.9690   -5.2800 O.2   268  ARG268     -0.2867
      5  CB        -1.3710   -7.2910   -4.7930 C.3   268  ARG268      0.0307
      6  CG        -1.1180   -5.8000   -4.8650 C.3   268  ARG268      0.0489
      7  CD        -0.9680   -5.1980   -3.4590 C.3   268  ARG268      0.2205
      8  NE        -2.0540   -5.5820   -2.5420 N.pl3 268  ARG268     -0.0865
      9  CZ        -3.3730   -5.3750   -2.7650 C.cat 268  ARG268      0.5346
     10  NH1       -3.8010   -4.7890   -3.8980 N.pl3 268  ARG268      0.1354
     11  NH2       -4.2970   -5.7640   -1.8620 N.pl3 268  ARG268      0.1354
     12  N         -0.0250  -12.5910   -7.9920 N.3   270  SER270     -0.1217
     13  CA         0.6070  -13.2110   -9.1490 C.3   270  SER270      0.1889
     14  C         -0.2340  -14.4180   -9.6710 C.2   270  SER270      0.2288
     15  O         -0.4170  -14.6340  -10.9040 O.2   270  SER270     -0.2866
     16  CB         2.0380  -13.6090   -8.7640 C.3   270  SER270      0.2089
     17  OG         2.9690  -13.3380   -9.8060 O.3   270  SER270     -0.2183
     18  N          9.7680  -14.5920   -9.9610 N.3   303  MET303     -0.1245
     19  CA         9.3350  -13.3300   -9.3970 C.3   303  MET303      0.1570
     20  C         10.4310  -12.2950   -9.3900 C.2   303  MET303      0.2261
     21  O         11.0440  -12.0460   -8.3510 O.2   303  MET303     -0.2867
     22  CB         8.7820  -13.5400   -8.0010 C.3   303  MET303      0.0387
     23  CG         7.4000  -14.1220   -8.0520 C.3   303  MET303      0.0595
     24  SD         6.7980  -14.5920   -6.4360 S.3   303  MET303     -0.1393
     25  CE         5.0620  -14.8890   -6.8480 C.3   303  MET303      0.0692
     26  N          9.6290   -9.2740   -7.1560 N.3   306  THR306     -0.1218
     27  CA         9.8300   -9.6420   -5.7550 C.3   306  THR306      0.1862
     28  C         11.3220   -9.7280   -5.4440 C.2   306  THR306      0.2287
     29  O         11.7700   -9.1700   -4.4420 O.2   306  THR306     -0.2866
     30  CB         9.1180  -10.9620   -5.3960 C.3   306  THR306      0.1770
     31  OG1        7.7040  -10.7490   -5.3980 O.3   306  THR306     -0.2211
     32  CG2        9.5590  -11.4420   -4.0280 C.3   306  THR306      0.0375
     33  N         12.6280   -6.2620   -5.2100 N.3   309  TYR309     -0.1241
     34  CA        12.1440   -5.6510   -3.9700 C.3   309  TYR309      0.1605
     35  C         12.9200   -6.1160   -2.7490 C.2   309  TYR309      0.2264
     36  O         13.1040   -5.3700   -1.7860 O.2   309  TYR309     -0.2867
     37  CB        10.6710   -5.9660   -3.7700 C.3   309  TYR309      0.0534
     38  CG        10.1490   -5.8480   -2.3450 C.ar  309  TYR309     -0.0201
     39  CD1        9.7790   -4.6160   -1.8130 C.ar  309  TYR309     -0.0009
     40  CD2        9.9980   -6.9830   -1.5480 C.ar  309  TYR309     -0.0009
     41  CE1        9.2970   -4.5210   -0.5150 C.ar  309  TYR309      0.0417
     42  CE2        9.5280   -6.9010   -0.2490 C.ar  309  TYR309      0.0417
     43  CZ         9.1740   -5.6740    0.2710 C.ar  309  TYR309      0.1957
     44  OH         8.6960   -5.5970    1.5780 O.3   309  TYR309     -0.2866
     45  N          8.7770  -17.1900   -2.4330 N.3   344  THR344     -0.1203
     46  CA         7.6160  -16.3180   -2.2480 C.3   344  THR344      0.1994
     47  C          6.3690  -16.8700   -2.9760 C.2   344  THR344      0.2617
     48  O          6.4640  -17.3390   -4.1400 O.2   344  THR344     -0.2717
     49  CB         7.9220  -14.8700   -2.7250 C.3   344  THR344      0.1784
     50  OG1        9.0650  -14.3700   -2.0120 O.3   344  THR344     -0.2211
     51  CG2        6.7000  -13.9250   -2.5110 C.3   344  THR344      0.0376
     52  N          5.2230  -16.8290   -2.2820 N.am  345  ALA345     -0.1979
     53  CA         3.9580  -17.3220   -2.8350 C.3   345  ALA345      0.1597
     54  C          3.3020  -16.3240   -3.7940 C.2   345  ALA345      0.2287
     55  O          3.4910  -15.1120   -3.6370 O.2   345  ALA345     -0.2864
     56  CB         3.0170  -17.6690   -1.7080 C.3   345  ALA345      0.0319
     57  N          0.7480  -14.8570   -3.8730 N.3   347  VAL347     -0.1245
     58  CA        -0.2860  -14.1500   -3.1560 C.3   347  VAL347      0.1561
     59  C          0.2000  -12.7770   -2.6370 C.2   347  VAL347      0.2260
     60  O          1.3900  -12.5800   -2.3680 O.2   347  VAL347     -0.2867
     61  CB        -0.8660  -15.0380   -2.0330 C.3   347  VAL347      0.0252
     62  CG1       -1.1960  -14.2160   -0.7500 C.3   347  VAL347      0.0019
     63  CG2       -2.1010  -15.7970   -2.5430 C.3   347  VAL347      0.0019
     64  N          1.3620   -9.6580   -0.6250 N.3   349  GLY349     -0.1210
     65  CA         2.1000   -9.3650    0.6110 C.3   349  GLY349      0.1956
     66  C          2.8790  -10.5630    1.1150 C.2   349  GLY349      0.2612
     67  O          3.1250  -10.6810    2.3320 O.2   349  GLY349     -0.2717
     68  N          3.2590  -11.4450    0.1810 N.am  350  ALA350     -0.1965
     69  CA         3.9740  -12.6530    0.5390 C.3   350  ALA350      0.1728
     70  C          5.4580  -12.4520    0.3680 C.2   350  ALA350      0.2617
     71  O          6.2510  -13.1910    0.9570 O.2   350  ALA350     -0.2715
     72  CB         3.5100  -13.8140   -0.2830 C.3   350  ALA350      0.0334
     73  N          5.8380  -11.4620   -0.4260 N.am  351  GLY351     -0.1940
     74  CA         7.2490  -11.1620   -0.5560 C.3   351  GLY351      0.2014
     75  C          7.8730  -10.6040    0.7110 C.2   351  GLY351      0.2638
     76  O          9.0180  -10.9490    1.0730 O.2   351  GLY351     -0.2714
     77  N          7.1160   -9.7390    1.3790 N.am  352  ALA352     -0.1977
     78  CA         7.5860   -9.1040    2.5970 C.3   352  ALA352      0.1597
     79  C          7.9310  -10.1380    3.6630 C.2   352  ALA352      0.2287
     80  O          8.9190   -9.9940    4.3850 O.2   352  ALA352     -0.2864
     81  CB         6.5460   -8.1430    3.1100 C.3   352  ALA352      0.0319
     82  N          3.9050   -1.5750    2.3560 N.3   382  ASP382     -0.1239
     83  CA         4.1650   -2.7690    1.5960 C.3   382  ASP382      0.1674
     84  C          3.2170   -2.9530    0.4110 C.2   382  ASP382      0.2266
     85  O          3.6790   -3.3590   -0.6590 O.2   382  ASP382     -0.2867
     86  CB         4.1120   -4.0090    2.4470 C.3   382  ASP382      0.1410
     87  CG         4.2100   -5.2430    1.6020 C.2   382  ASP382      0.3668
     88  OD1        5.3010   -5.4360    1.0060 O.co2 382  ASP382     -0.2456
     89  OD2        3.1850   -5.9700    1.4560 O.co2 382  ASP382     -0.2456
     90  N          4.0390   -3.6680   -3.1830 N.3   386  ASP386     -0.1239
     91  CA         3.5860   -4.9570   -3.6850 C.3   386  ASP386      0.1674
     92  C          3.0140   -4.8890   -5.0980 C.2   386  ASP386      0.2266
     93  O          3.1940   -5.8110   -5.8910 O.2   386  ASP386     -0.2867
     94  CB         2.5530   -5.5670   -2.7350 C.3   386  ASP386      0.1410
     95  CG         2.5950   -7.0820   -2.7260 C.2   386  ASP386      0.3668
     96  OD1        3.3000   -7.6610   -3.5770 O.co2 386  ASP386     -0.2456
     97  OD2        1.9220   -7.6910   -1.8680 O.co2 386  ASP386     -0.2456
     98  N          5.9330   -4.9480   -7.3510 N.3   389  CYS389     -0.1221
     99  CA         6.5100   -6.2850   -7.2310 C.3   389  CYS389      0.1808
    100  C          5.7540   -7.2970   -8.0710 C.2   389  CYS389      0.2601
    101  O          6.3950   -8.1220   -8.7240 O.2   389  CYS389     -0.2717
    102  CB         6.5120   -6.7930   -5.7790 C.3   389  CYS389      0.0970
    103  SG         7.4650   -5.9740   -4.5130 S.3   389  CYS389     -0.0800
    104  N          4.4100   -7.2320   -8.0660 N.am  390  THR390     -0.1953
    105  CA         3.5720   -8.2370   -8.7620 C.3   390  THR390      0.1897
    106  C          3.5640   -8.0400  -10.2790 C.2   390  THR390      0.2313
    107  O          3.6200   -9.0220  -11.0560 O.2   390  THR390     -0.2863
    108  CB         2.1250   -8.3190   -8.2010 C.3   390  THR390      0.1794
    109  OG1        2.1550   -8.2130   -6.7680 O.3   390  THR390     -0.2208
    110  CG2        1.4770   -9.6460   -8.5900 C.3   390  THR390      0.0378
    111  N          6.6590   -9.3300  -11.7300 N.3   393  ASN393     -0.1240
    112  CA         6.6360  -10.7820  -11.6110 C.3   393  ASN393      0.1653
    113  C          5.9790  -11.4060  -12.8300 C.2   393  ASN393      0.2266
    114  O          6.5450  -12.3360  -13.4350 O.2   393  ASN393     -0.2867
    115  CB         5.8740  -11.2010  -10.3430 C.3   393  ASN393      0.1155
    116  CG         6.6310  -10.8920   -9.0810 C.2   393  ASN393      0.2627
    117  OD1        7.7690  -10.3930   -9.1330 O.2   393  ASN393     -0.2716
    118  ND2        6.0060  -11.1780   -7.9200 N.am  393  ASN393     -0.0877
@<TRIPOS>BOND
     1   114   113    2
     2   113   112    1
     3   111   112    1
     4   112   115    1
     5   107   106    2
     6    15    14    2
     7   115   116    1
     8   106   105    1
     9    18    19    1
    10    17    16    1
    11    14    13    1
    12    19    20    1
    13    19    22    1
    14    20    21    2
    15    13    16    1
    16    13    12    1
    17   117   116    2
    18   116   118   am
    19   105   108    1
    20   105   104    1
    21   101   100    2
    22   110   108    1
    23   108   109    1
    24   100   104   am
    25   100    99    1
    26    23    22    1
    27    23    24    1
    28    98    99    1
    29    99   102    1
    30    26    27    1
    31     1     2    1
    32    25    24    1
    33     2     3    1
    34     2     5    1
    35     3     4    2
    36    93    92    2
    37   102   103    1
    38    27    28    1
    39    27    30    1
    40    28    29    2
    41    31    30    1
    42    30    32    1
    43    33    34    1
    44    92    91    1
    45     6     5    1
    46     6     7    1
    47    48    47    2
    48    34    37    1
    49    34    35    1
    50    10     9    1
    51    57    58    1
    52    54    55    2
    53    54    53    1
    54    37    38    1
    55    91    90    1
    56    91    94    1
    57    96    95   ar
    58     7     8    1
    59    58    59    1
    60    58    61    1
    61    47    52   am
    62    47    46    1
    63    53    52    1
    64    53    56    1
    65     9     8    2
    66     9    11    1
    67    35    36    2
    68    94    95    1
    69    95    97   ar
    70    49    51    1
    71    49    46    1
    72    49    50    1
    73    59    60    2
    74    63    61    1
    75    45    46    1
    76    38    39   ar
    77    38    40   ar
    78    61    62    1
    79    39    41   ar
    80    40    42   ar
    81    85    84    2
    82    64    65    1
    83    74    73    1
    84    74    75    1
    85    41    43   ar
    86    73    70   am
    87    72    69    1
    88    42    43   ar
    89    68    69    1
    90    68    66   am
    91    43    44    1
    92    70    69    1
    93    70    71    2
    94    84    83    1
    95    65    66    1
    96    75    76    2
    97    75    77   am
    98    88    87   ar
    99    66    67    2
   100    77    78    1
   101    89    87   ar
   102    83    82    1
   103    83    86    1
   104    87    86    1
   105    78    81    1
   106    78    79    1
   107    79    80    2
