@<TRIPOS>MOLECULE
tmp/6bavA00.pdb
 99 91 0 0 0
SMALL
GASTEIGER

@<TRIPOS>ATOM
      1  N         -4.2850    5.2820   -9.7790 N.3   268  ARG268     -0.1231
      2  CA        -5.1580    4.4280   -8.9660 C.3   268  ARG268      0.1694
      3  C         -6.5540    5.0240   -8.8130 C.2   268  ARG268      0.2593
      4  O         -7.3050    4.6310   -7.9220 O.2   268  ARG268     -0.2718
      5  CB        -4.5520    4.1450   -7.5840 C.3   268  ARG268      0.0321
      6  CG        -3.3220    3.2660   -7.5990 C.3   268  ARG268      0.0489
      7  CD        -2.7940    3.0020   -6.1850 C.3   268  ARG268      0.2205
      8  NE        -2.4790    4.2230   -5.4370 N.pl3 268  ARG268     -0.0865
      9  CZ        -1.4360    5.0210   -5.6770 C.cat 268  ARG268      0.5346
     10  NH1       -0.5860    4.7600   -6.6680 N.pl3 268  ARG268      0.1354
     11  NH2       -1.2490    6.1020   -4.9280 N.pl3 268  ARG268      0.1354
     12  N         -6.9010    5.9650   -9.6870 N.am  269  SER269     -0.1938
     13  CA        -8.1830    6.6510   -9.5940 C.3   269  SER269      0.2055
     14  C         -8.9280    6.6310  -10.9220 C.2   269  SER269      0.2643
     15  O         -8.4300    7.1320  -11.9360 O.2   269  SER269     -0.2714
     16  CB        -7.9880    8.0860   -9.1030 C.3   269  SER269      0.2130
     17  OG        -9.2310    8.6820   -8.7890 O.3   269  SER269     -0.2179
     18  N        -10.1230    6.0440  -10.9010 N.am  270  SER270     -0.1949
     19  CA       -10.9330    5.8890  -12.1030 C.3   270  SER270      0.1924
     20  C        -11.3990    7.2360  -12.6250 C.2   270  SER270      0.2314
     21  O        -11.1940    7.5620  -13.7980 O.2   270  SER270     -0.2863
     22  CB       -12.1250    4.9750  -11.8380 C.3   270  SER270      0.2116
     23  OG       -11.7140    3.6210  -11.8160 O.3   270  SER270     -0.2180
     24  N        -16.5190   -1.6220  -12.1250 N.3   303  MET303     -0.1245
     25  CA       -15.2840   -1.8040  -11.3810 C.3   303  MET303      0.1570
     26  C        -14.8250   -3.2580  -11.5070 C.2   303  MET303      0.2261
     27  O        -14.7140   -3.9750  -10.5100 O.2   303  MET303     -0.2867
     28  CB       -15.4870   -1.3980   -9.9150 C.3   303  MET303      0.0387
     29  CG       -16.0160    0.0300   -9.7160 C.3   303  MET303      0.0595
     30  SD       -14.7680    1.2800   -9.3190 S.3   303  MET303     -0.1393
     31  CE       -14.8250    1.2650   -7.5140 C.3   303  MET303      0.0692
     32  N        -11.6230   -4.4240   -9.6390 N.3   306  THR306     -0.1218
     33  CA       -11.9350   -4.3740   -8.2230 C.3   306  THR306      0.1862
     34  C        -12.6710   -5.6410   -7.8070 C.2   306  THR306      0.2287
     35  O        -12.2840   -6.2860   -6.8400 O.2   306  THR306     -0.2866
     36  CB       -12.7550   -3.1200   -7.8810 C.3   306  THR306      0.1770
     37  OG1      -12.0670   -1.9630   -8.3680 O.3   306  THR306     -0.2211
     38  CG2      -12.9630   -2.9890   -6.3750 C.3   306  THR306      0.0375
     39  N        -10.4690   -8.4230   -7.4560 N.3   309  TYR309     -0.1241
     40  CA        -9.7860   -8.3740   -6.1620 C.3   309  TYR309      0.1605
     41  C        -10.7130   -8.9340   -5.0830 C.2   309  TYR309      0.2264
     42  O        -10.3220   -9.8130   -4.3160 O.2   309  TYR309     -0.2867
     43  CB        -9.3250   -6.9380   -5.8520 C.3   309  TYR309      0.0534
     44  CG        -9.0810   -6.6000   -4.3910 C.ar  309  TYR309     -0.0201
     45  CD1      -10.0670   -5.9680   -3.6340 C.ar  309  TYR309     -0.0009
     46  CD2       -7.8620   -6.8790   -3.7790 C.ar  309  TYR309     -0.0009
     47  CE1       -9.8540   -5.6430   -2.3040 C.ar  309  TYR309      0.0417
     48  CE2       -7.6390   -6.5570   -2.4420 C.ar  309  TYR309      0.0417
     49  CZ        -8.6400   -5.9390   -1.7150 C.ar  309  TYR309      0.1957
     50  OH        -8.4380   -5.6110   -0.3980 O.3   309  TYR309     -0.2866
     51  N        -15.0730    1.1220   -2.6950 N.3   351  GLY351     -0.1225
     52  CA       -14.1340   -0.0100   -2.7120 C.3   351  GLY351      0.1811
     53  C        -13.8570   -0.6540   -1.3630 C.2   351  GLY351      0.2280
     54  O        -13.3200   -1.7660   -1.2990 O.2   351  GLY351     -0.2866
     55  N         -2.0240   -2.9280   -0.5120 N.3   382  ASP382     -0.1239
     56  CA        -3.2820   -2.4940   -1.1290 C.3   382  ASP382      0.1674
     57  C         -3.1240   -1.5090   -2.2830 C.2   382  ASP382      0.2266
     58  O         -3.9830   -1.4470   -3.1650 O.2   382  ASP382     -0.2867
     59  CB        -4.2640   -1.9500   -0.0870 C.3   382  ASP382      0.1410
     60  CG        -5.7150   -2.3050   -0.4130 C.2   382  ASP382      0.3668
     61  OD1       -5.9980   -3.4960   -0.6900 O.co2 382  ASP382     -0.2456
     62  OD2       -6.5760   -1.3960   -0.3880 O.co2 382  ASP382     -0.2456
     63  N         -2.0350   -3.5960   -5.3160 N.3   385  LEU385     -0.1231
     64  CA        -3.2060   -4.2260   -5.9150 C.3   385  LEU385      0.1693
     65  C         -4.0920   -3.1990   -6.6140 C.2   385  LEU385      0.2592
     66  O         -4.6020   -3.4610   -7.7040 O.2   385  LEU385     -0.2718
     67  CB        -3.9980   -5.0020   -4.8640 C.3   385  LEU385      0.0284
     68  CG        -3.2420   -6.1840   -4.2520 C.3   385  LEU385      0.0019
     69  CD1       -3.8530   -6.6290   -2.9280 C.3   385  LEU385      0.0001
     70  CD2       -3.1770   -7.3320   -5.2320 C.3   385  LEU385      0.0001
     71  N         -4.2520   -2.0310   -5.9900 N.am  386  ASP386     -0.1974
     72  CA        -5.0690   -0.9380   -6.5320 C.3   386  ASP386      0.1709
     73  C         -4.6060   -0.4800   -7.9180 C.2   386  ASP386      0.2293
     74  O         -5.4340   -0.1980   -8.7840 O.2   386  ASP386     -0.2864
     75  CB        -5.0890    0.2460   -5.5550 C.3   386  ASP386      0.1436
     76  CG        -6.2850    1.1690   -5.7580 C.2   386  ASP386      0.3671
     77  OD1       -6.7080    1.3920   -6.9120 O.co2 386  ASP386     -0.2456
     78  OD2       -6.7990    1.6910   -4.7450 O.co2 386  ASP386     -0.2456
     79  N         -5.7650   -3.0990  -10.4290 N.3   389  CYS389     -0.1221
     80  CA        -7.2180   -3.1420  -10.4150 C.3   389  CYS389      0.1808
     81  C         -7.8330   -1.9250  -11.0830 C.2   389  CYS389      0.2601
     82  O         -8.8550   -2.0430  -11.7490 O.2   389  CYS389     -0.2717
     83  CB        -7.7410   -3.2770   -8.9900 C.3   389  CYS389      0.0970
     84  SG        -7.5220   -4.9230   -8.3220 S.3   389  CYS389     -0.0800
     85  N         -7.2110   -0.7640  -10.9110 N.am  390  THR390     -0.1953
     86  CA        -7.7160    0.4660  -11.5120 C.3   390  THR390      0.1897
     87  C         -7.5510    0.4400  -13.0330 C.2   390  THR390      0.2313
     88  O         -8.4020    0.9480  -13.7740 O.2   390  THR390     -0.2863
     89  CB        -7.0330    1.7090  -10.9150 C.3   390  THR390      0.1794
     90  OG1       -7.1150    1.6550   -9.4850 O.3   390  THR390     -0.2208
     91  CG2       -7.7060    2.9880  -11.4050 C.3   390  THR390      0.0378
     92  N        -10.1230   -1.5940  -14.4230 N.3   393  ASN393     -0.1240
     93  CA       -11.3580   -0.8720  -14.1300 C.3   393  ASN393      0.1653
     94  C        -11.7560    0.0850  -15.2480 C.2   393  ASN393      0.2266
     95  O        -12.9370    0.1650  -15.5880 O.2   393  ASN393     -0.2867
     96  CB       -11.2680   -0.1340  -12.7900 C.3   393  ASN393      0.1155
     97  CG       -11.8950   -0.9120  -11.6380 C.2   393  ASN393      0.2627
     98  OD1      -11.9850   -2.1380  -11.6630 O.2   393  ASN393     -0.2716
     99  ND2      -12.3270   -0.1910  -10.6170 N.am  393  ASN393     -0.0877
@<TRIPOS>BOND
     1    95    94    2
     2    94    93    1
     3    92    93    1
     4    93    96    1
     5    21    20    2
     6    88    87    2
     7    87    86    1
     8    96    97    1
     9    20    19    1
    10    24    25    1
    11    19    22    1
    12    19    18    1
    13    15    14    2
    14    22    23    1
    15    82    81    2
    16    98    97    2
    17    97    99   am
    18    86    89    1
    19    86    85    1
    20    26    25    1
    21    26    27    2
    22    91    89    1
    23    25    28    1
    24    81    85   am
    25    81    80    1
    26    14    18   am
    27    14    13    1
    28    89    90    1
    29    79    80    1
    30    80    83    1
    31    28    29    1
    32     1     2    1
    33    29    30    1
    34    12    13    1
    35    12     3   am
    36    32    33    1
    37    13    16    1
    38    30    31    1
    39    16    17    1
    40    83    84    1
    41     2     3    1
    42     2     5    1
    43     3     4    2
    44    74    73    2
    45    37    36    1
    46    33    36    1
    47    33    34    1
    48    73    72    1
    49    36    38    1
    50    34    35    2
    51    66    65    2
    52     6     5    1
    53     6     7    1
    54    39    40    1
    55    77    76   ar
    56    10     9    1
    57    65    71   am
    58    65    64    1
    59    72    71    1
    60    72    75    1
    61     7     8    1
    62    40    43    1
    63    40    41    1
    64    64    63    1
    65    64    67    1
    66    43    44    1
    67    76    75    1
    68    76    78   ar
    69     9     8    2
    70     9    11    1
    71    70    68    1
    72    41    42    2
    73    67    68    1
    74    44    46   ar
    75    44    45   ar
    76    68    69    1
    77    46    48   ar
    78    45    47   ar
    79    58    57    2
    80    52    51    1
    81    52    53    1
    82    48    49   ar
    83    47    49   ar
    84    57    56    1
    85    49    50    1
    86    53    54    2
    87    56    55    1
    88    56    59    1
    89    61    60   ar
    90    60    62   ar
    91    60    59    1
