@<TRIPOS>MOLECULE
tmp/6baxB02.pdb
 139 132 0 0 0
SMALL
GASTEIGER

@<TRIPOS>ATOM
      1  N         40.4730   -4.9750   20.4830 N.3    29  ALA29      -0.1231
      2  CA        39.2810   -4.4640   19.7960 C.3    29  ALA29       0.1694
      3  C         38.0650   -5.3780   19.9450 C.2    29  ALA29       0.2591
      4  O         36.9560   -4.8840   20.1470 O.2    29  ALA29      -0.2718
      5  CB        39.5730   -4.2280   18.3290 C.3    29  ALA29       0.0304
      6  N         38.2840   -6.7020   19.9030 N.am   30  VAL30      -0.1980
      7  CA        37.2150   -7.7050   20.0210 C.3    30  VAL30       0.1595
      8  C         36.6490   -7.7260   21.4470 C.2    30  VAL30       0.2287
      9  O         35.4300   -7.6490   21.6250 O.2    30  VAL30      -0.2864
     10  CB        37.6910   -9.1010   19.5270 C.3    30  VAL30       0.0276
     11  CG1       36.6680  -10.1950   19.8390 C.3    30  VAL30       0.0022
     12  CG2       37.9970   -9.0640   18.0410 C.3    30  VAL30       0.0022
     13  N         40.7290  -17.1400   17.9040 N.3   131  ASN131     -0.1240
     14  CA        40.9460  -18.0220   16.7570 C.3   131  ASN131      0.1653
     15  C         42.2250  -18.8680   16.8230 C.2   131  ASN131      0.2266
     16  O         43.2100  -18.3810   17.3760 O.2   131  ASN131     -0.2867
     17  CB        40.9200  -17.2370   15.4650 C.3   131  ASN131      0.1155
     18  CG        39.5480  -17.0870   14.9230 C.2   131  ASN131      0.2627
     19  OD1       38.7620  -18.0370   14.8660 O.2   131  ASN131     -0.2716
     20  ND2       39.2390  -15.8850   14.5050 N.am  131  ASN131     -0.0877
     21  N         28.9090  -15.5830   13.9550 N.3   158  LEU158     -0.1231
     22  CA        29.1750  -14.4070   13.1300 C.3   158  LEU158      0.1693
     23  C         29.0090  -14.7230   11.6290 C.2   158  LEU158      0.2592
     24  O         28.4200  -13.9150   10.9200 O.2   158  LEU158     -0.2718
     25  CB        30.5630  -13.8170   13.4410 C.3   158  LEU158      0.0284
     26  CG        30.9850  -12.5750   12.6270 C.3   158  LEU158      0.0019
     27  CD1       29.9790  -11.4660   12.7420 C.3   158  LEU158      0.0001
     28  CD2       32.3500  -12.0760   13.0800 C.3   158  LEU158      0.0001
     29  N         29.4930  -15.8990   11.1680 N.am  159  ASP159     -0.1974
     30  CA        29.3600  -16.3500    9.7680 C.3   159  ASP159      0.1709
     31  C         27.8830  -16.3270    9.3580 C.2   159  ASP159      0.2293
     32  O         27.5470  -15.8150    8.2910 O.2   159  ASP159     -0.2864
     33  CB        29.9050  -17.7790    9.5610 C.3   159  ASP159      0.1436
     34  CG        31.2480  -18.0910   10.1770 C.2   159  ASP159      0.3671
     35  OD1       31.4320  -17.7840   11.3800 O.co2 159  ASP159     -0.2456
     36  OD2       32.0860  -18.7400    9.4880 O.co2 159  ASP159     -0.2456
     37  N         26.4770  -12.6710    9.1680 N.3   162  ARG162     -0.1245
     38  CA        26.9130  -12.0230    7.9200 C.3   162  ARG162      0.1563
     39  C         26.1240  -12.5840    6.7390 C.2   162  ARG162      0.2260
     40  O         25.7260  -11.8350    5.8530 O.2   162  ARG162     -0.2867
     41  CB        28.4140  -12.2470    7.6680 C.3   162  ARG162      0.0307
     42  CG        29.3240  -11.3830    8.5170 C.3   162  ARG162      0.0489
     43  CD        30.7540  -11.5590    8.0610 C.3   162  ARG162      0.2205
     44  NE        31.6470  -10.6050    8.7190 N.pl3 162  ARG162     -0.0865
     45  CZ        32.6950  -10.9310    9.4710 C.cat 162  ARG162      0.5346
     46  NH1       33.4490   -9.9860   10.0110 N.pl3 162  ARG162      0.1354
     47  NH2       32.9990  -12.2030    9.6830 N.pl3 162  ARG162      0.1354
     48  N         34.3260  -22.9100   11.5520 N.3   186  HIS186     -0.1226
     49  CA        34.2880  -21.4570   11.4100 C.3   186  HIS186      0.1752
     50  C         35.3410  -20.9940   10.4010 C.2   186  HIS186      0.2597
     51  O         36.4670  -21.5020   10.4140 O.2   186  HIS186     -0.2718
     52  CB        34.5250  -20.7790   12.7670 C.3   186  HIS186      0.0759
     53  CG        34.8440  -19.3200   12.6520 C.ar  186  HIS186      0.0818
     54  ND1       33.8970  -18.4180   12.2300 N.ar  186  HIS186     -0.2268
     55  CD2       36.0210  -18.6720   12.8100 C.ar  186  HIS186      0.1154
     56  CE1       34.5040  -17.2470   12.1900 C.ar  186  HIS186      0.1986
     57  NE2       35.7830  -17.3550   12.5320 N.ar  186  HIS186     -0.2212
     58  N         34.9690  -20.0390    9.5570 N.am  187  GLY187     -0.1942
     59  CA        35.8900  -19.4620    8.5910 C.3   187  GLY187      0.2014
     60  C         35.7750  -19.9750    7.1690 C.2   187  GLY187      0.2638
     61  O         34.6680  -20.1730    6.6550 O.2   187  GLY187     -0.2714
     62  N         36.9370  -20.1770    6.5220 N.am  188  ASP188     -0.1971
     63  CA        37.0540  -20.5850    5.1180 C.3   188  ASP188      0.1709
     64  C         36.3020  -21.8540    4.7430 C.2   188  ASP188      0.2293
     65  O         35.7530  -21.9250    3.6490 O.2   188  ASP188     -0.2864
     66  CB        38.5370  -20.7120    4.6970 C.3   188  ASP188      0.1436
     67  CG        39.4190  -19.4870    4.9730 C.2   188  ASP188      0.3671
     68  OD1       38.8900  -18.3550    4.9780 O.co2 188  ASP188     -0.2456
     69  OD2       40.6390  -19.6670    5.1750 O.co2 188  ASP188     -0.2456
     70  N         30.6620  -14.1110    2.5540 N.3   227  VAL227     -0.1231
     71  CA        30.7790  -14.1850    4.0210 C.3   227  VAL227      0.1692
     72  C         32.2740  -14.3060    4.3610 C.2   227  VAL227      0.2591
     73  O         32.7740  -13.5700    5.2140 O.2   227  VAL227     -0.2718
     74  CB        29.9510  -15.3560    4.6230 C.3   227  VAL227      0.0266
     75  CG1       30.3270  -15.6150    6.0740 C.3   227  VAL227      0.0020
     76  CG2       28.4580  -15.0840    4.5030 C.3   227  VAL227      0.0020
     77  N         32.9860  -15.2200    3.6550 N.am  228  VAL228     -0.1980
     78  CA        34.4290  -15.4480    3.8080 C.3   228  VAL228      0.1595
     79  C         35.2020  -14.1890    3.3090 C.2   228  VAL228      0.2287
     80  O         36.0270  -13.6580    4.0460 O.2   228  VAL228     -0.2864
     81  CB        34.8970  -16.7750    3.1030 C.3   228  VAL228      0.0276
     82  CG1       36.4100  -16.9660    3.1730 C.3   228  VAL228      0.0022
     83  CG2       34.1570  -18.0110    3.6290 C.3   228  VAL228      0.0022
     84  N         35.0310  -10.8400    5.5410 N.3   231  ALA231     -0.1231
     85  CA        35.8910  -10.8810    6.7220 C.3   231  ALA231      0.1694
     86  C         37.3160  -10.3810    6.4250 C.2   231  ALA231      0.2592
     87  O         37.8320   -9.5290    7.1560 O.2   231  ALA231     -0.2718
     88  CB        35.9200  -12.2870    7.2670 C.3   231  ALA231      0.0304
     89  N         37.9240  -10.8710    5.3180 N.am  232  TYR232     -0.1976
     90  CA        39.2520  -10.4480    4.8750 C.3   232  TYR232      0.1639
     91  C         39.1980   -8.9970    4.3740 C.2   232  TYR232      0.2290
     92  O         40.1470   -8.2470    4.5970 O.2   232  TYR232     -0.2864
     93  CB        39.7880  -11.3880    3.7810 C.3   232  TYR232      0.0560
     94  CG        40.0960  -12.7840    4.2870 C.ar  232  TYR232     -0.0198
     95  CD1       41.3180  -13.0770    4.8850 C.ar  232  TYR232     -0.0009
     96  CD2       39.1770  -13.8240    4.1360 C.ar  232  TYR232     -0.0009
     97  CE1       41.6160  -14.3710    5.3290 C.ar  232  TYR232      0.0417
     98  CE2       39.4600  -15.1170    4.5870 C.ar  232  TYR232      0.0417
     99  CZ        40.6770  -15.3840    5.1920 C.ar  232  TYR232      0.1957
    100  OH        40.9460  -16.6580    5.6420 O.3   232  TYR232     -0.2866
    101  N         39.2970   -6.5710    7.3450 N.3   235  ILE235     -0.1245
    102  CA        40.6860   -6.5470    7.8330 C.3   235  ILE235      0.1561
    103  C         41.5420   -5.6460    6.9420 C.2   235  ILE235      0.2260
    104  O         42.2770   -4.8120    7.4510 O.2   235  ILE235     -0.2867
    105  CB        41.3010   -7.9730    7.9500 C.3   235  ILE235      0.0252
    106  CG1       40.5160   -8.8700    8.9210 C.3   235  ILE235      0.0019
    107  CG2       42.8110   -7.9380    8.3000 C.3   235  ILE235      0.0019
    108  CD1       40.5370   -8.4840   10.3090 C.3   235  ILE235      0.0001
    109  N         41.9030   -2.8070    9.3530 N.3   239  GLY239     -0.1210
    110  CA        42.9710   -3.4800   10.0950 C.3   239  GLY239      0.1956
    111  C         42.5640   -4.5780   11.0520 C.2   239  GLY239      0.2612
    112  O         43.4160   -5.3410   11.5150 O.2   239  GLY239     -0.2717
    113  N         41.2670   -4.6580   11.3740 N.am  240  TYR240     -0.1962
    114  CA        40.7080   -5.6340   12.3180 C.3   240  TYR240      0.1771
    115  C         39.1900   -5.6020   12.1750 C.2   240  TYR240      0.2620
    116  O         38.6760   -4.7640   11.4450 O.2   240  TYR240     -0.2715
    117  CB        41.1320   -5.2830   13.7740 C.3   240  TYR240      0.0574
    118  CG        40.6680   -3.9150   14.2330 C.ar  240  TYR240     -0.0198
    119  CD1       41.4210   -2.7720   13.9660 C.ar  240  TYR240     -0.0009
    120  CD2       39.4470   -3.7530   14.8820 C.ar  240  TYR240     -0.0009
    121  CE1       40.9760   -1.5060   14.3450 C.ar  240  TYR240      0.0417
    122  CE2       39.0030   -2.4940   15.2880 C.ar  240  TYR240      0.0417
    123  CZ        39.7670   -1.3720   15.0080 C.ar  240  TYR240      0.1957
    124  OH        39.3300   -0.1310   15.4080 O.3   240  TYR240     -0.2866
    125  N         38.4730   -6.4990   12.8690 N.am  241  THR241     -0.1951
    126  CA        37.0070   -6.4610   12.9260 C.3   241  THR241      0.1897
    127  C         36.6590   -6.3900   14.4160 C.2   241  THR241      0.2313
    128  O         37.3780   -6.9650   15.2440 O.2   241  THR241     -0.2863
    129  CB        36.2920   -7.6320   12.1890 C.3   241  THR241      0.1794
    130  OG1       36.1180   -8.7370   13.0660 O.3   241  THR241     -0.2208
    131  CG2       36.9760   -8.0640   10.9040 C.3   241  THR241      0.0378
    132  N         31.3850   -8.8280   15.6780 N.3   245  ILE245     -0.1245
    133  CA        31.6890   -9.9030   16.6350 C.3   245  ILE245      0.1561
    134  C         31.1750   -9.5470   18.0490 C.2   245  ILE245      0.2260
    135  O         30.5410  -10.3860   18.6920 O.2   245  ILE245     -0.2867
    136  CB        33.1950  -10.3710   16.6080 C.3   245  ILE245      0.0252
    137  CG1       33.4690  -11.5320   17.5920 C.3   245  ILE245      0.0019
    138  CG2       34.1900   -9.2280   16.8100 C.3   245  ILE245      0.0019
    139  CD1       32.7910  -12.8940   17.2030 C.3   245  ILE245      0.0001
@<TRIPOS>BOND
     1    70    71    1
     2    81    82    1
     3    81    83    1
     4    81    78    1
     5    79    78    1
     6    79    80    2
     7    65    64    2
     8    77    78    1
     9    77    72   am
    10    93    94    1
    11    93    90    1
    12    71    72    1
    13    71    74    1
    14    96    94   ar
    15    96    98   ar
    16    94    95   ar
    17    72    73    2
    18    91    92    2
    19    91    90    1
    20    76    74    1
    21    98    99   ar
    22    74    75    1
    23    66    67    1
    24    66    63    1
    25    64    63    1
    26    90    89    1
    27    95    97   ar
    28    67    68   ar
    29    67    69   ar
    30    63    62    1
    31    99    97   ar
    32    99   100    1
    33    89    86   am
    34    84    85    1
    35    40    39    2
    36    86    85    1
    37    86    87    2
    38    62    60   am
    39    61    60    2
    40    85    88    1
    41    39    38    1
    42   103   104    2
    43   103   102    1
    44    60    59    1
    45   101   102    1
    46    41    38    1
    47    41    42    1
    48   102   105    1
    49    38    37    1
    50   105   107    1
    51   105   106    1
    52    43    42    1
    53    43    44    1
    54    32    31    2
    55    59    58    1
    56    44    45    2
    57   106   108    1
    58   109   110    1
    59    31    30    1
    60    45    47    1
    61    45    46    1
    62    36    34   ar
    63    58    50   am
    64    33    30    1
    65    33    34    1
    66    30    29    1
    67   110   111    1
    68    34    35   ar
    69    50    51    2
    70    50    49    1
    71   131   129    1
    72    24    23    2
    73   111   113   am
    74   111   112    2
    75    29    23   am
    76   113   114    1
    77    49    48    1
    78    49    52    1
    79   116   115    2
    80    23    22    1
    81   115   114    1
    82   115   125   am
    83   129   126    1
    84   129   130    1
    85    56    54   ar
    86    56    57   ar
    87    54    53   ar
    88   114   117    1
    89    57    55   ar
    90    26    27    1
    91    26    28    1
    92    26    25    1
    93    53    52    1
    94    53    55   ar
    95   125   126    1
    96   126   127    1
    97    22    25    1
    98    22    21    1
    99   117   118    1
   100   119   118   ar
   101   119   121   ar
   102   118   120   ar
   103   121   123   ar
   104   127   128    2
   105    20    18   am
   106    19    18    2
   107   120   122   ar
   108    18    17    1
   109   123   122   ar
   110   123   124    1
   111    17    14    1
   112   132   133    1
   113   136   133    1
   114   136   138    1
   115   136   137    1
   116   133   134    1
   117    14    15    1
   118    14    13    1
   119    15    16    2
   120   139   137    1
   121    12    10    1
   122   134   135    2
   123     5     2    1
   124    10    11    1
   125    10     7    1
   126     2     3    1
   127     2     1    1
   128     6     3   am
   129     6     7    1
   130     3     4    2
   131     7     8    1
   132     8     9    2
