@<TRIPOS>MOLECULE
tmp/6bb0A02.pdb
 126 120 0 0 0
SMALL
GASTEIGER

@<TRIPOS>ATOM
      1  N         36.3490    8.1860   18.8510 N.3    30  VAL30      -0.1245
      2  CA        35.2180    8.9460   19.3890 C.3    30  VAL30       0.1561
      3  C         33.9990    8.7410   18.4930 C.2    30  VAL30       0.2260
      4  O         32.9140    8.4070   18.9710 O.2    30  VAL30      -0.2867
      5  CB        35.5810   10.4400   19.5080 C.3    30  VAL30       0.0252
      6  CG1       34.3690   11.2440   19.9340 C.3    30  VAL30       0.0019
      7  CG2       36.7070   10.6200   20.5170 C.3    30  VAL30       0.0019
      8  N         37.5690   18.7840   19.6780 N.3   129  ASN129     -0.1240
      9  CA        38.2190   19.7670   20.5810 C.3   129  ASN129      0.1653
     10  C         39.0510   20.8700   19.8980 C.2   129  ASN129      0.2266
     11  O         39.5800   20.6370   18.8130 O.2   129  ASN129     -0.2867
     12  CB        39.1100   19.0660   21.6050 C.3   129  ASN129      0.1155
     13  CG        38.3530   18.6760   22.8410 C.2   129  ASN129      0.2627
     14  OD1       37.4910   19.4220   23.3170 O.2   129  ASN129     -0.2716
     15  ND2       38.6590   17.5030   23.3720 N.am  129  ASN129     -0.0877
     16  N         30.2300   15.2860   29.5520 N.3   156  LEU156     -0.1231
     17  CA        31.1570   14.2670   29.9970 C.3   156  LEU156      0.1693
     18  C         31.7880   14.6300   31.3240 C.2   156  LEU156      0.2592
     19  O         31.9490   13.7580   32.1630 O.2   156  LEU156     -0.2718
     20  CB        32.2640   14.0610   28.9760 C.3   156  LEU156      0.0284
     21  CG        33.3320   13.0160   29.2920 C.3   156  LEU156      0.0019
     22  CD1       32.7190   11.6500   29.4720 C.3   156  LEU156      0.0001
     23  CD2       34.3880   12.9760   28.2020 C.3   156  LEU156      0.0001
     24  N         32.1490   15.9080   31.5050 N.am  157  ASP157     -0.1974
     25  CA        32.8050   16.3500   32.7430 C.3   157  ASP157      0.1709
     26  C         31.8660   16.1120   33.9200 C.2   157  ASP157      0.2293
     27  O         32.2770   15.6680   34.9830 O.2   157  ASP157     -0.2864
     28  CB        33.1760   17.8380   32.7060 C.3   157  ASP157      0.1436
     29  CG        33.9280   18.2390   31.4590 C.2   157  ASP157      0.3671
     30  OD1       33.4040   18.0240   30.3290 O.co2 157  ASP157     -0.2456
     31  OD2       35.0120   18.8160   31.6180 O.co2 157  ASP157     -0.2456
     32  N         31.5770   12.3460   34.6850 N.3   160  ARG160     -0.1245
     33  CA        32.7360   11.8680   35.4570 C.3   160  ARG160      0.1563
     34  C         32.6390   12.2340   36.9300 C.2   160  ARG160      0.2260
     35  O         32.9200   11.4100   37.8160 O.2   160  ARG160     -0.2867
     36  CB        34.0130   12.4250   34.8690 C.3   160  ARG160      0.0307
     37  CG        34.4440   11.7230   33.5880 C.3   160  ARG160      0.0489
     38  CD        35.8090   12.2340   33.1630 C.3   160  ARG160      0.2205
     39  NE        36.3850   11.4880   32.0450 N.pl3 160  ARG160     -0.0865
     40  CZ        36.8140   12.0110   30.8910 C.cat 160  ARG160      0.5346
     41  NH1       37.3530   11.2050   29.9730 N.pl3 160  ARG160      0.1354
     42  NH2       36.6910   13.3030   30.6150 N.pl3 160  ARG160      0.1354
     43  N         34.8750   23.3880   28.7830 N.3   184  HIS184     -0.1226
     44  CA        35.1670   21.9500   28.8700 C.3   184  HIS184      0.1752
     45  C         36.6520   21.6960   29.1640 C.2   184  HIS184      0.2597
     46  O         37.5300   22.3330   28.5960 O.2   184  HIS184     -0.2718
     47  CB        34.7470   21.2260   27.5870 C.3   184  HIS184      0.0759
     48  CG        35.3100   19.8540   27.4630 C.ar  184  HIS184      0.0818
     49  ND1       34.8760   18.8010   28.2390 N.ar  184  HIS184     -0.2268
     50  CD2       36.3080   19.3650   26.6890 C.ar  184  HIS184      0.1154
     51  CE1       35.5530   17.7130   27.9210 C.ar  184  HIS184      0.1986
     52  NE2       36.4300   18.0300   26.9830 N.ar  184  HIS184     -0.2212
     53  N         36.9260   20.7720   30.0690 N.am  185  GLY185     -0.1942
     54  CA        38.2850   20.2990   30.2690 C.3   185  GLY185      0.2014
     55  C         38.9410   20.9050   31.4870 C.2   185  GLY185      0.2638
     56  O         38.3900   20.8420   32.5990 O.2   185  GLY185     -0.2714
     57  N         40.1110   21.4970   31.2770 N.am  186  ASP186     -0.1971
     58  CA        40.9610   21.9430   32.3880 C.3   186  ASP186      0.1709
     59  C         40.3530   23.0210   33.2620 C.2   186  ASP186      0.2293
     60  O         40.4620   22.9490   34.4910 O.2   186  ASP186     -0.2864
     61  CB        42.3160   22.4420   31.8710 C.3   186  ASP186      0.1436
     62  CG        43.0920   21.3700   31.1540 C.2   186  ASP186      0.3671
     63  OD1       42.8810   20.1700   31.4420 O.co2 186  ASP186     -0.2456
     64  OD2       43.9110   21.7350   30.2900 O.co2 186  ASP186     -0.2456
     65  N         38.2990   14.7840   38.1760 N.3   225  VAL225     -0.1231
     66  CA        37.6260   14.9080   36.8610 C.3   225  VAL225      0.1692
     67  C         38.6120   15.3490   35.7780 C.2   225  VAL225      0.2591
     68  O         38.6280   14.7540   34.6920 O.2   225  VAL225     -0.2718
     69  CB        36.3920   15.8550   36.8720 C.3   225  VAL225      0.0266
     70  CG1       35.8720   16.1040   35.4630 C.3   225  VAL225      0.0020
     71  CG2       35.2810   15.2720   37.7300 C.3   225  VAL225      0.0020
     72  N         39.4390   16.3630   36.0590 N.am  226  VAL226     -0.1980
     73  CA        40.5150   16.7320   35.0970 C.3   226  VAL226      0.1595
     74  C         41.6530   15.6820   35.0480 C.2   226  VAL226      0.2287
     75  O         42.0930   15.2950   33.9670 O.2   226  VAL226     -0.2864
     76  CB        41.0580   18.1870   35.2500 C.3   226  VAL226      0.0276
     77  CG1       39.9200   19.1650   35.4720 C.3   226  VAL226      0.0022
     78  CG2       42.0930   18.3450   36.3550 C.3   226  VAL226      0.0022
     79  N         40.9970   12.4450   32.9420 N.3   229  ALA229     -0.1231
     80  CA        41.0820   12.4710   31.4860 C.3   229  ALA229      0.1694
     81  C         42.5350   12.3250   31.0090 C.2   229  ALA229      0.2592
     82  O         42.7940   11.6490   30.0150 O.2   229  ALA229     -0.2718
     83  CB        40.5060   13.7580   30.9670 C.3   229  ALA229      0.0304
     84  N         43.4720   12.9590   31.7190 N.am  230  TYR230     -0.1976
     85  CA        44.8980   12.8200   31.3920 C.3   230  TYR230      0.1639
     86  C         45.3800   11.4060   31.6660 C.2   230  TYR230      0.2290
     87  O         46.1690   10.8680   30.8980 O.2   230  TYR230     -0.2864
     88  CB        45.7750   13.8100   32.1790 C.3   230  TYR230      0.0560
     89  CG        45.6590   15.2380   31.7130 C.ar  230  TYR230     -0.0198
     90  CD1       46.3960   15.7020   30.6220 C.ar  230  TYR230     -0.0009
     91  CD2       44.8160   16.1390   32.3750 C.ar  230  TYR230     -0.0009
     92  CE1       46.2970   17.0230   30.2030 C.ar  230  TYR230      0.0417
     93  CE2       44.7030   17.4580   31.9650 C.ar  230  TYR230      0.0417
     94  CZ        45.4470   17.8970   30.8800 C.ar  230  TYR230      0.1957
     95  OH        45.3390   19.2010   30.4720 O.3   230  TYR230     -0.2866
     96  N         44.2260    9.0980   28.8220 N.3   233  ILE233     -0.1245
     97  CA        45.1100    9.2850   27.6500 C.3   233  ILE233      0.1561
     98  C         46.4730    8.6400   27.8700 C.2   233  ILE233      0.2260
     99  O         46.9570    7.9440   26.9970 O.2   233  ILE233     -0.2867
    100  CB        45.3210   10.7610   27.2700 C.3   233  ILE233      0.0252
    101  CG1       43.9920   11.4670   27.0650 C.3   233  ILE233      0.0019
    102  CG2       46.1600   10.8660   25.9960 C.3   233  ILE233      0.0019
    103  CD1       43.0420   10.7440   26.1540 C.3   233  ILE233      0.0001
    104  N         45.7860    5.8900   25.5340 N.3   237  GLY237     -0.1210
    105  CA        46.0780    6.7000   24.3380 C.3   237  GLY237      0.1956
    106  C         44.9880    7.6400   23.8210 C.2   237  GLY237      0.2612
    107  O         45.2540    8.4810   22.9780 O.2   237  GLY237     -0.2717
    108  N         43.7640    7.4900   24.3130 N.am  238  TYR238     -0.1962
    109  CA        42.5980    8.2300   23.8310 C.3   238  TYR238      0.1771
    110  C         41.4220    7.8730   24.7560 C.2   238  TYR238      0.2620
    111  O         41.5010    6.8890   25.4910 O.2   238  TYR238     -0.2715
    112  CB        42.2670    7.8690   22.3780 C.3   238  TYR238      0.0574
    113  CG        41.9800    6.4080   22.1540 C.ar  238  TYR238     -0.0198
    114  CD1       40.6850    5.8990   22.3210 C.ar  238  TYR238     -0.0009
    115  CD2       42.9950    5.5240   21.7670 C.ar  238  TYR238     -0.0009
    116  CE1       40.4160    4.5440   22.1440 C.ar  238  TYR238      0.0417
    117  CE2       42.7310    4.1710   21.5700 C.ar  238  TYR238      0.0417
    118  CZ        41.4390    3.6910   21.7520 C.ar  238  TYR238      0.1957
    119  OH        41.1710    2.3700   21.5760 O.3   238  TYR238     -0.2866
    120  N         40.3650    8.6790   24.7530 N.am  239  THR239     -0.1951
    121  CA        39.1220    8.3170   25.4470 C.3   239  THR239      0.1897
    122  C         38.0770    8.0670   24.3500 C.2   239  THR239      0.2313
    123  O         38.0980    8.7000   23.2900 O.2   239  THR239     -0.2863
    124  CB        38.6210    9.4100   26.4110 C.3   239  THR239      0.1794
    125  OG1       38.0480   10.4910   25.6750 O.3   239  THR239     -0.2208
    126  CG2       39.7500    9.9530   27.2450 C.3   239  THR239      0.0378
@<TRIPOS>BOND
     1     3     4    2
     2     3     2    1
     3    11    10    2
     4     1     2    1
     5     2     5    1
     6     5     6    1
     7     5     7    1
     8     8     9    1
     9    10     9    1
    10     9    12    1
    11   117   118   ar
    12   117   115   ar
    13   119   118    1
    14    12    13    1
    15   118   116   ar
    16   115   113   ar
    17   116   114   ar
    18   113   114   ar
    19   113   112    1
    20   112   109    1
    21    13    14    2
    22    13    15   am
    23   107   106    2
    24   123   122    2
    25   106   108   am
    26   106   105    1
    27   109   108    1
    28   109   110    1
    29   105   104    1
    30   122   121    1
    31   120   110   am
    32   120   121    1
    33   110   111    2
    34   121   124    1
    35   125   124    1
    36   102   100    1
    37   103   101    1
    38   124   126    1
    39    50    52   ar
    40    50    48   ar
    41    52    51   ar
    42    99    98    2
    43   101   100    1
    44   100    97    1
    45    48    47    1
    46    48    49   ar
    47    47    44    1
    48    97    98    1
    49    97    96    1
    50    51    49   ar
    51    23    21    1
    52    46    45    2
    53    43    44    1
    54    44    45    1
    55    20    21    1
    56    20    17    1
    57    45    53   am
    58    21    22    1
    59    16    17    1
    60    41    40    1
    61    17    18    1
    62    82    81    2
    63    53    54    1
    64    92    90   ar
    65    92    94   ar
    66    54    55    1
    67    64    62   ar
    68    30    29   ar
    69    95    94    1
    70    42    40    1
    71    90    89   ar
    72    94    93   ar
    73    40    39    2
    74    87    86    2
    75    83    80    1
    76    81    80    1
    77    81    84   am
    78    62    63   ar
    79    62    61    1
    80    57    55   am
    81    57    58    1
    82    18    24   am
    83    18    19    2
    84    85    86    1
    85    85    84    1
    86    85    88    1
    87    29    31   ar
    88    29    28    1
    89    80    79    1
    90    55    56    2
    91    24    25    1
    92    89    88    1
    93    89    91   ar
    94    61    58    1
    95    93    91   ar
    96    39    38    1
    97    58    59    1
    98    28    25    1
    99    25    26    1
   100    38    37    1
   101    59    60    2
   102    37    36    1
   103    26    27    2
   104    75    74    2
   105    32    33    1
   106    68    67    2
   107    36    33    1
   108    74    73    1
   109    73    76    1
   110    73    72    1
   111    76    77    1
   112    76    78    1
   113    33    34    1
   114    70    69    1
   115    67    72   am
   116    67    66    1
   117    66    69    1
   118    66    65    1
   119    69    71    1
   120    34    35    2
