@<TRIPOS>MOLECULE
tmp/6bb1B01.pdb
 141 135 0 0 0
SMALL
GASTEIGER

@<TRIPOS>ATOM
      1  N         28.7840    0.6590  154.6030 N.3    30  VAL30      -0.1245
      2  CA        29.2990    1.5190  153.5210 C.3    30  VAL30       0.1561
      3  C         29.9180    0.6740  152.3940 C.2    30  VAL30       0.2260
      4  O         29.5070    0.8040  151.2350 O.2    30  VAL30      -0.2867
      5  CB        30.2450    2.6290  154.0610 C.3    30  VAL30       0.0252
      6  CG1       30.9300    3.4050  152.9270 C.3    30  VAL30       0.0019
      7  CG2       29.4830    3.5780  154.9700 C.3    30  VAL30       0.0019
      8  N         39.2960    9.6640  166.7550 N.3    99  LEU99      -0.1245
      9  CA        39.2120    8.4010  166.0220 C.3    99  LEU99       0.1561
     10  C         40.3400    8.2090  164.9910 C.2    99  LEU99       0.2260
     11  O         40.6540    7.0630  164.6440 O.2    99  LEU99      -0.2867
     12  CB        37.8130    8.3490  165.3440 C.3    99  LEU99       0.0270
     13  CG        37.5900    7.4110  164.1480 C.3    99  LEU99       0.0019
     14  CD1       37.3390    5.9630  164.6010 C.3    99  LEU99       0.0001
     15  CD2       36.4770    7.9260  163.2450 C.3    99  LEU99       0.0001
     16  N         36.3590    7.7370  157.4330 N.3   128  ASN128     -0.1226
     17  CA        36.4310    9.0460  158.0930 C.3   128  ASN128      0.1770
     18  C         37.4990    9.1900  159.1830 C.2   128  ASN128      0.2439
     19  O         37.7580    8.2110  159.8800 O.2   128  ASN128     -0.2733
     20  CB        35.0750    9.4480  158.6610 C.3   128  ASN128      0.1168
     21  CG        34.2200   10.2020  157.6940 C.2   128  ASN128      0.2627
     22  OD1       34.6870   11.0600  156.9420 O.2   128  ASN128     -0.2716
     23  ND2       32.9390    9.9310  157.7270 N.am  128  ASN128     -0.0877
     24  N         38.0650   10.4140  159.4160 N.am  129  PRO129     -0.2729
     25  CA        37.8790   11.6790  158.6660 C.3   129  PRO129      0.1401
     26  C         38.5650   11.5300  157.3220 C.2   129  PRO129      0.2269
     27  O         39.7910   11.3460  157.2470 O.2   129  PRO129     -0.2865
     28  CB        38.5110   12.7570  159.5780 C.3   129  PRO129      0.0296
     29  CG        38.9070   12.0450  160.8470 C.3   129  PRO129      0.0237
     30  CD        39.0690   10.5950  160.4770 C.3   129  PRO129      0.0939
     31  N         29.3720   13.5600  148.5930 N.3   155  LEU155     -0.1231
     32  CA        28.1040   13.2970  149.2760 C.3   155  LEU155      0.1693
     33  C         27.4350   14.5980  149.7540 C.2   155  LEU155      0.2592
     34  O         26.2230   14.7420  149.6270 O.2   155  LEU155     -0.2718
     35  CB        28.2950   12.2990  150.4360 C.3   155  LEU155      0.0284
     36  CG        27.0490   11.8720  151.2380 C.3   155  LEU155      0.0019
     37  CD1       25.9930   11.2530  150.3510 C.3   155  LEU155      0.0001
     38  CD2       27.4240   10.9030  152.3460 C.3   155  LEU155      0.0001
     39  N         28.2290   15.5440  150.2790 N.am  156  ASP156     -0.1974
     40  CA        27.7740   16.8510  150.7540 C.3   156  ASP156      0.1709
     41  C         27.1010   17.5690  149.6030 C.2   156  ASP156      0.2293
     42  O         25.9860   18.0740  149.7480 O.2   156  ASP156     -0.2864
     43  CB        28.9800   17.6970  151.2440 C.3   156  ASP156      0.1436
     44  CG        29.9220   17.0090  152.2330 C.2   156  ASP156      0.3671
     45  OD1       30.4060   15.9030  151.9190 O.co2 156  ASP156     -0.2456
     46  OD2       30.1520   17.5740  153.3340 O.co2 156  ASP156     -0.2456
     47  N         23.7900   15.7860  148.4920 N.3   159  ARG159     -0.1245
     48  CA        22.7420   16.1240  149.4690 C.3   159  ARG159      0.1563
     49  C         22.2240   17.5430  149.2640 C.2   159  ARG159      0.2260
     50  O         21.0150   17.7720  149.3180 O.2   159  ARG159     -0.2867
     51  CB        23.2640   15.9610  150.9030 C.3   159  ARG159      0.0307
     52  CG        23.2070   14.5230  151.3820 C.3   159  ARG159      0.0489
     53  CD        23.7660   14.4090  152.7670 C.3   159  ARG159      0.2205
     54  NE        23.5310   13.0900  153.3420 N.pl3 159  ARG159     -0.0865
     55  CZ        24.3760   12.4950  154.1770 C.cat 159  ARG159      0.5346
     56  NH1       24.1040   11.2950  154.6620 N.pl3 159  ARG159      0.1354
     57  NH2       25.4930   13.1010  154.5400 N.pl3 159  ARG159      0.1354
     58  N         35.1540   17.8070  154.2960 N.3   183  HIS183     -0.1226
     59  CA        33.9540   16.9870  154.3470 C.3   183  HIS183      0.1752
     60  C         33.3400   17.0280  155.7440 C.2   183  HIS183      0.2597
     61  O         34.0490   16.8770  156.7380 O.2   183  HIS183     -0.2718
     62  CB        34.2830   15.5370  153.9630 C.3   183  HIS183      0.0759
     63  CG        33.1780   14.5790  154.2770 C.ar  183  HIS183      0.0818
     64  ND1       31.9780   14.6270  153.5960 N.ar  183  HIS183     -0.2268
     65  CD2       33.1000   13.6240  155.2340 C.ar  183  HIS183      0.1154
     66  CE1       31.2150   13.7010  154.1450 C.ar  183  HIS183      0.1986
     67  NE2       31.8560   13.0560  155.1180 N.ar  183  HIS183     -0.2212
     68  N         32.0270   17.2020  155.8060 N.am  184  GLY184     -0.1942
     69  CA        31.3200   17.2260  157.0720 C.3   184  GLY184      0.2014
     70  C         30.8850   18.5970  157.5490 C.2   184  GLY184      0.2638
     71  O         30.4500   19.4270  156.7470 O.2   184  GLY184     -0.2714
     72  N         31.0030   18.8300  158.8730 N.am  185  ASP185     -0.1971
     73  CA        30.5840   20.0610  159.5650 C.3   185  ASP185      0.1709
     74  C         31.1670   21.3490  159.0160 C.2   185  ASP185      0.2293
     75  O         30.4790   22.3690  158.9850 O.2   185  ASP185     -0.2864
     76  CB        30.8910   19.9700  161.0750 C.3   185  ASP185      0.1436
     77  CG        30.3660   18.7350  161.7850 C.2   185  ASP185      0.3671
     78  OD1       29.2710   18.2680  161.4270 O.co2 185  ASP185     -0.2456
     79  OD2       31.0320   18.2690  162.7330 O.co2 185  ASP185     -0.2456
     80  N         22.1140   20.1760  155.1610 N.3   224  VAL224     -0.1231
     81  CA        23.0200   19.1230  154.6660 C.3   224  VAL224      0.1692
     82  C         23.6910   18.4980  155.8860 C.2   224  VAL224      0.2591
     83  O         23.6520   17.2750  156.0460 O.2   224  VAL224     -0.2718
     84  CB        24.0490   19.6300  153.6180 C.3   224  VAL224      0.0266
     85  CG1       25.1340   18.5840  153.3260 C.3   224  VAL224      0.0020
     86  CG2       23.3560   20.0570  152.3380 C.3   224  VAL224      0.0020
     87  N         24.2290   19.3510  156.7800 N.am  225  VAL225     -0.1980
     88  CA        24.8750   18.9350  158.0260 C.3   225  VAL225      0.1595
     89  C         23.8360   18.2450  158.9380 C.2   225  VAL225      0.2287
     90  O         24.0880   17.1450  159.4320 O.2   225  VAL225     -0.2864
     91  CB        25.6160   20.1260  158.7170 C.3   225  VAL225      0.0276
     92  CG1       26.2800   19.6870  160.0190 C.3   225  VAL225      0.0022
     93  CG2       26.6490   20.7620  157.7820 C.3   225  VAL225      0.0022
     94  N         22.7780   14.5250  157.8650 N.3   228  ALA228     -0.1231
     95  CA        23.7780   13.5130  158.1990 C.3   228  ALA228      0.1694
     96  C         23.5610   12.9870  159.6240 C.2   228  ALA228      0.2592
     97  O         23.4540   11.7710  159.8270 O.2   228  ALA228     -0.2718
     98  CB        25.1680   14.1110  158.0550 C.3   228  ALA228      0.0304
     99  N         23.4320   13.9240  160.6030 N.am  229  TYR229     -0.1976
    100  CA        23.1450   13.6230  162.0130 C.3   229  TYR229      0.1639
    101  C         21.7660   12.9680  162.1530 C.2   229  TYR229      0.2290
    102  O         21.6390   11.9910  162.8810 O.2   229  TYR229     -0.2864
    103  CB        23.2540   14.9070  162.8800 C.3   229  TYR229      0.0560
    104  CG        24.6850   15.3690  163.0640 C.ar  229  TYR229     -0.0198
    105  CD1       25.5180   14.7720  164.0110 C.ar  229  TYR229     -0.0009
    106  CD2       25.2260   16.3660  162.2560 C.ar  229  TYR229     -0.0009
    107  CE1       26.8460   15.1690  164.1630 C.ar  229  TYR229      0.0417
    108  CE2       26.5560   16.7730  162.3990 C.ar  229  TYR229      0.0417
    109  CZ        27.3650   16.1580  163.3460 C.ar  229  TYR229      0.1957
    110  OH        28.6840   16.5100  163.4930 O.3   229  TYR229     -0.2866
    111  N         21.8010    9.2190  160.9100 N.3   232  ILE232     -0.1245
    112  CA        22.4930    8.4520  161.9500 C.3   232  ILE232      0.1561
    113  C         21.5940    8.2750  163.1940 C.2   232  ILE232      0.2260
    114  O         21.5250    7.1800  163.7480 O.2   232  ILE232     -0.2867
    115  CB        23.8970    9.0650  162.2450 C.3   232  ILE232      0.0252
    116  CG1       24.9370    8.3720  161.3840 C.3   232  ILE232      0.0019
    117  CG2       24.3280    8.9450  163.7040 C.3   232  ILE232      0.0019
    118  CD1       25.0280    8.8570  160.1430 C.3   232  ILE232      0.0001
    119  N         20.9360    4.7390  162.4470 N.3   236  GLY236     -0.1210
    120  CA        22.2140    4.3660  163.0520 C.3   236  GLY236      0.1956
    121  C         23.4640    4.5150  162.2170 C.2   236  GLY236      0.2612
    122  O         24.5620    4.4130  162.7560 O.2   236  GLY236     -0.2717
    123  N         23.3130    4.7260  160.9060 N.am  237  TYR237     -0.1962
    124  CA        24.4190    4.8600  159.9490 C.3   237  TYR237      0.1771
    125  C         23.8480    5.3390  158.6210 C.2   237  TYR237      0.2620
    126  O         22.6340    5.4230  158.4870 O.2   237  TYR237     -0.2715
    127  CB        25.1620    3.4910  159.7640 C.3   237  TYR237      0.0574
    128  CG        24.2460    2.3710  159.2870 C.ar  237  TYR237     -0.0198
    129  CD1       23.4820    1.6340  160.1920 C.ar  237  TYR237     -0.0009
    130  CD2       24.0930    2.0970  157.9280 C.ar  237  TYR237     -0.0009
    131  CE1       22.6120    0.6310  159.7600 C.ar  237  TYR237      0.0417
    132  CE2       23.2290    1.0960  157.4850 C.ar  237  TYR237      0.0417
    133  CZ        22.4780    0.3770  158.4030 C.ar  237  TYR237      0.1957
    134  OH        21.6100   -0.5900  157.9620 O.3   237  TYR237     -0.2866
    135  N         24.7250    5.6380  157.6430 N.am  238  THR238     -0.1951
    136  CA        24.3700    6.0070  156.2680 C.3   238  THR238      0.1897
    137  C         25.0620    4.9870  155.3650 C.2   238  THR238      0.2313
    138  O         26.2350    4.6430  155.5930 O.2   238  THR238     -0.2863
    139  CB        24.7680    7.4500  155.8940 C.3   238  THR238      0.1794
    140  OG1       26.1710    7.5390  155.6400 O.3   238  THR238     -0.2208
    141  CG2       24.3290    8.4750  156.9120 C.3   238  THR238      0.0378
@<TRIPOS>BOND
     1    47    48    1
     2    31    32    1
     3    49    50    2
     4    49    48    1
     5    32    33    1
     6    32    35    1
     7    48    51    1
     8    41    42    2
     9    41    40    1
    10    34    33    2
    11    33    39   am
    12    39    40    1
    13    37    36    1
    14    35    36    1
    15    40    43    1
    16    51    52    1
    17     4     3    2
    18    36    38    1
    19    43    44    1
    20    52    53    1
    21    45    44   ar
    22    44    46   ar
    23    86    84    1
    24     3     2    1
    25    53    54    1
    26     6     5    1
    27    85    84    1
    28    54    55    2
    29     2     5    1
    30     2     1    1
    31    64    66   ar
    32    64    63   ar
    33    84    81    1
    34    62    63    1
    35    62    59    1
    36     5     7    1
    37    66    67   ar
    38    55    57    1
    39    55    56    1
    40    63    65   ar
    41    58    59    1
    42    59    60    1
    43    81    80    1
    44    81    82    1
    45    67    65   ar
    46   137   138    2
    47   137   136    1
    48   140   139    1
    49    60    68   am
    50    60    61    2
    51    68    69    1
    52    82    83    2
    53    82    87   am
    54   139   136    1
    55   139   141    1
    56   136   135    1
    57    71    70    2
    58    87    88    1
    59    22    21    2
    60    69    70    1
    61    27    26    2
    62    26    25    1
    63    16    17    1
    64   132   130   ar
    65   132   133   ar
    66    70    72   am
    67   135   125   am
    68    21    23   am
    69    21    20    1
    70    93    91    1
    71    94    95    1
    72   130   128   ar
    73   134   133    1
    74    88    91    1
    75    88    89    1
    76    98    95    1
    77    17    20    1
    78    17    18    1
    79    95    96    1
    80   133   131   ar
    81   126   125    2
    82   125   124    1
    83    25    24    1
    84    25    28    1
    85    91    92    1
    86    72    73    1
    87    89    90    2
    88    75    74    2
    89    74    73    1
    90    18    24   am
    91    18    19    2
    92   128   127    1
    93   128   129   ar
    94    24    30    1
    95    73    76    1
    96    28    29    1
    97    96    97    2
    98    96    99   am
    99   131   129   ar
   100   127   124    1
   101   124   123    1
   102   118   116    1
   103    30    29    1
   104    99   100    1
   105   123   121   am
   106   111   112    1
   107    76    77    1
   108   116   115    1
   109    78    77   ar
   110    77    79   ar
   111   112   115    1
   112   112   113    1
   113   100   101    1
   114   100   103    1
   115   101   102    2
   116   121   122    2
   117   121   120    1
   118   115   117    1
   119   106   108   ar
   120   106   104   ar
   121   108   109   ar
   122   119   120    1
   123   103   104    1
   124   104   105   ar
   125   113   114    2
   126    15    13    1
   127   109   110    1
   128   109   107   ar
   129   105   107   ar
   130    13    14    1
   131    13    12    1
   132    11    10    2
   133    10     9    1
   134    12     9    1
   135     9     8    1
