@<TRIPOS>MOLECULE
tmp/6bb3C01.pdb
 145 139 0 0 0
SMALL
GASTEIGER

@<TRIPOS>ATOM
      1  N        -11.9920    1.9710   59.9880 N.3    98  ARG98      -0.1245
      2  CA       -10.6670    2.0080   59.3640 C.3    98  ARG98       0.1563
      3  C         -9.7060    1.0560   60.0590 C.2    98  ARG98       0.2260
      4  O         -8.8920    0.4370   59.3790 O.2    98  ARG98      -0.2867
      5  CB       -10.0920    3.4420   59.2690 C.3    98  ARG98       0.0307
      6  CG       -11.0700    4.5810   58.8620 C.3    98  ARG98       0.0489
      7  CD       -12.0290    4.3010   57.6990 C.3    98  ARG98       0.2205
      8  NE       -11.3480    3.8750   56.4740 N.pl3  98  ARG98      -0.0865
      9  CZ       -11.9650    3.3740   55.4090 C.cat  98  ARG98       0.5346
     10  NH1      -13.2850    3.2250   55.4060 N.pl3  98  ARG98       0.1354
     11  NH2      -11.2690    3.0220   54.3380 N.pl3  98  ARG98       0.1354
     12  N        -10.6510   -2.0110   58.6840 N.3   101  LEU101     -0.1245
     13  CA       -10.2100   -2.0660   57.2760 C.3   101  LEU101      0.1561
     14  C         -8.7170   -2.4130   57.2530 C.2   101  LEU101      0.2260
     15  O         -8.2310   -3.0230   56.2990 O.2   101  LEU101     -0.2867
     16  CB       -10.4650   -0.7380   56.5470 C.3   101  LEU101      0.0270
     17  CG       -10.3330   -0.7810   55.0260 C.3   101  LEU101      0.0019
     18  CD1      -11.6200   -0.3480   54.3510 C.3   101  LEU101      0.0001
     19  CD2       -9.1480    0.0430   54.5500 C.3   101  LEU101      0.0001
     20  N         -2.7240   -1.1840   50.6120 N.3   130  ASN130     -0.1226
     21  CA        -3.0050   -0.0810   51.5310 C.3   130  ASN130      0.1770
     22  C         -3.7330   -0.4820   52.8110 C.2   130  ASN130      0.2439
     23  O         -4.5660   -1.3830   52.7390 O.2   130  ASN130     -0.2733
     24  CB        -3.8230    0.9840   50.8230 C.3   130  ASN130      0.1168
     25  CG        -2.9900    2.0340   50.1580 C.2   130  ASN130      0.2627
     26  OD1       -2.0290    2.5620   50.7330 O.2   130  ASN130     -0.2716
     27  ND2       -3.3730    2.3790   48.9410 N.am  130  ASN130     -0.0877
     28  N         -3.5400    0.2220   53.9710 N.am  131  PRO131     -0.2729
     29  CA        -2.5800    1.3230   54.2280 C.3   131  PRO131      0.1401
     30  C         -1.1600    0.7930   54.2920 C.2   131  PRO131      0.2269
     31  O         -0.7630    0.1210   55.2480 O.2   131  PRO131     -0.2865
     32  CB        -3.1160    1.9760   55.5070 C.3   131  PRO131      0.0296
     33  CG        -3.8550    0.8900   56.2170 C.3   131  PRO131      0.0237
     34  CD        -4.2830   -0.1390   55.1970 C.3   131  PRO131      0.0939
     35  N          4.9780    6.6180   44.6160 N.3   157  LEU157     -0.1231
     36  CA         3.9830    7.1370   43.6750 C.3   157  LEU157      0.1693
     37  C          3.7350    8.6390   43.8840 C.2   157  LEU157      0.2592
     38  O          3.6110    9.3760   42.8980 O.2   157  LEU157     -0.2718
     39  CB         2.6810    6.3120   43.7230 C.3   157  LEU157      0.0284
     40  CG         1.5310    6.7520   42.8120 C.3   157  LEU157      0.0019
     41  CD1        1.9270    6.7060   41.3420 C.3   157  LEU157      0.0001
     42  CD2        0.2990    5.9200   43.0600 C.3   157  LEU157      0.0001
     43  N          3.7000    9.0860   45.1550 N.am  158  ASP158     -0.1974
     44  CA         3.5240   10.4970   45.5420 C.3   158  ASP158      0.1709
     45  C          4.6470   11.3390   44.9160 C.2   158  ASP158      0.2293
     46  O          4.3530   12.3780   44.3320 O.2   158  ASP158     -0.2864
     47  CB         3.5630   10.6770   47.0750 C.3   158  ASP158      0.1436
     48  CG         2.6740    9.7380   47.8760 C.2   158  ASP158      0.3671
     49  OD1        2.8560    8.4980   47.7570 O.co2 158  ASP158     -0.2456
     50  OD2        1.8430   10.2410   48.6720 O.co2 158  ASP158     -0.2456
     51  N          4.3420   11.4750   40.9950 N.3   161  ARG161     -0.1245
     52  CA         3.2510   12.4010   40.6510 C.3   161  ARG161      0.1563
     53  C          3.6950   13.8550   40.8260 C.2   161  ARG161      0.2260
     54  O          3.4150   14.6970   39.9640 O.2   161  ARG161     -0.2867
     55  CB         2.0200   12.1340   41.5080 C.3   161  ARG161      0.0307
     56  CG         1.2060   10.9550   41.0320 C.3   161  ARG161      0.0489
     57  CD        -0.0370   10.7490   41.8500 C.3   161  ARG161      0.2205
     58  NE        -0.8930    9.7350   41.2410 N.pl3 161  ARG161     -0.0865
     59  CZ        -1.6690    8.8920   41.9200 C.cat 161  ARG161      0.5346
     60  NH1       -2.4200    8.0090   41.2790 N.pl3 161  ARG161      0.1354
     61  NH2       -1.6830    8.9130   43.2440 N.pl3 161  ARG161      0.1354
     62  N          2.3720    7.7810   53.3460 N.3   185  HIS185     -0.1226
     63  CA         1.7960    7.7210   52.0110 C.3   185  HIS185      0.1752
     64  C          0.3340    8.2030   52.0110 C.2   185  HIS185      0.2597
     65  O         -0.4380    7.8590   52.9110 O.2   185  HIS185     -0.2718
     66  CB         1.8910    6.2950   51.4640 C.3   185  HIS185      0.0759
     67  CG         1.0450    6.0650   50.2540 C.ar  185  HIS185      0.0818
     68  ND1        1.4190    6.5450   49.0240 N.ar  185  HIS185     -0.2268
     69  CD2       -0.1600    5.4600   50.1420 C.ar  185  HIS185      0.1154
     70  CE1        0.4470    6.2110   48.1970 C.ar  185  HIS185      0.1986
     71  NE2       -0.5190    5.5470   48.8250 N.ar  185  HIS185     -0.2212
     72  N         -0.0110    8.9960   50.9990 N.am  186  GLY186     -0.1942
     73  CA        -1.3570    9.5100   50.8040 C.3   186  GLY186      0.2014
     74  C         -1.5670   10.9420   51.2420 C.2   186  GLY186      0.2638
     75  O         -0.6780   11.7750   51.0870 O.2   186  GLY186     -0.2714
     76  N         -2.7520   11.2190   51.8060 N.am  187  ASP187     -0.1971
     77  CA        -3.2200   12.5300   52.2580 C.3   187  ASP187      0.1709
     78  C         -2.2630   13.3000   53.1670 C.2   187  ASP187      0.2293
     79  O         -2.1650   14.5170   53.0350 O.2   187  ASP187     -0.2864
     80  CB        -4.5990   12.4020   52.9610 C.3   187  ASP187      0.1436
     81  CG        -5.7430   11.8550   52.1200 C.2   187  ASP187      0.3671
     82  OD1       -5.7580   12.1040   50.9100 O.co2 187  ASP187     -0.2456
     83  OD2       -6.6550   11.2260   52.6940 O.co2 187  ASP187     -0.2456
     84  N         -1.2200   16.7510   43.8510 N.3   226  VAL226     -0.1231
     85  CA        -0.8340   15.3370   43.8980 C.3   226  VAL226      0.1692
     86  C         -2.0000   14.6110   44.5580 C.2   226  VAL226      0.2591
     87  O         -2.5540   13.6670   43.9780 O.2   226  VAL226     -0.2718
     88  CB         0.4760   15.0850   44.6830 C.3   226  VAL226      0.0266
     89  CG1        0.6530   13.6010   45.0030 C.3   226  VAL226      0.0020
     90  CG2        1.6860   15.6210   43.9320 C.3   226  VAL226      0.0020
     91  N         -2.3880   15.0800   45.7660 N.am  227  VAL227     -0.1980
     92  CA        -3.5080   14.5280   46.5380 C.3   227  VAL227      0.1595
     93  C         -4.7680   14.5480   45.6940 C.2   227  VAL227      0.2287
     94  O         -5.3760   13.4950   45.5040 O.2   227  VAL227     -0.2864
     95  CB        -3.6790   15.2480   47.9010 C.3   227  VAL227      0.0276
     96  CG1       -4.9330   14.7770   48.6410 C.3   227  VAL227      0.0022
     97  CG2       -2.4270   15.0720   48.7680 C.3   227  VAL227      0.0022
     98  N         -4.9410   12.0470   42.6130 N.3   230  ALA230     -0.1231
     99  CA        -5.2100   10.6830   43.0730 C.3   230  ALA230      0.1694
    100  C         -6.7110   10.4400   43.1970 C.2   230  ALA230      0.2592
    101  O         -7.1920    9.4160   42.7060 O.2   230  ALA230     -0.2718
    102  CB        -4.5270   10.4360   44.4080 C.3   230  ALA230      0.0304
    103  N         -7.4550   11.4000   43.7900 N.am  231  TYR231     -0.1976
    104  CA        -8.9170   11.3090   43.9290 C.3   231  TYR231      0.1639
    105  C         -9.5810   11.4410   42.5740 C.2   231  TYR231      0.2290
    106  O        -10.5710   10.7580   42.3270 O.2   231  TYR231     -0.2864
    107  CB        -9.4500   12.3930   44.8900 C.3   231  TYR231      0.0560
    108  CG        -9.1870   12.0590   46.3420 C.ar  231  TYR231     -0.0198
    109  CD1       -7.9530   12.3280   46.9280 C.ar  231  TYR231     -0.0009
    110  CD2      -10.1630   11.4500   47.1250 C.ar  231  TYR231     -0.0009
    111  CE1       -7.6880   11.9760   48.2490 C.ar  231  TYR231      0.0417
    112  CE2       -9.9170   11.1120   48.4550 C.ar  231  TYR231      0.0417
    113  CZ        -8.6770   11.3760   49.0130 C.ar  231  TYR231      0.1957
    114  OH        -8.4320   11.0400   50.3220 O.3   231  TYR231     -0.2866
    115  N         -9.4030    8.1320   40.5300 N.3   234  ILE234     -0.1245
    116  CA       -10.3820    7.2070   41.1250 C.3   234  ILE234      0.1561
    117  C        -11.8100    7.5500   40.6950 C.2   234  ILE234      0.2260
    118  O        -12.5480    6.6580   40.3030 O.2   234  ILE234     -0.2867
    119  CB       -10.2230    7.0950   42.6750 C.3   234  ILE234      0.0252
    120  CG1       -8.7990    6.6420   43.0880 C.3   234  ILE234      0.0019
    121  CG2      -11.2990    6.2170   43.3240 C.3   234  ILE234      0.0019
    122  CD1       -8.1690    5.5290   42.3300 C.3   234  ILE234      0.0001
    123  N        -12.0660    4.7240   38.2770 N.3   238  GLY238     -0.1210
    124  CA       -12.4040    3.8020   39.3660 C.3   238  GLY238      0.1956
    125  C        -11.2580    3.1860   40.1370 C.2   238  GLY238      0.2612
    126  O        -11.4870    2.6040   41.1920 O.2   238  GLY238     -0.2717
    127  N        -10.0150    3.2960   39.6220 N.am  239  TYR239     -0.1962
    128  CA        -8.8080    2.7100   40.2310 C.3   239  TYR239      0.1771
    129  C         -7.5520    3.3300   39.6020 C.2   239  TYR239      0.2620
    130  O         -7.6560    4.0840   38.6490 O.2   239  TYR239     -0.2715
    131  CB        -8.7930    1.1690   40.0340 C.3   239  TYR239      0.0574
    132  CG        -8.8510    0.7380   38.5860 C.ar  239  TYR239     -0.0198
    133  CD1      -10.0670    0.6060   37.9240 C.ar  239  TYR239     -0.0009
    134  CD2       -7.6850    0.5050   37.8580 C.ar  239  TYR239     -0.0009
    135  CE1      -10.1240    0.2630   36.5720 C.ar  239  TYR239      0.0417
    136  CE2       -7.7300    0.1240   36.5170 C.ar  239  TYR239      0.0417
    137  CZ        -8.9540    0.0030   35.8780 C.ar  239  TYR239      0.1957
    138  OH        -9.0180   -0.3430   34.5450 O.3   239  TYR239     -0.2866
    139  N         -6.3760    2.9950   40.1200 N.am  240  THR240     -0.1951
    140  CA        -5.0930    3.4500   39.5740 C.3   240  THR240      0.1897
    141  C         -4.2570    2.1980   39.2550 C.2   240  THR240      0.2313
    142  O         -4.2210    1.2680   40.0590 O.2   240  THR240     -0.2863
    143  CB        -4.3980    4.4630   40.5020 C.3   240  THR240      0.1794
    144  OG1       -3.1090    4.7800   39.9760 O.3   240  THR240     -0.2208
    145  CG2       -4.2020    3.9320   41.8850 C.3   240  THR240      0.0378
@<TRIPOS>BOND
     1   138   137    1
     2   137   136   ar
     3   137   135   ar
     4   136   134   ar
     5   135   133   ar
     6   134   132   ar
     7   133   132   ar
     8   123   124    1
     9   132   131    1
    10   130   129    2
    11   141   140    1
    12   141   142    2
    13   124   125    1
    14   140   139    1
    15   140   143    1
    16   129   139   am
    17   129   128    1
    18   127   125   am
    19   127   128    1
    20    54    53    2
    21   144   143    1
    22   131   128    1
    23   125   126    2
    24   118   117    2
    25   143   145    1
    26   115   116    1
    27    52    53    1
    28    52    51    1
    29    52    55    1
    30   117   116    1
    31    56    55    1
    32    56    57    1
    33   116   119    1
    34    58    57    1
    35    58    59    2
    36    60    59    1
    37    41    40    1
    38    59    61    1
    39   106   105    2
    40   122   120    1
    41   105   104    1
    42    98    99    1
    43   119   120    1
    44   119   121    1
    45   101   100    2
    46    40    42    1
    47    40    39    1
    48    38    37    2
    49    99   100    1
    50    99   102    1
    51   100   103   am
    52    36    39    1
    53    36    37    1
    54    36    35    1
    55   103   104    1
    56    84    85    1
    57    37    43   am
    58    85    86    1
    59    85    88    1
    60   104   107    1
    61    90    88    1
    62    87    86    2
    63    46    45    2
    64    86    91   am
    65    88    89    1
    66   107   108    1
    67    45    44    1
    68    43    44    1
    69    94    93    2
    70    44    47    1
    71    93    92    1
    72    91    92    1
    73   108   109   ar
    74   108   110   ar
    75    92    95    1
    76   109   111   ar
    77    47    48    1
    78   110   112   ar
    79    49    48   ar
    80    48    50   ar
    81    95    96    1
    82    95    97    1
    83    70    71   ar
    84    70    68   ar
    85   111   113   ar
    86   112   113   ar
    87    71    69   ar
    88    27    25   am
    89   113   114    1
    90    68    67   ar
    91    69    67   ar
    92    25    26    2
    93    25    24    1
    94    67    66    1
    95    20    21    1
    96    73    72    1
    97    73    74    1
    98    24    21    1
    99    82    81   ar
   100    72    64   am
   101    75    74    2
   102    74    76   am
   103    66    63    1
   104    21    22    1
   105    76    77    1
   106    63    64    1
   107    63    62    1
   108    64    65    2
   109    81    83   ar
   110    81    80    1
   111    77    80    1
   112    77    78    1
   113    23    22    2
   114    22    28   am
   115    79    78    2
   116    28    29    1
   117    28    34    1
   118    29    30    1
   119    29    32    1
   120    30    31    2
   121    11     9    1
   122    18    17    1
   123    19    17    1
   124    17    16    1
   125    34    33    1
   126    10     9    1
   127     9     8    2
   128    32    33    1
   129    15    14    2
   130     8     7    1
   131    16    13    1
   132    14    13    1
   133    13    12    1
   134     7     6    1
   135     6     5    1
   136     5     2    1
   137     2     1    1
   138     2     3    1
   139     4     3    2
