@<TRIPOS>MOLECULE
tmp/6bb7A00.pdb
 99 92 0 0 0
SMALL
GASTEIGER

@<TRIPOS>ATOM
      1  N          0.9650   22.7920   50.2700 N.3   113  LEU113     -0.1231
      2  CA        -0.3640   23.3660   50.4490 C.3   113  LEU113      0.1693
      3  C         -0.2210   24.8070   50.9370 C.2   113  LEU113      0.2592
      4  O          0.7040   25.1380   51.6930 O.2   113  LEU113     -0.2718
      5  CB        -1.1910   22.5400   51.4410 C.3   113  LEU113      0.0284
      6  CG        -1.6600   21.2010   50.8270 C.3   113  LEU113      0.0019
      7  CD1       -1.4010   20.0410   51.7530 C.3   113  LEU113      0.0001
      8  CD2       -3.1360   21.3040   50.4650 C.3   113  LEU113      0.0001
      9  N         -1.1340   25.6770   50.5030 N.am  114  ALA114     -0.1966
     10  CA        -1.0420   27.0990   50.8160 C.3   114  ALA114      0.1728
     11  C         -2.4190   27.7540   50.8380 C.2   114  ALA114      0.2616
     12  O         -3.4120   27.1920   50.3480 O.2   114  ALA114     -0.2715
     13  CB        -0.1560   27.8160   49.7930 C.3   114  ALA114      0.0334
     14  N         -2.4660   28.9580   51.4180 N.am  115  GLY115     -0.1955
     15  CA        -3.6680   29.7980   51.3890 C.3   115  GLY115      0.1869
     16  C         -3.6900   30.7700   50.2140 C.2   115  GLY115      0.2309
     17  O         -2.6660   31.3480   49.8460 O.2   115  GLY115     -0.2863
     18  N          5.2150   32.7330   55.3860 N.3   192  ASN192     -0.1240
     19  CA         4.8330   32.9130   56.7970 C.3   192  ASN192      0.1653
     20  C          5.5340   31.8210   57.6070 C.2   192  ASN192      0.2266
     21  O          5.2640   30.6360   57.4260 O.2   192  ASN192     -0.2867
     22  CB         3.3070   32.7760   56.9500 C.3   192  ASN192      0.1155
     23  CG         2.8450   32.5780   58.3960 C.2   192  ASN192      0.2627
     24  OD1        3.4620   33.0890   59.3400 O.2   192  ASN192     -0.2716
     25  ND2        1.7370   31.8290   58.5740 N.am  192  ASN192     -0.0877
     26  N         -1.9110   29.6820   61.1870 N.3   197  TYR197     -0.1227
     27  CA        -2.3650   30.1820   59.8870 C.3   197  TYR197      0.1736
     28  C         -2.3580   31.7140   59.9180 C.2   197  TYR197      0.2595
     29  O         -2.5350   32.3350   60.9710 O.2   197  TYR197     -0.2718
     30  CB        -3.7710   29.6520   59.5590 C.3   197  TYR197      0.0548
     31  CG        -3.8490   28.1310   59.3680 C.ar  197  TYR197     -0.0200
     32  CD1       -3.2140   27.5060   58.2890 C.ar  197  TYR197     -0.0009
     33  CD2       -4.5150   27.3390   60.2820 C.ar  197  TYR197     -0.0009
     34  CE1       -3.2970   26.1110   58.1120 C.ar  197  TYR197      0.0417
     35  CE2       -4.6040   25.9440   60.1060 C.ar  197  TYR197      0.0417
     36  CZ        -3.9510   25.3500   59.0330 C.ar  197  TYR197      0.1957
     37  OH        -4.0070   23.9680   58.8450 O.3   197  TYR197     -0.2866
     38  N         -2.1150   32.3210   58.7560 N.am  198  GLU198     -0.1979
     39  CA        -2.2640   33.7710   58.6180 C.3   198  GLU198      0.1602
     40  C         -3.5840   34.2480   59.2290 C.2   198  GLU198      0.2287
     41  O         -4.6490   33.6860   58.9660 O.2   198  GLU198     -0.2864
     42  CB        -2.1890   34.1610   57.1230 C.3   198  GLU198      0.0415
     43  CG        -3.3190   33.6440   56.1490 C.3   198  GLU198      0.1163
     44  CD        -3.1290   32.2340   55.5950 C.2   198  GLU198      0.3649
     45  OE1       -2.2270   31.4930   56.0290 O.co2 198  GLU198     -0.2457
     46  OE2       -3.9360   31.8430   54.7000 O.co2 198  GLU198     -0.2457
     47  N          0.0730   32.3310   50.2870 N.3   214  VAL214     -0.1231
     48  CA         0.8700   32.3540   51.5210 C.3   214  VAL214      0.1692
     49  C          0.9950   30.9300   52.0800 C.2   214  VAL214      0.2593
     50  O          0.0220   30.1770   52.1250 O.2   214  VAL214     -0.2718
     51  CB         0.2750   33.3430   52.5630 C.3   214  VAL214      0.0266
     52  CG1       -1.1560   33.0050   52.9260 C.3   214  VAL214      0.0020
     53  CG2        1.1180   33.4050   53.8270 C.3   214  VAL214      0.0020
     54  N          2.2020   30.5610   52.5180 N.am  215  GLY215     -0.1942
     55  CA         2.3910   29.2800   53.1860 C.3   215  GLY215      0.2014
     56  C          3.6210   29.2700   54.0750 C.2   215  GLY215      0.2638
     57  O          4.3370   30.2760   54.1810 O.2   215  GLY215     -0.2714
     58  N          3.8920   28.0890   54.6620 N.am  216  MET216     -0.1976
     59  CA         4.8610   27.9270   55.7510 C.3   216  MET216      0.1605
     60  C          6.0860   27.0980   55.3650 C.2   216  MET216      0.2287
     61  O          6.7940   26.6090   56.2530 O.2   216  MET216     -0.2864
     62  CB         4.1990   27.3050   56.9910 C.3   216  MET216      0.0413
     63  CG         2.9590   27.9800   57.5010 C.3   216  MET216      0.0598
     64  SD         2.1890   26.9890   58.8290 S.3   216  MET216     -0.1393
     65  CE         0.5950   27.7940   58.8960 C.3   216  MET216      0.0692
     66  N         -5.6740   25.6650   49.4240 N.3   239  ALA239     -0.1231
     67  CA        -6.6420   25.0330   50.3180 C.3   239  ALA239      0.1694
     68  C         -7.9090   25.8650   50.5030 C.2   239  ALA239      0.2592
     69  O         -8.9720   25.3090   50.7810 O.2   239  ALA239     -0.2718
     70  CB        -6.0090   24.7390   51.6790 C.3   239  ALA239      0.0304
     71  N         -7.8170   27.1810   50.3260 N.am  240  ASN240     -0.1974
     72  CA        -8.9090   28.0930   50.6650 C.3   240  ASN240      0.1688
     73  C         -8.5200   29.4600   50.1300 C.2   240  ASN240      0.2292
     74  O         -7.3610   29.6850   49.7700 O.2   240  ASN240     -0.2864
     75  CB        -9.0490   28.1880   52.1830 C.3   240  ASN240      0.1181
     76  CG        -7.8840   28.9460   52.8270 C.2   240  ASN240      0.2629
     77  OD1       -6.7130   28.6020   52.6200 O.2   240  ASN240     -0.2716
     78  ND2       -8.1920   29.9920   53.5790 N.am  240  ASN240     -0.0877
     79  N         -8.1750   33.0050   51.7680 N.3   242  SER242     -0.1217
     80  CA        -8.1380   33.6200   53.0960 C.3   242  SER242      0.1889
     81  C         -8.8100   34.9900   53.1250 C.2   242  SER242      0.2288
     82  O         -9.3320   35.3990   54.1730 O.2   242  SER242     -0.2866
     83  CB        -6.6950   33.7380   53.5950 C.3   242  SER242      0.2089
     84  OG        -6.2040   32.4570   53.9670 O.3   242  SER242     -0.2183
     85  N        -10.2540   28.1810   59.0380 N.3   252  ILE252     -0.1245
     86  CA        -9.4630   27.1640   58.3510 C.3   252  ILE252      0.1561
     87  C         -8.9110   26.2190   59.4100 C.2   252  ILE252      0.2260
     88  O         -8.7710   26.5840   60.5840 O.2   252  ILE252     -0.2867
     89  CB        -8.3460   27.7950   57.4820 C.3   252  ILE252      0.0252
     90  CG1       -7.5420   26.7310   56.7120 C.3   252  ILE252      0.0019
     91  CG2       -7.4380   28.6810   58.3300 C.3   252  ILE252      0.0019
     92  CD1       -8.3210   26.0520   55.5760 C.3   252  ILE252      0.0001
     93  N         -7.6820   21.2410   55.1710 N.3   257  VAL257     -0.1245
     94  CA        -6.5270   21.2520   54.2760 C.3   257  VAL257      0.1561
     95  C         -6.2800   19.8580   53.7110 C.2   257  VAL257      0.2260
     96  O         -6.0730   19.6860   52.5030 O.2   257  VAL257     -0.2867
     97  CB        -5.2930   21.8040   55.0110 C.3   257  VAL257      0.0252
     98  CG1       -4.0290   21.6980   54.1470 C.3   257  VAL257      0.0019
     99  CG2       -5.5190   23.2670   55.3790 C.3   257  VAL257      0.0019
@<TRIPOS>BOND
     1    66    67    1
     2    74    73    2
     3    13    10    1
     4    17    16    2
     5    73    72    1
     6    16    15    1
     7     1     2    1
     8    47    48    1
     9    67    68    1
    10    67    70    1
    11    71    68   am
    12    71    72    1
    13    12    11    2
    14     2     3    1
    15     2     5    1
    16     8     6    1
    17     9    10    1
    18     9     3   am
    19    68    69    2
    20    72    75    1
    21    10    11    1
    22     6     5    1
    23     6     7    1
    24    11    14   am
    25     3     4    2
    26    15    14    1
    27    48    49    1
    28    48    51    1
    29    79    80    1
    30    49    50    2
    31    49    54   am
    32    75    76    1
    33    96    95    2
    34    54    55    1
    35    51    52    1
    36    51    53    1
    37    77    76    2
    38    76    78   am
    39    80    81    1
    40    80    83    1
    41    81    82    2
    42    55    56    1
    43    83    84    1
    44    95    94    1
    45    56    57    2
    46    56    58   am
    47    98    97    1
    48    94    97    1
    49    94    93    1
    50    58    59    1
    51    46    44   ar
    52    97    99    1
    53    60    59    1
    54    60    61    2
    55    18    19    1
    56    92    90    1
    57    44    45   ar
    58    44    43    1
    59    59    62    1
    60    43    42    1
    61    90    89    1
    62    19    22    1
    63    19    20    1
    64    22    23    1
    65    62    63    1
    66    42    39    1
    67    21    20    2
    68    89    91    1
    69    89    86    1
    70    63    64    1
    71    34    32   ar
    72    34    36   ar
    73    32    31   ar
    74    86    85    1
    75    86    87    1
    76    23    25   am
    77    23    24    2
    78    39    38    1
    79    39    40    1
    80    38    28   am
    81    64    65    1
    82    37    36    1
    83    41    40    2
    84    36    35   ar
    85    31    30    1
    86    31    33   ar
    87    87    88    2
    88    30    27    1
    89    27    28    1
    90    27    26    1
    91    28    29    2
    92    35    33   ar
