@<TRIPOS>MOLECULE
tmp/6bb9A00.pdb
 150 140 0 0 0
SMALL
GASTEIGER

@<TRIPOS>ATOM
      1  N        -10.0410  -22.1480  -22.0940 N.3    27  PHE27      -0.1241
      2  CA       -11.3660  -22.7260  -22.2650 C.3    27  PHE27       0.1605
      3  C        -12.3020  -21.7670  -22.9910 C.2    27  PHE27       0.2264
      4  O        -11.9580  -20.6260  -23.3210 O.2    27  PHE27      -0.2867
      5  CB       -11.9730  -23.1610  -20.9200 C.3    27  PHE27       0.0534
      6  CG       -12.3650  -22.0260  -19.9990 C.ar   27  PHE27      -0.0203
      7  CD1      -11.3950  -21.3120  -19.2870 C.ar   27  PHE27      -0.0042
      8  CD2      -13.7040  -21.7230  -19.7850 C.ar   27  PHE27      -0.0042
      9  CE1      -11.7520  -20.2850  -18.4070 C.ar   27  PHE27      -0.0003
     10  CE2      -14.0780  -20.7000  -18.9050 C.ar   27  PHE27      -0.0003
     11  CZ       -13.0970  -19.9710  -18.2170 C.ar   27  PHE27      -0.0000
     12  N        -16.9160  -21.3180  -23.4080 N.3    29  THR29      -0.1218
     13  CA       -18.2390  -21.7150  -22.9450 C.3    29  THR29       0.1862
     14  C        -19.2430  -21.2140  -23.9720 C.2    29  THR29       0.2287
     15  O        -19.3930  -20.0000  -24.1600 O.2    29  THR29      -0.2866
     16  CB       -18.5190  -21.1350  -21.5610 C.3    29  THR29       0.1770
     17  OG1      -17.5190  -21.5950  -20.6420 O.3    29  THR29      -0.2211
     18  CG2      -19.8680  -21.5570  -21.0710 C.3    29  THR29       0.0375
     19  N        -11.2310  -18.7670  -30.9510 N.3    46  ARG46      -0.1245
     20  CA       -10.6990  -18.2910  -29.6760 C.3    46  ARG46       0.1563
     21  C         -9.8000  -19.3380  -29.0320 C.2    46  ARG46       0.2260
     22  O         -8.7700  -19.0000  -28.4360 O.2    46  ARG46      -0.2867
     23  CB       -11.8340  -17.9270  -28.7140 C.3    46  ARG46       0.0307
     24  CG       -11.6740  -18.6690  -27.3750 C.3    46  ARG46       0.0489
     25  CD       -12.7640  -18.4610  -26.3910 C.3    46  ARG46       0.2205
     26  NE       -12.7310  -17.1420  -25.7940 N.pl3  46  ARG46      -0.0865
     27  CZ       -13.7760  -16.6190  -25.1840 C.cat  46  ARG46       0.5346
     28  NH1      -13.7090  -15.4030  -24.6760 N.pl3  46  ARG46       0.1354
     29  NH2      -14.9010  -17.3290  -25.1080 N.pl3  46  ARG46       0.1354
     30  N         -9.3060  -16.2750  -22.5100 N.3   141  LYS141     -0.1245
     31  CA       -10.0580  -17.0290  -21.5090 C.3   141  LYS141      0.1561
     32  C         -9.2250  -18.2240  -21.0340 C.2   141  LYS141      0.2260
     33  O         -9.5720  -19.3880  -21.2360 O.2   141  LYS141     -0.2867
     34  CB       -11.4020  -17.4720  -22.0790 C.3   141  LYS141      0.0271
     35  CG       -12.4730  -17.7020  -21.0290 C.3   141  LYS141      0.0035
     36  CD       -13.7120  -18.2990  -21.6450 C.3   141  LYS141      0.0206
     37  CE       -14.9400  -17.9930  -20.8160 C.3   141  LYS141      0.1093
     38  NZ       -15.7760  -16.9660  -21.4830 N.3   141  LYS141     -0.1314
     39  N         -8.0730  -18.4120  -13.3350 N.3   145  ARG145     -0.1245
     40  CA        -9.2690  -17.6180  -13.0760 C.3   145  ARG145      0.1563
     41  C         -9.4480  -17.3010  -11.5980 C.2   145  ARG145      0.2260
     42  O        -10.5330  -16.8850  -11.1820 O.2   145  ARG145     -0.2867
     43  CB       -10.5120  -18.3320  -13.6190 C.3   145  ARG145      0.0307
     44  CG       -10.6560  -18.2590  -15.1440 C.3   145  ARG145      0.0489
     45  CD       -10.6870  -16.8090  -15.6000 C.3   145  ARG145      0.2205
     46  NE       -10.0020  -16.6410  -16.8680 N.pl3 145  ARG145     -0.0865
     47  CZ        -9.3230  -15.5600  -17.2240 C.cat 145  ARG145      0.5346
     48  NH1       -9.2210  -14.5210  -16.4060 N.pl3 145  ARG145      0.1354
     49  NH2       -8.7340  -15.5280  -18.4070 N.pl3 145  ARG145      0.1354
     50  N        -11.1890  -14.1400  -10.8070 N.3   148  GLN148     -0.1245
     51  CA       -12.6430  -14.1410  -10.9340 C.3   148  GLN148      0.1566
     52  C        -13.3110  -14.8470   -9.7610 C.2   148  GLN148      0.2260
     53  O        -14.4130  -14.4600   -9.3570 O.2   148  GLN148     -0.2867
     54  CB       -13.0770  -14.7740  -12.2610 C.3   148  GLN148      0.0367
     55  CG       -12.8250  -13.8920  -13.4920 C.3   148  GLN148      0.0905
     56  CD       -11.3470  -13.6210  -13.7120 C.2   148  GLN148      0.2608
     57  OE1      -10.5110  -14.5120  -13.5660 O.2   148  GLN148     -0.2717
     58  NE2      -11.0170  -12.3860  -14.0430 N.am  148  GLN148     -0.0878
     59  N        -13.6130   -4.9280  -17.1550 N.3   174  GLU174     -0.1245
     60  CA       -14.7210   -5.8240  -17.4840 C.3   174  GLU174      0.1567
     61  C        -15.5750   -6.0170  -16.2380 C.2   174  GLU174      0.2260
     62  O        -15.4110   -5.3110  -15.2380 O.2   174  GLU174     -0.2867
     63  CB       -14.1990   -7.1650  -18.0220 C.3   174  GLU174      0.0388
     64  CG       -13.3060   -7.9180  -17.0390 C.3   174  GLU174      0.1160
     65  CD       -12.8940   -9.3030  -17.5360 C.2   174  GLU174      0.3649
     66  OE1      -13.0200   -9.5790  -18.7530 O.co2 174  GLU174     -0.2457
     67  OE2      -12.4470  -10.1160  -16.6960 O.co2 174  GLU174     -0.2457
     68  N        -17.3480   -9.4480  -13.7560 N.3   176  CYS176     -0.1221
     69  CA       -16.8260  -10.6970  -13.2120 C.3   176  CYS176      0.1808
     70  C        -16.8200  -11.7970  -14.2640 C.2   176  CYS176      0.2601
     71  O        -15.8180  -12.5010  -14.4360 O.2   176  CYS176     -0.2717
     72  CB       -17.6300  -11.1280  -11.9860 C.3   176  CYS176      0.0970
     73  SG       -17.0270  -12.6610  -11.2310 S.3   176  CYS176     -0.0800
     74  N        -17.9290  -11.9770  -14.9750 N.am  177  ALA177     -0.1965
     75  CA       -17.9840  -13.0250  -15.9880 C.3   177  ALA177      0.1728
     76  C        -18.4700  -12.4810  -17.3220 C.2   177  ALA177      0.2616
     77  O        -19.0760  -13.2110  -18.1120 O.2   177  ALA177     -0.2715
     78  CB       -18.8750  -14.1780  -15.5270 C.3   177  ALA177      0.0334
     79  N        -18.2320  -11.1970  -17.5830 N.am  178  ALA178     -0.1963
     80  CA       -18.7950  -10.5900  -18.7760 C.3   178  ALA178      0.1728
     81  C        -17.9860   -9.3590  -19.1540 C.2   178  ALA178      0.2616
     82  O        -17.3040   -8.7600  -18.3150 O.2   178  ALA178     -0.2715
     83  CB       -20.2730  -10.2270  -18.5630 C.3   178  ALA178      0.0334
     84  N        -18.0520   -9.0110  -20.4340 N.am  179  ASN179     -0.1972
     85  CA       -17.5360   -7.7460  -20.9120 C.3   179  ASN179      0.1688
     86  C        -18.6100   -6.6830  -20.7480 C.2   179  ASN179      0.2292
     87  O        -19.7900   -6.9990  -20.5650 O.2   179  ASN179     -0.2864
     88  CB       -17.1120   -7.8710  -22.3690 C.3   179  ASN179      0.1181
     89  CG       -15.9120   -8.7660  -22.5380 C.2   179  ASN179      0.2629
     90  OD1      -15.9760   -9.7860  -23.2230 O.2   179  ASN179     -0.2716
     91  ND2      -14.8050   -8.3980  -21.9010 N.am  179  ASN179     -0.0877
     92  N        -10.9350  -10.5750  -20.6170 N.3   198  VAL198     -0.1245
     93  CA       -11.1760  -11.5780  -21.6500 C.3   198  VAL198      0.1561
     94  C        -11.8460  -10.9010  -22.8400 C.2   198  VAL198      0.2260
     95  O        -12.8650  -10.2150  -22.6780 O.2   198  VAL198     -0.2867
     96  CB       -12.0350  -12.7290  -21.1060 C.3   198  VAL198      0.0252
     97  CG1      -12.5120  -13.6170  -22.2420 C.3   198  VAL198      0.0019
     98  CG2      -11.2460  -13.5270  -20.0540 C.3   198  VAL198      0.0019
     99  N        -14.1370  -11.2780  -25.2570 N.3   200  GLY200     -0.1210
    100  CA       -15.1820  -12.2720  -25.4270 C.3   200  GLY200      0.1956
    101  C        -15.6690  -12.4100  -26.8580 C.2   200  GLY200      0.2612
    102  O        -15.6290  -11.4740  -27.6610 O.2   200  GLY200     -0.2717
    103  N        -16.1170  -13.6300  -27.1620 N.am  201  ILE201     -0.1965
    104  CA       -16.8440  -13.9300  -28.3920 C.3   201  ILE201      0.1727
    105  C        -17.9880  -12.9390  -28.5970 C.2   201  ILE201      0.2616
    106  O        -18.2230  -12.4580  -29.7120 O.2   201  ILE201     -0.2715
    107  CB       -17.3460  -15.3920  -28.3350 C.3   201  ILE201      0.0290
    108  CG1      -16.5090  -16.2900  -29.2390 C.3   201  ILE201      0.0022
    109  CG2      -18.8460  -15.5160  -28.6390 C.3   201  ILE201      0.0023
    110  CD1      -15.0780  -16.4010  -28.8240 C.3   201  ILE201      0.0001
    111  N        -18.7210  -12.6190  -27.5310 N.am  202  MET202     -0.1963
    112  CA       -19.8890  -11.7630  -27.6940 C.3   202  MET202      0.1736
    113  C        -19.4980  -10.2940  -27.7650 C.2   202  MET202      0.2616
    114  O        -20.1250   -9.5280  -28.5050 O.2   202  MET202     -0.2715
    115  CB       -20.8890  -12.0010  -26.5610 C.3   202  MET202      0.0427
    116  CG       -22.2540  -11.3600  -26.7910 C.3   202  MET202      0.0599
    117  SD       -23.1210  -11.9730  -28.2630 S.3   202  MET202     -0.1393
    118  CE       -23.2460  -13.7340  -27.9190 C.3   202  MET202      0.0692
    119  N        -18.4660   -9.8870  -27.0200 N.am  203  ARG203     -0.1977
    120  CA       -17.9120   -8.5460  -27.2080 C.3   203  ARG203      0.1597
    121  C        -17.5000   -8.3320  -28.6590 C.2   203  ARG203      0.2287
    122  O        -17.8020   -7.2860  -29.2500 O.2   203  ARG203     -0.2864
    123  CB       -16.7210   -8.3280  -26.2670 C.3   203  ARG203      0.0334
    124  CG       -15.7830   -7.1720  -26.6640 C.3   203  ARG203      0.0492
    125  CD       -14.4760   -7.2600  -25.8650 C.3   203  ARG203      0.2205
    126  NE       -13.7700   -5.9900  -25.7890 N.pl3 203  ARG203     -0.0865
    127  CZ       -12.9380   -5.5490  -26.7200 C.cat 203  ARG203      0.5346
    128  NH1      -12.7090   -6.2820  -27.8040 N.pl3 203  ARG203      0.1354
    129  NH2      -12.3270   -4.3820  -26.5620 N.pl3 203  ARG203      0.1354
    130  N        -21.8190  -11.7890  -22.5640 N.3   237  ASN237     -0.1225
    131  CA       -20.9490  -12.9410  -22.7410 C.3   237  ASN237      0.1785
    132  C        -21.6950  -13.9280  -23.6390 C.2   237  ASN237      0.2597
    133  O        -22.8330  -13.6810  -24.0480 O.2   237  ASN237     -0.2718
    134  CB       -20.5100  -13.5470  -21.3910 C.3   237  ASN237      0.1169
    135  CG       -21.6580  -14.1530  -20.5830 C.2   237  ASN237      0.2627
    136  OD1      -22.6800  -14.5790  -21.1250 O.2   237  ASN237     -0.2716
    137  ND2      -21.4710  -14.2180  -19.2650 N.am  237  ASN237     -0.0877
    138  N        -21.0540  -15.0580  -23.9450 N.am  238  ALA238     -0.1966
    139  CA       -21.6350  -15.9930  -24.9050 C.3   238  ALA238      0.1728
    140  C        -23.0110  -16.5000  -24.4830 C.2   238  ALA238      0.2616
    141  O        -23.8290  -16.8070  -25.3540 O.2   238  ALA238     -0.2715
    142  CB       -20.6960  -17.1780  -25.1220 C.3   238  ALA238      0.0334
    143  N        -23.2930  -16.5660  -23.1790 N.am  239  LEU239     -0.1977
    144  CA       -24.4780  -17.2480  -22.6680 C.3   239  LEU239      0.1596
    145  C        -25.6530  -16.3260  -22.3640 C.2   239  LEU239      0.2287
    146  O        -26.8040  -16.7600  -22.5000 O.2   239  LEU239     -0.2864
    147  CB       -24.1360  -18.0260  -21.3940 C.3   239  LEU239      0.0297
    148  CG       -22.9150  -18.9380  -21.4590 C.3   239  LEU239      0.0022
    149  CD1      -22.7080  -19.6460  -20.1260 C.3   239  LEU239      0.0001
    150  CD2      -23.0700  -19.9400  -22.5990 C.3   239  LEU239      0.0001
@<TRIPOS>BOND
     1    19    20    1
     2   106   105    2
     3    20    21    1
     4    20    23    1
     5   122   121    2
     6   108   110    1
     7   108   107    1
     8    21    22    2
     9    23    24    1
    10   121   120    1
    11   109   107    1
    12   105   104    1
    13   105   111   am
    14   114   113    2
    15   104   107    1
    16   104   103    1
    17   117   118    1
    18   117   116    1
    19   128   127    1
    20   113   112    1
    21   113   119   am
    22   112   111    1
    23   112   115    1
    24   102   101    2
    25    24    25    1
    26   120   119    1
    27   120   123    1
    28   103   101   am
    29   101   100    1
    30   116   115    1
    31   127   129    1
    32   127   126    2
    33   124   123    1
    34   124   125    1
    35    25    26    1
    36   125   126    1
    37    26    27    2
    38   100    99    1
    39   141   140    2
    40    27    29    1
    41    27    28    1
    42   142   139    1
    43   139   140    1
    44   139   138    1
    45   140   143   am
    46    15    14    2
    47   133   132    2
    48    14    13    1
    49   138   132   am
    50   132   131    1
    51    12    13    1
    52     4     3    2
    53    90    89    2
    54   143   144    1
    55     3     2    1
    56    13    16    1
    57    94    95    2
    58    94    93    1
    59   131   130    1
    60   131   134    1
    61   144   145    1
    62   144   147    1
    63   150   148    1
    64    89    88    1
    65    89    91   am
    66    30    31    1
    67   146   145    2
    68    88    85    1
    69     2     1    1
    70     2     5    1
    71    97    96    1
    72    34    31    1
    73    34    35    1
    74    93    96    1
    75    93    92    1
    76    36    35    1
    77    36    37    1
    78    16    18    1
    79    16    17    1
    80    31    32    1
    81    38    37    1
    82   148   147    1
    83   148   149    1
    84   134   135    1
    85    33    32    2
    86   136   135    2
    87    96    98    1
    88     5     6    1
    89    85    86    1
    90    85    84    1
    91    86    87    2
    92   135   137   am
    93    84    81   am
    94     6     8   ar
    95     6     7   ar
    96     8    10   ar
    97     7     9   ar
    98    81    80    1
    99    81    82    2
   100    10    11   ar
   101    80    83    1
   102    80    79    1
   103    66    65   ar
   104    49    47    1
   105     9    11   ar
   106    77    76    2
   107    63    60    1
   108    63    64    1
   109    79    76   am
   110    65    64    1
   111    65    67   ar
   112    60    59    1
   113    60    61    1
   114    76    75    1
   115    47    46    2
   116    47    48    1
   117    46    45    1
   118    61    62    2
   119    75    78    1
   120    75    74    1
   121    45    44    1
   122    44    43    1
   123    74    70   am
   124    71    70    2
   125    70    69    1
   126    58    56   am
   127    68    69    1
   128    56    57    2
   129    56    55    1
   130    43    40    1
   131    55    54    1
   132    39    40    1
   133    69    72    1
   134    40    41    1
   135    54    51    1
   136    72    73    1
   137    41    42    2
   138    51    50    1
   139    51    52    1
   140    52    53    2
