@<TRIPOS>MOLECULE
tmp/6bbaF00.pdb
 163 154 0 0 0
SMALL
GASTEIGER

@<TRIPOS>ATOM
      1  N          4.1520  -88.4040   -7.0810 N.3     8  GLU8       -0.1196
      2  CA         4.2180  -89.7340   -6.5310 C.3     8  GLU8        0.1783
      3  C          3.0870  -89.9130   -5.5300 C.2     8  GLU8        0.2306
      4  O          2.5270  -88.9520   -5.0580 O.2     8  GLU8       -0.2863
      5  CB         5.5710  -89.9830   -5.8730 C.2     8  GLU8        0.0071
      6  CG         6.6520  -90.6630   -6.7270 C.2     8  GLU8        0.0834
      7  CD         6.2630  -91.1010   -8.1420 C.2     8  GLU8        0.3877
      8  OE1        6.8270  -92.0820   -8.6380 O.co2   8  GLU8       -0.2406
      9  OE2        5.4250  -90.4810   -8.8050 O.co2   8  GLU8       -0.2406
     10  N         11.6900  -83.1770  -10.3770 N.3    19  ILE19      -0.1245
     11  CA        12.3090  -84.4130  -10.8440 C.3    19  ILE19       0.1561
     12  C         13.6380  -84.7310  -10.1550 C.2    19  ILE19       0.2260
     13  O         13.9450  -85.9090   -9.9370 O.2    19  ILE19      -0.2867
     14  CB        12.4730  -84.3610  -12.3790 C.3    19  ILE19       0.0252
     15  CG1       12.8410  -85.7200  -12.9360 C.3    19  ILE19       0.0019
     16  CG2       13.4860  -83.3230  -12.8000 C.3    19  ILE19       0.0019
     17  CD1       11.6860  -86.4810  -13.3260 C.3    19  ILE19       0.0001
     18  N         13.0360  -85.6960   -6.6900 N.3    22  ARG22      -0.1231
     19  CA        12.4910  -87.0390   -6.7870 C.3    22  ARG22       0.1694
     20  C         13.6040  -88.0680   -6.8670 C.2    22  ARG22       0.2591
     21  O         13.5720  -89.0820   -6.1630 O.2    22  ARG22      -0.2718
     22  CB        11.5760  -87.1520   -7.9950 C.3    22  ARG22       0.0321
     23  CG        11.0330  -88.5490   -8.1750 C.3    22  ARG22       0.0489
     24  CD        10.3060  -89.0280   -6.9190 C.3    22  ARG22       0.2205
     25  NE         9.6460  -90.3120   -7.1520 N.pl3  22  ARG22      -0.0865
     26  CZ        10.1960  -91.5010   -6.9070 C.cat  22  ARG22       0.5346
     27  NH1       11.4240  -91.5960   -6.4100 N.pl3  22  ARG22       0.1354
     28  NH2        9.5180  -92.6050   -7.1730 N.pl3  22  ARG22       0.1354
     29  N         14.6050  -87.8240   -7.7230 N.am   23  LEU23      -0.1980
     30  CA        15.7040  -88.7770   -7.8600 C.3    23  LEU23       0.1596
     31  C         16.5120  -88.8760   -6.5810 C.2    23  LEU23       0.2287
     32  O         17.0640  -89.9400   -6.2780 O.2    23  LEU23      -0.2864
     33  CB        16.6300  -88.3920   -9.0050 C.3    23  LEU23       0.0297
     34  CG        16.1320  -88.4510  -10.4460 C.3    23  LEU23       0.0022
     35  CD1       17.3360  -88.5840  -11.3620 C.3    23  LEU23       0.0001
     36  CD2       15.1350  -89.5870  -10.6530 C.3    23  LEU23       0.0001
     37  N         15.2090  -91.5590   -4.3820 N.3    26  GLU26      -0.1245
     38  CA        15.7500  -92.8790   -4.6530 C.3    26  GLU26       0.1567
     39  C         17.2340  -92.9840   -4.3220 C.2    26  GLU26       0.2260
     40  O         17.8970  -93.9100   -4.8120 O.2    26  GLU26      -0.2867
     41  CB        15.5390  -93.2740   -6.1170 C.3    26  GLU26       0.0388
     42  CG        14.1080  -93.6130   -6.5060 C.3    26  GLU26       0.1160
     43  CD        13.4830  -94.7130   -5.6640 C.2    26  GLU26       0.3649
     44  OE1       12.6980  -94.3720   -4.7420 O.co2  26  GLU26      -0.2457
     45  OE2       13.7660  -95.9110   -5.9310 O.co2  26  GLU26      -0.2457
     46  N         19.7590  -91.1350   -5.3160 N.3    28  ILE28      -0.1245
     47  CA        20.5880  -90.8150   -6.4690 C.3    28  ILE28       0.1561
     48  C         21.1410  -89.4090   -6.3050 C.2    28  ILE28       0.2260
     49  O         20.3730  -88.4460   -6.1780 O.2    28  ILE28      -0.2867
     50  CB        19.8020  -90.9280   -7.7760 C.3    28  ILE28       0.0252
     51  CG1       19.2770  -92.3540   -7.9190 C.3    28  ILE28       0.0019
     52  CG2       20.6910  -90.4950   -8.9450 C.3    28  ILE28       0.0019
     53  CD1       18.3230  -92.5190   -9.0160 C.3    28  ILE28       0.0001
     54  N         23.6700  -93.9350   -5.0280 N.3    60  HIS60      -0.1241
     55  CA        23.9980  -94.0220   -6.4430 C.3    60  HIS60       0.1621
     56  C         24.4380  -92.6550   -6.9440 C.2    60  HIS60       0.2264
     57  O         23.7050  -91.6640   -6.8090 O.2    60  HIS60      -0.2867
     58  CB        22.8050  -94.5640   -7.2170 C.3    60  HIS60       0.0745
     59  CG        22.1530  -95.7160   -6.5200 C.ar   60  HIS60       0.0817
     60  ND1       22.6540  -96.9980   -6.5810 N.ar   60  HIS60      -0.2268
     61  CD2       21.0900  -95.7650   -5.6830 C.ar   60  HIS60       0.1154
     62  CE1       21.9010  -97.7960   -5.8460 C.ar   60  HIS60       0.1986
     63  NE2       20.9480  -97.0730   -5.2850 N.ar   60  HIS60      -0.2212
     64  N         25.5570  -90.6740  -10.0630 N.3    62  TYR62      -0.1241
     65  CA        25.5760  -90.5590  -11.5190 C.3    62  TYR62       0.1605
     66  C         26.4790  -89.3920  -11.8900 C.2    62  TYR62       0.2264
     67  O         26.2430  -88.2580  -11.4530 O.2    62  TYR62      -0.2867
     68  CB        24.1750  -90.3310  -12.0910 C.3    62  TYR62       0.0534
     69  CG        23.1670  -91.4310  -11.8070 C.ar   62  TYR62      -0.0201
     70  CD1       23.5170  -92.5960  -11.1150 C.ar   62  TYR62      -0.0009
     71  CD2       21.8570  -91.3050  -12.2380 C.ar   62  TYR62      -0.0009
     72  CE1       22.5700  -93.5870  -10.8560 C.ar   62  TYR62       0.0417
     73  CE2       20.9190  -92.2840  -11.9950 C.ar   62  TYR62       0.0417
     74  CZ        21.2630  -93.4190  -11.3090 C.ar   62  TYR62       0.1957
     75  OH        20.2850  -94.3760  -11.0940 O.3    62  TYR62      -0.2866
     76  N         27.5540  -96.7670   -5.3370 N.3    88  CYS88      -0.1235
     77  CA        27.6050  -97.1330   -6.7480 C.3    88  CYS88       0.1677
     78  C         27.8900  -95.8700   -7.5570 C.2    88  CYS88       0.2270
     79  O         27.1370  -94.8940   -7.4680 O.2    88  CYS88      -0.2867
     80  CB        26.2770  -97.7420   -7.2140 C.3    88  CYS88       0.0956
     81  SG        25.8460  -99.4270   -6.6950 S.3    88  CYS88      -0.0801
     82  N         28.1170  -94.3250  -11.3800 N.3    90  TRP90      -0.1241
     83  CA        27.5920  -94.6280  -12.7030 C.3    90  TRP90       0.1605
     84  C         28.0250  -93.5170  -13.6380 C.2    90  TRP90       0.2264
     85  O         27.5940  -92.3750  -13.4690 O.2    90  TRP90      -0.2867
     86  CB        26.0670  -94.7300  -12.6620 C.3    90  TRP90       0.0550
     87  CG        25.4680  -95.4210  -13.8450 C.ar   90  TRP90       0.0003
     88  CD1       25.1400  -94.8560  -15.0440 C.ar   90  TRP90       0.0946
     89  CD2       25.1120  -96.8080  -13.9450 C.ar   90  TRP90       0.0152
     90  NE1       24.6180  -95.8050  -15.8890 N.ar   90  TRP90      -0.2442
     91  CE2       24.5820  -97.0090  -15.2380 C.ar   90  TRP90       0.0810
     92  CE3       25.1890  -97.8970  -13.0690 C.ar   90  TRP90       0.0012
     93  CZ2       24.1290  -98.2480  -15.6730 C.ar   90  TRP90       0.0191
     94  CZ3       24.7490  -99.1170  -13.5060 C.ar   90  TRP90       0.0001
     95  CH2       24.2290  -99.2870  -14.8000 C.ar   90  TRP90       0.0015
     96  N         27.9580  -91.6380  -17.0690 N.3    92  VAL92      -0.1245
     97  CA        27.2010  -91.4100  -18.2870 C.3    92  VAL92       0.1561
     98  C         27.7590  -90.1600  -18.9650 C.2    92  VAL92       0.2260
     99  O         28.0660  -89.1660  -18.3010 O.2    92  VAL92      -0.2867
    100  CB        25.6960  -91.2830  -17.9520 C.3    92  VAL92       0.0252
    101  CG1       25.4270  -90.0380  -17.1720 C.3    92  VAL92       0.0019
    102  CG2       24.8800  -91.2610  -19.1840 C.3    92  VAL92       0.0019
    103  N         33.5320 -103.1880   -7.0560 N.3   109  GLY109     -0.1210
    104  CA        32.4740 -103.9810   -7.6300 C.3   109  GLY109      0.1956
    105  C         31.2750 -103.1790   -8.0860 C.2   109  GLY109      0.2611
    106  O         30.5250 -103.6480   -8.9490 O.2   109  GLY109     -0.2717
    107  N         31.0870 -101.9730   -7.5510 N.am  110  MET110     -0.1979
    108  CA        29.8920 -101.1840   -7.8120 C.3   110  MET110      0.1605
    109  C         30.1670  -99.9280   -8.6500 C.2   110  MET110      0.2287
    110  O         29.4970  -98.9100   -8.4730 O.2   110  MET110     -0.2864
    111  CB        29.2350 -100.8050   -6.4880 C.3   110  MET110      0.0413
    112  CG        28.9890 -101.9590   -5.5380 C.3   110  MET110      0.0598
    113  SD        28.2070 -101.3590   -4.0060 S.3   110  MET110     -0.1393
    114  CE        26.4430 -101.6100   -4.2900 C.3   110  MET110      0.0692
    115  N         30.2530  -98.4790  -12.4430 N.3   112  HIS112     -0.1241
    116  CA        29.8280  -98.8540  -13.7790 C.3   112  HIS112      0.1621
    117  C         29.9580  -97.6820  -14.7480 C.2   112  HIS112      0.2264
    118  O         30.0830  -96.5160  -14.3510 O.2   112  HIS112     -0.2867
    119  CB        28.3720  -99.3480  -13.7850 C.3   112  HIS112      0.0745
    120  CG        27.9890 -100.1520  -12.5810 C.ar  112  HIS112      0.0817
    121  ND1       27.8770  -99.6040  -11.3170 N.ar  112  HIS112     -0.2268
    122  CD2       27.6720 -101.4620  -12.4520 C.ar  112  HIS112      0.1154
    123  CE1       27.5000 -100.5420  -10.4650 C.ar  112  HIS112      0.1986
    124  NE2       27.3760 -101.6800  -11.1260 N.ar  112  HIS112     -0.2212
    125  N         28.2030  -96.5640  -18.8330 N.3   114  LEU114     -0.1245
    126  CA        27.4950  -96.9200  -20.0420 C.3   114  LEU114      0.1561
    127  C         28.5140  -97.0750  -21.1740 C.2   114  LEU114      0.2260
    128  O         29.6620  -96.6200  -21.0620 O.2   114  LEU114     -0.2867
    129  CB        26.4310  -95.8700  -20.3550 C.3   114  LEU114      0.0270
    130  CG        25.2670  -95.7320  -19.3530 C.3   114  LEU114      0.0019
    131  CD1       24.3920  -94.6030  -19.7610 C.3   114  LEU114      0.0001
    132  CD2       24.4110  -96.9740  -19.2100 C.3   114  LEU114      0.0001
    133  N         32.2740 -102.6550  -14.3010 N.3   183  LYS183     -0.1245
    134  CA        31.3900 -103.2610  -15.2780 C.3   183  LYS183      0.1561
    135  C         30.9520 -102.2120  -16.2860 C.2   183  LYS183      0.2260
    136  O         30.5640 -101.1090  -15.9000 O.2   183  LYS183     -0.2867
    137  CB        30.1590 -103.8720  -14.5910 C.3   183  LYS183      0.0271
    138  CG        30.4250 -105.1960  -13.8850 C.3   183  LYS183      0.0035
    139  CD        29.6020 -105.3550  -12.5980 C.3   183  LYS183      0.0206
    140  CE        29.7260 -106.7840  -12.0510 C.3   183  LYS183      0.1093
    141  NZ        29.5260 -106.8580  -10.5730 N.3   183  LYS183     -0.1314
    142  N         27.9620 -101.6630  -18.8970 N.3   185  LEU185     -0.1245
    143  CA        26.6230 -102.2390  -19.0490 C.3   185  LEU185      0.1561
    144  C         25.8660 -101.5850  -20.1970 C.2   185  LEU185      0.2260
    145  O         25.4910 -100.4150  -20.1010 O.2   185  LEU185     -0.2867
    146  CB        25.8340 -102.1050  -17.7530 C.3   185  LEU185      0.0270
    147  CG        26.4400 -102.9590  -16.6410 C.3   185  LEU185      0.0019
    148  CD1       25.5650 -102.9040  -15.4060 C.3   185  LEU185      0.0001
    149  CD2       26.6030 -104.3670  -17.1350 C.3   185  LEU185      0.0001
    150  N         20.4960 -103.7530  -18.6350 N.3   188  PRO188     -0.2103
    151  CA        20.4920 -104.3540  -17.3070 C.3   188  PRO188      0.1489
    152  C         20.8260 -105.8260  -17.4110 C.2   188  PRO188      0.2417
    153  O         20.3770 -106.5060  -18.3480 O.2   188  PRO188     -0.2734
    154  CB        19.0550 -104.1470  -16.8220 C.3   188  PRO188      0.0282
    155  CG        18.5600 -103.0370  -17.5980 C.3   188  PRO188      0.0208
    156  CD        19.2180 -103.1070  -18.9400 C.3   188  PRO188      0.0893
    157  N         21.6310 -106.3450  -16.4930 N.am  189  PRO189     -0.2729
    158  CA        21.9290 -107.7810  -16.5050 C.3   189  PRO189      0.1401
    159  C         20.7610 -108.6080  -15.9790 C.2   189  PRO189      0.2269
    160  O         19.9330 -108.1320  -15.1870 O.2   189  PRO189     -0.2865
    161  CB        23.1470 -107.8880  -15.5860 C.3   189  PRO189      0.0296
    162  CG        22.9660 -106.7550  -14.6260 C.3   189  PRO189      0.0237
    163  CD        22.3330 -105.6400  -15.4070 C.3   189  PRO189      0.0939
@<TRIPOS>BOND
     1   127   128    2
     2   127   126    1
     3   129   126    1
     4   129   130    1
     5   144   145    2
     6   144   143    1
     7   126   125    1
     8   131   130    1
     9   130   132    1
    10   102   100    1
    11   143   142    1
    12   143   146    1
    13    98    99    2
    14    98    97    1
    15   156   150    1
    16   156   155    1
    17   150   151    1
    18   153   152    2
    19    97   100    1
    20    97    96    1
    21   100   101    1
    22   146   147    1
    23   155   154    1
    24   152   151    1
    25   152   157   am
    26   151   154    1
    27   149   147    1
    28   147   148    1
    29   158   157    1
    30   158   159    1
    31   158   161    1
    32   157   163    1
    33   135   136    2
    34   135   134    1
    35   159   160    2
    36    90    91   ar
    37    90    88   ar
    38    93    91   ar
    39    93    95   ar
    40   161   162    1
    41   163   162    1
    42   134   137    1
    43   134   133    1
    44    91    89   ar
    45    88    87   ar
    46    95    94   ar
    47   117   118    2
    48   117   116    1
    49   137   138    1
    50    89    87   ar
    51    89    92   ar
    52   138   139    1
    53    87    86    1
    54   119   116    1
    55   119   120    1
    56   116   115    1
    57    84    85    2
    58    84    83    1
    59    94    92   ar
    60    17    15    1
    61    15    14    1
    62    16    14    1
    63    83    86    1
    64    83    82    1
    65   139   140    1
    66   120   122   ar
    67   120   121   ar
    68   122   124   ar
    69    14    11    1
    70    71    73   ar
    71    71    69   ar
    72    68    69    1
    73    68    65    1
    74   140   141    1
    75    73    74   ar
    76    66    65    1
    77    66    67    2
    78    69    70   ar
    79    65    64    1
    80    35    34    1
    81   121   123   ar
    82    74    75    1
    83    74    72   ar
    84   124   123   ar
    85    70    72   ar
    86    11    10    1
    87    11    12    1
    88    36    34    1
    89    34    33    1
    90    12    13    2
    91    53    51    1
    92    33    30    1
    93   106   105    2
    94    52    50    1
    95     9     7   ar
    96   109   110    2
    97   109   108    1
    98     8     7   ar
    99    23    22    1
   100    23    24    1
   101     7     6    1
   102   105   104    1
   103   105   107   am
   104    22    19    1
   105    51    50    1
   106    30    29    1
   107    30    31    1
   108   108   107    1
   109   108   111    1
   110    50    47    1
   111    29    20   am
   112   104   103    1
   113    78    79    2
   114    78    77    1
   115    58    59    1
   116    58    55    1
   117    80    77    1
   118    80    81    1
   119    28    26    1
   120    25    24    1
   121    25    26    2
   122     1     2    1
   123    56    57    2
   124    56    55    1
   125    26    27    1
   126    20    19    1
   127    20    21    2
   128    19    18    1
   129    77    76    1
   130     6     5    2
   131    60    59   ar
   132    60    62   ar
   133    31    32    2
   134     2     5    1
   135     2     3    1
   136    59    61   ar
   137    42    41    1
   138    42    43    1
   139   111   112    1
   140    47    48    1
   141    47    46    1
   142    55    54    1
   143    48    49    2
   144    41    38    1
   145    45    43   ar
   146    62    63   ar
   147    61    63   ar
   148    43    44   ar
   149   112   113    1
   150     3     4    2
   151    40    39    2
   152    38    37    1
   153    38    39    1
   154   114   113    1
