@<TRIPOS>MOLECULE
tmp/6bbmD01.pdb
 158 151 0 0 0
SMALL
GASTEIGER

@<TRIPOS>ATOM
      1  N        117.0740  122.6490  153.9590 N.3   217  PRO217     -0.2102
      2  CA       117.5290  121.3970  153.3210 C.3   217  PRO217      0.1504
      3  C        116.8610  120.1580  153.8950 C.2   217  PRO217      0.2576
      4  O        116.7870  119.9810  155.1120 O.2   217  PRO217     -0.2718
      5  CB       119.0350  121.3890  153.5950 C.3   217  PRO217      0.0282
      6  CG       119.3570  122.7680  153.9520 C.3   217  PRO217      0.0208
      7  CD       118.1840  123.3090  154.6500 C.3   217  PRO217      0.0893
      8  N        116.3920  119.2970  152.9840 N.am  218  SER218     -0.1938
      9  CA       115.6140  118.0850  153.2640 C.3   218  SER218      0.2055
     10  C        114.3520  118.3770  154.0730 C.2   218  SER218      0.2643
     11  O        113.8670  117.5260  154.8170 O.2   218  SER218     -0.2714
     12  CB       116.4480  117.0080  153.9580 C.3   218  SER218      0.2130
     13  OG       116.9030  117.4350  155.2250 O.3   218  SER218     -0.2179
     14  N        113.8180  119.5930  153.9490 N.am  219  MET219     -0.1962
     15  CA       112.4890  119.9090  154.4510 C.3   219  MET219      0.1736
     16  C        111.4580  119.8400  153.3450 C.2   219  MET219      0.2617
     17  O        110.4850  120.5960  153.3500 O.2   219  MET219     -0.2715
     18  CB       112.4450  121.2830  155.1150 C.3   219  MET219      0.0427
     19  CG       113.5370  121.5380  156.1140 C.3   219  MET219      0.0599
     20  SD       114.1320  120.0850  156.9770 S.3   219  MET219     -0.1393
     21  CE       115.3670  120.7880  158.0630 C.3   219  MET219      0.0692
     22  N        111.6530  118.9420  152.3980 N.am  220  GLY220     -0.1940
     23  CA       110.7310  118.8670  151.2980 C.3   220  GLY220      0.2014
     24  C        111.1920  119.6760  150.1150 C.2   220  GLY220      0.2639
     25  O        110.5030  120.6000  149.6870 O.2   220  GLY220     -0.2714
     26  N        112.3640  119.3700  149.5860 N.am  221  LYS221     -0.1963
     27  CA       112.7960  120.0790  148.3980 C.3   221  LYS221      0.1728
     28  C        112.6880  119.2600  147.1230 C.2   221  LYS221      0.2617
     29  O        112.3900  119.8280  146.0740 O.2   221  LYS221     -0.2715
     30  CB       114.2280  120.5600  148.5640 C.3   221  LYS221      0.0311
     31  CG       114.5400  121.7630  147.7350 C.3   221  LYS221      0.0038
     32  CD       116.0100  121.9970  147.7220 C.3   221  LYS221      0.0206
     33  CE       116.4450  122.4480  149.0910 C.3   221  LYS221      0.1093
     34  NZ       117.9130  122.4710  149.1820 N.3   221  LYS221     -0.1314
     35  N        112.9340  117.9480  147.1640 N.am  222  THR222     -0.1937
     36  CA       112.7260  117.1020  145.9940 C.3   222  THR222      0.2028
     37  C        111.4090  116.3460  146.0600 C.2   222  THR222      0.2642
     38  O        111.0110  115.7270  145.0700 O.2   222  THR222     -0.2714
     39  CB       113.8860  116.1020  145.8260 C.3   222  THR222      0.1808
     40  OG1      115.0940  116.6720  146.3350 O.3   222  THR222     -0.2208
     41  CG2      114.1360  115.7870  144.3610 C.3   222  THR222      0.0379
     42  N        110.7310  116.3750  147.2070 N.am  223  THR223     -0.1950
     43  CA       109.3410  115.9510  147.2380 C.3   223  THR223      0.1897
     44  C        108.4980  116.8590  146.3620 C.2   223  THR223      0.2313
     45  O        107.6030  116.3940  145.6550 O.2   223  THR223     -0.2863
     46  CB       108.7990  115.9530  148.6670 C.3   223  THR223      0.1794
     47  OG1      108.7600  117.2930  149.1580 O.3   223  THR223     -0.2208
     48  CG2      109.6490  115.1200  149.5730 C.3   223  THR223      0.0378
     49  N        121.6610  115.5380  142.7990 N.3   246  GLU246     -0.1231
     50  CA       121.8550  115.0760  144.1570 C.3   246  GLU246      0.1699
     51  C        121.5930  113.5840  144.2780 C.2   246  GLU246      0.2592
     52  O        122.4390  112.8440  144.7880 O.2   246  GLU246     -0.2718
     53  CB       120.9480  115.8660  145.0850 C.3   246  GLU246      0.0402
     54  CG       120.8490  115.2720  146.4330 C.3   246  GLU246      0.1161
     55  CD       122.1120  115.4620  147.2080 C.2   246  GLU246      0.3649
     56  OE1      122.8340  116.4430  146.9410 O.co2 246  GLU246     -0.2457
     57  OE2      122.3870  114.6200  148.0870 O.co2 246  GLU246     -0.2457
     58  N        120.4420  113.1170  143.8060 N.am  247  MET247     -0.1979
     59  CA       120.0410  111.7220  143.9360 C.3   247  MET247      0.1605
     60  C        120.5790  110.8980  142.7730 C.2   247  MET247      0.2287
     61  O        120.9200  111.4630  141.7300 O.2   247  MET247     -0.2864
     62  CB       118.5210  111.6320  143.9890 C.3   247  MET247      0.0413
     63  CG       117.9410  111.6690  145.3710 C.3   247  MET247      0.0598
     64  SD       116.1760  111.3330  145.2890 S.3   247  MET247     -0.1393
     65  CE       115.8560  110.8730  146.9770 C.3   247  MET247      0.0692
     66  N        110.9290  106.9710  144.4560 N.3   255  ARG255     -0.1245
     67  CA       109.8710  107.7780  145.0450 C.3   255  ARG255      0.1563
     68  C        108.7520  108.0860  144.0580 C.2   255  ARG255      0.2260
     69  O        107.5890  108.1600  144.4640 O.2   255  ARG255     -0.2867
     70  CB       110.4190  109.1020  145.5710 C.3   255  ARG255      0.0307
     71  CG       111.1120  109.0370  146.9000 C.3   255  ARG255      0.0489
     72  CD       111.3950  110.4490  147.3330 C.3   255  ARG255      0.2205
     73  NE       112.6740  110.5830  147.9950 N.pl3 255  ARG255     -0.0865
     74  CZ       112.8130  110.6030  149.3080 C.cat 255  ARG255      0.5346
     75  NH1      111.7490  110.4880  150.0810 N.pl3 255  ARG255      0.1354
     76  NH2      114.0100  110.7290  149.8490 N.pl3 255  ARG255      0.1354
     77  N        105.8310  103.7680  150.3970 N.3   265  GLN265     -0.1245
     78  CA       107.2620  103.5460  150.2000 C.3   265  GLN265      0.1566
     79  C        107.7850  102.3260  150.9580 C.2   265  GLN265      0.2260
     80  O        108.7890  101.7380  150.5350 O.2   265  GLN265     -0.2867
     81  CB       108.0360  104.8150  150.5900 C.3   265  GLN265      0.0367
     82  CG       109.5510  104.8300  150.2610 C.3   265  GLN265      0.0905
     83  CD       109.8820  105.2910  148.8500 C.2   265  GLN265      0.2608
     84  OE1      109.0370  105.2530  147.9660 O.2   265  GLN265     -0.2717
     85  NE2      111.1270  105.7070  148.6300 N.am  265  GLN265     -0.0878
     86  N        110.6590  100.1430  149.8320 N.3   269  ARG269     -0.1245
     87  CA       111.8810  100.2290  150.6210 C.3   269  ARG269      0.1563
     88  C        112.5010   98.8530  150.8130 C.2   269  ARG269      0.2260
     89  O        113.6100   98.5790  150.3420 O.2   269  ARG269     -0.2867
     90  CB       111.5750  100.8580  151.9750 C.3   269  ARG269      0.0307
     91  CG       111.7390  102.3470  152.0150 C.3   269  ARG269      0.0489
     92  CD       111.5470  102.8340  153.4310 C.3   269  ARG269      0.2205
     93  NE       110.1870  103.2810  153.7030 N.pl3 269  ARG269     -0.0865
     94  CZ       109.4470  102.8300  154.7040 C.cat 269  ARG269      0.5346
     95  NH1      108.2370  103.3120  154.8920 N.pl3 269  ARG269      0.1354
     96  NH2      109.9140  101.8910  155.5070 N.pl3 269  ARG269      0.1354
     97  N        118.0890  119.9460  139.8000 N.3   327  ASP327     -0.1225
     98  CA       118.0930  119.7990  141.2410 C.3   327  ASP327      0.1805
     99  C        119.3660  120.3820  141.8280 C.2   327  ASP327      0.2597
    100  O        120.4710  120.0010  141.4330 O.2   327  ASP327     -0.2718
    101  CB       117.9780  118.3250  141.6190 C.3   327  ASP327      0.1424
    102  CG       117.4350  118.1200  143.0130 C.2   327  ASP327      0.3668
    103  OD1      117.3980  119.0890  143.7880 O.co2 327  ASP327     -0.2456
    104  OD2      117.0250  116.9910  143.3340 O.co2 327  ASP327     -0.2456
    105  N        119.1900  121.2940  142.7870 N.am  328  TYR328     -0.1976
    106  CA       120.1550  121.5800  143.8440 C.3   328  TYR328      0.1639
    107  C        121.4610  122.1580  143.2900 C.2   328  TYR328      0.2290
    108  O        122.5020  121.5100  143.2540 O.2   328  TYR328     -0.2864
    109  CB       120.3600  120.3030  144.6530 C.3   328  TYR328      0.0560
    110  CG       120.9980  120.5390  145.9540 C.ar  328  TYR328     -0.0198
    111  CD1      120.4100  121.3890  146.8490 C.ar  328  TYR328     -0.0009
    112  CD2      122.1200  119.8400  146.3390 C.ar  328  TYR328     -0.0009
    113  CE1      120.9570  121.6070  148.0550 C.ar  328  TYR328      0.0417
    114  CE2      122.6720  120.0370  147.5630 C.ar  328  TYR328      0.0417
    115  CZ       122.0880  120.9260  148.4230 C.ar  328  TYR328      0.1957
    116  OH       122.6570  121.1210  149.6550 O.3   328  TYR328     -0.2866
    117  N        108.2190  124.3960  156.4770 N.3   404  ARG404     -0.1245
    118  CA       107.4360  123.2450  156.9210 C.3   404  ARG404      0.1563
    119  C        107.5110  123.2290  158.4370 C.2   404  ARG404      0.2260
    120  O        108.6080  123.1390  158.9890 O.2   404  ARG404     -0.2867
    121  CB       107.9710  121.9560  156.3380 C.3   404  ARG404      0.0307
    122  CG       107.4360  120.7360  157.0280 C.3   404  ARG404      0.0489
    123  CD       107.8280  119.5000  156.2610 C.3   404  ARG404      0.2205
    124  NE       107.7160  118.2970  157.0700 N.pl3 404  ARG404     -0.0865
    125  CZ       108.0520  117.0910  156.6400 C.cat 404  ARG404      0.5346
    126  NH1      108.5240  116.9380  155.4130 N.pl3 404  ARG404      0.1354
    127  NH2      107.9220  116.0470  157.4380 N.pl3 404  ARG404      0.1354
    128  N        108.8030  119.9930  160.7350 N.3   407  VAL407     -0.1245
    129  CA       110.1950  119.5840  160.7430 C.3   407  VAL407      0.1561
    130  C        111.0350  120.5380  161.5800 C.2   407  VAL407      0.2260
    131  O        112.1730  120.2120  161.9330 O.2   407  VAL407     -0.2867
    132  CB       110.7070  119.4720  159.3040 C.3   407  VAL407      0.0252
    133  CG1      111.0390  120.8350  158.7450 C.3   407  VAL407      0.0019
    134  CG2      111.8520  118.4930  159.2220 C.3   407  VAL407      0.0019
    135  N        101.1440  118.1390  152.7260 N.3   437  PHE437     -0.1241
    136  CA       102.3060  117.2630  152.6500 C.3   437  PHE437      0.1605
    137  C        101.8550  115.8510  152.9550 C.2   437  PHE437      0.2264
    138  O        101.5150  115.5180  154.0910 O.2   437  PHE437     -0.2867
    139  CB       103.3860  117.7200  153.6180 C.3   437  PHE437      0.0534
    140  CG       104.3740  116.6590  153.9600 C.ar  437  PHE437     -0.0203
    141  CD1      105.2780  116.2100  153.0200 C.ar  437  PHE437     -0.0042
    142  CD2      104.4110  116.1180  155.2250 C.ar  437  PHE437     -0.0042
    143  CE1      106.1990  115.2430  153.3360 C.ar  437  PHE437     -0.0003
    144  CE2      105.3190  115.1450  155.5450 C.ar  437  PHE437     -0.0003
    145  CZ       106.2120  114.7000  154.6010 C.ar  437  PHE437     -0.0000
    146  N        103.9110  113.1530  151.8590 N.3   439  GLY439     -0.1210
    147  CA       105.1200  112.5450  151.3510 C.3   439  GLY439      0.1956
    148  C        105.4100  111.1500  151.8290 C.2   439  GLY439      0.2611
    149  O        106.5040  110.6430  151.5690 O.2   439  GLY439     -0.2717
    150  N        104.4660  110.5400  152.5570 N.am  440  GLN440     -0.1979
    151  CA       104.3970  109.0920  152.6780 C.3   440  GLN440      0.1601
    152  C        104.5440  108.4200  151.3190 C.2   440  GLN440      0.2287
    153  O        105.3170  107.4690  151.1710 O.2   440  GLN440     -0.2864
    154  CB       103.0750  108.7020  153.3660 C.3   440  GLN440      0.0394
    155  CG       101.7670  109.1460  152.7090 C.3   440  GLN440      0.0908
    156  CD       100.5280  108.6550  153.4240 C.2   440  GLN440      0.2608
    157  OE1      100.6100  108.0020  154.4610 O.2   440  GLN440     -0.2717
    158  NE2       99.3670  108.9370  152.8450 N.am  440  GLN440     -0.0878
@<TRIPOS>BOND
     1    97    98    1
     2    98   101    1
     3    98    99    1
     4   100    99    2
     5   101   102    1
     6    61    60    2
     7    99   105   am
     8    60    59    1
     9   105   106    1
    10    49    50    1
    11   102   104   ar
    12   102   103   ar
    13   108   107    2
    14   107   106    1
    15    58    59    1
    16    58    51   am
    17   106   109    1
    18    59    62    1
    19    62    63    1
    20    68    69    2
    21    68    67    1
    22    50    51    1
    23    50    53    1
    24    51    52    2
    25    41    39    1
    26    66    67    1
    27   109   110    1
    28    67    70    1
    29    38    37    2
    30    53    54    1
    31    64    63    1
    32    64    65    1
    33    70    71    1
    34    45    44    2
    35    39    36    1
    36    39    40    1
    37   110   112   ar
    38   110   111   ar
    39    36    37    1
    40    36    35    1
    41    37    42   am
    42    29    28    2
    43   112   114   ar
    44    44    43    1
    45    54    55    1
    46   111   113   ar
    47    71    72    1
    48    56    55   ar
    49    28    35   am
    50    28    27    1
    51    42    43    1
    52    55    57   ar
    53    43    46    1
    54    72    73    1
    55   114   115   ar
    56    32    31    1
    57    32    33    1
    58    31    30    1
    59    84    83    2
    60    73    74    2
    61   113   115   ar
    62    27    30    1
    63    27    26    1
    64   115   116    1
    65    85    83   am
    66    46    47    1
    67    46    48    1
    68    83    82    1
    69    33    34    1
    70    74    76    1
    71    74    75    1
    72    26    24   am
    73    25    24    2
    74    86    87    1
    75    24    23    1
    76    78    77    1
    77    78    81    1
    78    78    79    1
    79    82    81    1
    80    89    88    2
    81    80    79    2
    82    87    88    1
    83    87    90    1
    84   153   152    2
    85    23    22    1
    86   152   151    1
    87   147   148    1
    88   147   146    1
    89   149   148    2
    90   148   150   am
    91    90    91    1
    92    91    92    1
    93    22    16   am
    94   150   151    1
    95   136   135    1
    96   136   137    1
    97   136   139    1
    98   151   154    1
    99   155   154    1
   100   155   156    1
   101   158   156   am
   102   137   138    2
   103     8     9    1
   104     8     3   am
   105   141   143   ar
   106   141   140   ar
   107     9    12    1
   108     9    10    1
   109     2     5    1
   110     2     3    1
   111     2     1    1
   112   143   145   ar
   113    16    17    2
   114    16    15    1
   115   156   157    2
   116    92    93    1
   117     5     6    1
   118   139   140    1
   119    93    94    2
   120     3     4    2
   121    14    10   am
   122    14    15    1
   123     6     7    1
   124    12    13    1
   125     1     7    1
   126   140   142   ar
   127    10    11    2
   128    15    18    1
   129   145   144   ar
   130    94    95    1
   131    94    96    1
   132    18    19    1
   133   142   144   ar
   134   126   125    1
   135    19    20    1
   136   123   122    1
   137   123   124    1
   138   121   118    1
   139   121   122    1
   140   117   118    1
   141   125   124    2
   142   125   127    1
   143   118   119    1
   144    20    21    1
   145   119   120    2
   146   133   132    1
   147   134   132    1
   148   132   129    1
   149   128   129    1
   150   129   130    1
   151   130   131    2
