@<TRIPOS>MOLECULE
tmp/6bbmA00.pdb
 172 165 0 0 0
SMALL
GASTEIGER

@<TRIPOS>ATOM
      1  N        158.3010  157.1650  145.0090 N.3   170  PRO170     -0.2102
      2  CA       157.8590  158.3720  144.2950 C.3   170  PRO170      0.1504
      3  C        158.3510  159.7100  144.8120 C.2   170  PRO170      0.2576
      4  O        157.9450  160.1370  145.8960 O.2   170  PRO170     -0.2718
      5  CB       156.3440  158.3070  144.4560 C.3   170  PRO170      0.0282
      6  CG       156.0430  156.8650  144.5660 C.3   170  PRO170      0.0208
      7  CD       157.2930  156.1080  144.8660 C.3   170  PRO170      0.0893
      8  N        159.1790  160.3780  144.0040 N.am  171  SER171     -0.1938
      9  CA       159.7100  161.7170  144.2680 C.3   171  SER171      0.2055
     10  C        160.4520  161.7790  145.6050 C.2   171  SER171      0.2643
     11  O        160.1120  162.5520  146.4980 O.2   171  SER171     -0.2714
     12  CB       158.6040  162.7700  144.2080 C.3   171  SER171      0.2130
     13  OG       157.8970  162.7870  145.4300 O.3   171  SER171     -0.2179
     14  N        161.4540  160.9150  145.7430 N.am  172  MET172     -0.1962
     15  CA       162.3240  160.9150  146.9150 C.3   172  MET172      0.1736
     16  C        163.7030  161.4340  146.5890 C.2   172  MET172      0.2617
     17  O        164.6940  160.9560  147.1350 O.2   172  MET172     -0.2715
     18  CB       162.4120  159.5260  147.5200 C.3   172  MET172      0.0427
     19  CG       161.0800  159.0720  147.9530 C.3   172  MET172      0.0599
     20  SD       160.4200  160.3680  148.9780 S.3   172  MET172     -0.1393
     21  CE       158.7150  159.8980  149.1150 C.3   172  MET172      0.0692
     22  N        163.7870  162.4150  145.7010 N.am  173  GLY173     -0.1940
     23  CA       165.0760  162.9560  145.3430 C.3   173  GLY173      0.2014
     24  C        165.9040  161.9940  144.5410 C.2   173  GLY173      0.2639
     25  O        167.1330  162.0400  144.6050 O.2   173  GLY173     -0.2714
     26  N        165.2520  161.0970  143.8100 N.am  174  LYS174     -0.1963
     27  CA       165.9750  160.1330  142.9990 C.3   174  LYS174      0.1728
     28  C        166.7010  160.8160  141.8520 C.2   174  LYS174      0.2617
     29  O        167.8800  160.5420  141.6040 O.2   174  LYS174     -0.2715
     30  CB       165.0000  159.0960  142.4720 C.3   174  LYS174      0.0311
     31  CG       165.4690  158.3710  141.2500 C.3   174  LYS174      0.0038
     32  CD       164.6600  157.1340  140.9970 C.3   174  LYS174      0.0206
     33  CE       163.1710  157.4100  141.0530 C.3   174  LYS174      0.1093
     34  NZ       162.4040  156.1820  141.3560 N.3   174  LYS174     -0.1314
     35  N        166.0260  161.7300  141.1540 N.am  175  THR175     -0.1937
     36  CA       166.6690  162.3850  140.0230 C.3   175  THR175      0.2028
     37  C        167.6490  163.4500  140.4990 C.2   175  THR175      0.2642
     38  O        168.5780  163.8100  139.7720 O.2   175  THR175     -0.2714
     39  CB       165.6280  163.0040  139.0940 C.3   175  THR175      0.1808
     40  OG1      164.4030  162.2700  139.1710 O.3   175  THR175     -0.2208
     41  CG2      166.1160  162.9300  137.6730 C.3   175  THR175      0.0379
     42  N        167.4560  163.9680  141.7140 N.am  176  THR176     -0.1950
     43  CA       168.4000  164.9330  142.2610 C.3   176  THR176      0.1897
     44  C        169.7290  164.2860  142.5770 C.2   176  THR176      0.2313
     45  O        170.7730  164.7950  142.1650 O.2   176  THR176     -0.2863
     46  CB       167.8650  165.5600  143.5390 C.3   176  THR176      0.1794
     47  OG1      167.9880  164.6150  144.6040 O.3   176  THR176     -0.2208
     48  CG2      166.4310  165.9140  143.3800 C.3   176  THR176      0.0378
     49  N        162.6310  161.4590  131.7570 N.3   199  GLU199     -0.1231
     50  CA       161.5640  162.0320  132.5570 C.3   199  GLU199      0.1699
     51  C        161.5880  163.5530  132.5260 C.2   199  GLU199      0.2592
     52  O        160.5550  164.1760  132.2770 O.2   199  GLU199     -0.2718
     53  CB       161.6640  161.5060  133.9910 C.3   199  GLU199      0.0402
     54  CG       161.1010  162.4160  135.0610 C.3   199  GLU199      0.1161
     55  CD       159.6060  162.5750  134.9720 C.2   199  GLU199      0.3649
     56  OE1      158.8900  161.5610  135.0750 O.co2 199  GLU199     -0.2457
     57  OE2      159.1470  163.7200  134.8040 O.co2 199  GLU199     -0.2457
     58  N        162.7300  164.1660  132.7570 N.am  200  MET200     -0.1979
     59  CA       162.6820  165.6140  132.8420 C.3   200  MET200      0.1605
     60  C        163.2420  166.2440  131.5770 C.2   200  MET200      0.2287
     61  O        164.1560  165.6960  130.9620 O.2   200  MET200     -0.2864
     62  CB       163.4780  166.1090  134.0500 C.3   200  MET200      0.0413
     63  CG       162.8070  165.8510  135.3860 C.3   200  MET200      0.0598
     64  SD       163.3930  166.9750  136.6680 S.3   200  MET200     -0.1393
     65  CE       165.1470  166.9850  136.3240 C.3   200  MET200      0.0692
     66  N        168.6780  171.9910  137.9300 N.3   208  ARG208     -0.1245
     67  CA       169.1420  171.2720  139.1000 C.3   208  ARG208      0.1563
     68  C        170.6540  171.1350  139.1290 C.2   208  ARG208      0.2260
     69  O        171.2040  170.7600  140.1680 O.2   208  ARG208     -0.2867
     70  CB       168.5140  169.8760  139.1590 C.3   208  ARG208      0.0307
     71  CG       167.0080  169.8960  139.1020 C.3   208  ARG208      0.0489
     72  CD       166.4080  168.5500  139.4290 C.3   208  ARG208      0.2205
     73  NE       164.9540  168.6070  139.5130 N.pl3 208  ARG208     -0.0865
     74  CZ       164.2890  169.0310  140.5810 C.cat 208  ARG208      0.5346
     75  NH1      164.9400  169.4430  141.6560 N.pl3 208  ARG208      0.1354
     76  NH2      162.9680  169.0480  140.5750 N.pl3 208  ARG208      0.1354
     77  N        169.1540  179.4420  145.0010 N.3   217  ASP217     -0.1225
     78  CA       167.9020  178.7360  145.2240 C.3   217  ASP217      0.1805
     79  C        167.2030  178.4470  143.9000 C.2   217  ASP217      0.2598
     80  O        167.3100  179.2090  142.9370 O.2   217  ASP217     -0.2718
     81  CB       166.9860  179.5450  146.1310 C.3   217  ASP217      0.1424
     82  CG       165.9130  178.6940  146.7610 C.2   217  ASP217      0.3668
     83  OD1      166.0540  177.4590  146.7410 O.co2 217  ASP217     -0.2456
     84  OD2      164.9200  179.2520  147.2670 O.co2 217  ASP217     -0.2456
     85  N        166.4800  177.3220  143.8560 N.am  218  GLN218     -0.1965
     86  CA       165.7350  176.9750  142.6480 C.3   218  GLN218      0.1733
     87  C        164.5370  177.8880  142.4480 C.2   218  GLN218      0.2617
     88  O        164.0480  178.0410  141.3250 O.2   218  GLN218     -0.2715
     89  CB       165.2690  175.5260  142.6890 C.3   218  GLN218      0.0408
     90  CG       166.2670  174.5350  142.1770 C.3   218  GLN218      0.0908
     91  CD       165.6290  173.1930  141.9010 C.2   218  GLN218      0.2608
     92  OE1      164.4550  172.9840  142.1880 O.2   218  GLN218     -0.2717
     93  NE2      166.3970  172.2780  141.3360 N.am  218  GLN218     -0.0878
     94  N        164.0260  178.4810  143.5230 N.am  219  THR219     -0.1951
     95  CA       162.9940  179.4910  143.3460 C.3   219  THR219      0.1897
     96  C        163.5800  180.7490  142.7230 C.2   219  THR219      0.2313
     97  O        163.0470  181.2600  141.7350 O.2   219  THR219     -0.2863
     98  CB       162.3190  179.8100  144.6760 C.3   219  THR219      0.1794
     99  OG1      163.3160  180.1000  145.6620 O.3   219  THR219     -0.2208
    100  CG2      161.4780  178.6290  145.1370 C.3   219  THR219      0.0378
    101  N        164.1010  180.7610  139.2460 N.3   222  ARG222     -0.1245
    102  CA       162.8450  180.6410  138.5220 C.3   222  ARG222      0.1563
    103  C        161.9380  181.8490  138.7360 C.2   222  ARG222      0.2260
    104  O        161.4850  182.4680  137.7700 O.2   222  ARG222     -0.2867
    105  CB       162.1540  179.3540  138.9690 C.3   222  ARG222      0.0307
    106  CG       160.7310  179.2090  138.5380 C.3   222  ARG222      0.0489
    107  CD       160.2520  177.8330  138.9190 C.3   222  ARG222      0.2205
    108  NE       161.0710  176.8020  138.3030 N.pl3 222  ARG222     -0.0865
    109  CZ       160.8050  175.5080  138.3860 C.cat 222  ARG222      0.5346
    110  NH1      161.5960  174.6280  137.7990 N.pl3 222  ARG222      0.1354
    111  NH2      159.7430  175.0990  139.0630 N.pl3 222  ARG222      0.1354
    112  N        167.8330  158.0070  133.4830 N.3   280  ASP280     -0.1225
    113  CA       166.7750  158.3490  134.4060 C.3   280  ASP280      0.1805
    114  C        165.6230  157.3880  134.1670 C.2   280  ASP280      0.2597
    115  O        165.2120  157.1840  133.0190 O.2   280  ASP280     -0.2718
    116  CB       166.3250  159.7980  134.2190 C.3   280  ASP280      0.1424
    117  CG       165.3460  160.2640  135.2940 C.2   280  ASP280      0.3668
    118  OD1      165.2190  159.6000  136.3360 O.co2 280  ASP280     -0.2456
    119  OD2      164.7140  161.3200  135.1060 O.co2 280  ASP280     -0.2456
    120  N        165.1600  156.7640  135.2540 N.am  281  TYR281     -0.1976
    121  CA       163.7840  156.3010  135.4070 C.3   281  TYR281      0.1639
    122  C        163.4290  155.2120  134.3860 C.2   281  TYR281      0.2290
    123  O        162.7380  155.4480  133.3980 O.2   281  TYR281     -0.2864
    124  CB       162.8820  157.5240  135.3160 C.3   281  TYR281      0.0560
    125  CG       161.5430  157.3400  135.8840 C.ar  281  TYR281     -0.0198
    126  CD1      161.3700  157.2410  137.2370 C.ar  281  TYR281     -0.0009
    127  CD2      160.4370  157.3490  135.0760 C.ar  281  TYR281     -0.0009
    128  CE1      160.1320  157.1080  137.7660 C.ar  281  TYR281      0.0417
    129  CE2      159.2010  157.2180  135.5930 C.ar  281  TYR281      0.0417
    130  CZ       159.0460  157.0980  136.9380 C.ar  281  TYR281      0.1957
    131  OH       157.7870  156.9600  137.4430 O.3   281  TYR281     -0.2866
    132  N        163.8070  158.6230  153.0100 N.3   357  ARG357     -0.1245
    133  CA       163.7870  159.9890  153.5140 C.3   357  ARG357      0.1563
    134  C        162.5940  160.0810  154.4480 C.2   357  ARG357      0.2260
    135  O        161.4950  159.6740  154.0740 O.2   357  ARG357     -0.2867
    136  CB       163.6750  160.9700  152.3590 C.3   357  ARG357      0.0307
    137  CG       163.9230  162.3870  152.6740 C.3   357  ARG357      0.0489
    138  CD       163.5240  163.1520  151.4540 C.3   357  ARG357      0.2205
    139  NE       163.6320  164.5850  151.6180 N.pl3 357  ARG357     -0.0865
    140  CZ       164.3670  165.3730  150.8530 C.cat 357  ARG357      0.5346
    141  NH1      165.0710  164.8750  149.8490 N.pl3 357  ARG357      0.1354
    142  NH2      164.3660  166.6700  151.1000 N.pl3 357  ARG357      0.1354
    143  N        170.9700  166.9020  153.0490 N.3   390  PHE390     -0.1241
    144  CA       170.4420  167.5180  151.8470 C.3   390  PHE390      0.1605
    145  C        169.7290  168.8100  152.2010 C.2   390  PHE390      0.2264
    146  O        168.7320  168.7930  152.9280 O.2   390  PHE390     -0.2867
    147  CB       169.4800  166.5820  151.1420 C.3   390  PHE390      0.0534
    148  CG       168.7080  167.2380  150.0710 C.ar  390  PHE390     -0.0203
    149  CD1      169.3460  167.8290  149.0130 C.ar  390  PHE390     -0.0042
    150  CD2      167.3380  167.2970  150.1340 C.ar  390  PHE390     -0.0042
    151  CE1      168.6330  168.4480  148.0280 C.ar  390  PHE390     -0.0003
    152  CE2      166.6090  167.9230  149.1360 C.ar  390  PHE390     -0.0003
    153  CZ       167.2610  168.5030  148.0850 C.ar  390  PHE390     -0.0000
    154  N        167.1510  171.3800  151.5660 N.3   392  GLY392     -0.1210
    155  CA       165.8630  171.3710  150.9070 C.3   392  GLY392      0.1956
    156  C        165.5380  172.5890  150.0770 C.2   392  GLY392      0.2611
    157  O        164.3630  172.9340  149.9420 O.2   392  GLY392     -0.2717
    158  N        166.5430  173.2810  149.5600 N.am  393  GLN393     -0.1979
    159  CA       166.3960  174.4230  148.6760 C.3   393  GLN393      0.1601
    160  C        167.2590  174.3430  147.4270 C.2   393  GLN393      0.2287
    161  O        166.8000  174.7120  146.3500 O.2   393  GLN393     -0.2864
    162  CB       166.7060  175.7100  149.4610 C.3   393  GLN393      0.0394
    163  CG       168.0370  175.6660  150.1970 C.3   393  GLN393      0.0908
    164  CD       168.3530  176.9280  150.9470 C.2   393  GLN393      0.2608
    165  OE1      167.6210  177.9110  150.8750 O.2   393  GLN393     -0.2717
    166  NE2      169.4580  176.9100  151.6780 N.am  393  GLN393     -0.0878
    167  N        168.6310  171.7490  145.7800 N.3   395  SER395     -0.1217
    168  CA       168.6690  170.4490  145.1050 C.3   395  SER395      0.1889
    169  C        170.0970  169.9050  145.0370 C.2   395  SER395      0.2288
    170  O        170.5900  169.4910  143.9860 O.2   395  SER395     -0.2866
    171  CB       168.0350  170.5070  143.7120 C.3   395  SER395      0.2089
    172  OG       169.0050  170.8250  142.7340 O.3   395  SER395     -0.2183
@<TRIPOS>BOND
     1    61    60    2
     2    60    59    1
     3    49    50    1
     4    52    51    2
     5    51    50    1
     6    51    58   am
     7    50    53    1
     8    58    59    1
     9    59    62    1
    10   115   114    2
    11   123   122    2
    12   112   113    1
    13    53    54    1
    14    62    63    1
    15   114   113    1
    16   114   120   am
    17   116   113    1
    18   116   117    1
    19   122   121    1
    20    57    55   ar
    21    55    54    1
    22    55    56   ar
    23   127   129   ar
    24   127   125   ar
    25   119   117   ar
    26   120   121    1
    27   117   118   ar
    28   124   121    1
    29   124   125    1
    30    63    64    1
    31   129   130   ar
    32   125   126   ar
    33    65    64    1
    34   130   131    1
    35   130   128   ar
    36   126   128   ar
    37    41    39    1
    38   104   103    2
    39   110   109    1
    40    66    67    1
    41   108   109    2
    42   108   107    1
    43   109   111    1
    44   102   103    1
    45   102   105    1
    46   102   101    1
    47   106   107    1
    48   106   105    1
    49    39    40    1
    50    39    36    1
    51    67    68    1
    52    67    70    1
    53    71    70    1
    54    71    72    1
    55    68    69    2
    56    72    73    1
    57    73    74    2
    58    38    37    2
    59    36    37    1
    60    36    35    1
    61    37    42   am
    62    76    74    1
    63    74    75    1
    64    32    33    1
    65    32    31    1
    66    33    34    1
    67    35    28   am
    68    31    30    1
    69    88    87    2
    70    93    91   am
    71    29    28    2
    72    42    43    1
    73    97    96    2
    74    28    27    1
    75    91    90    1
    76    91    92    2
    77    45    44    2
    78    90    89    1
    79    43    44    1
    80    43    46    1
    81    87    86    1
    82    87    94   am
    83    30    27    1
    84    86    89    1
    85    86    85    1
    86    96    95    1
    87   172   171    1
    88    80    79    2
    89    27    26    1
    90    95    94    1
    91    95    98    1
    92    48    46    1
    93    46    47    1
    94   171   168    1
    95    26    24   am
    96    85    79   am
    97    79    78    1
    98   170   169    2
    99     8     9    1
   100     8     3   am
   101    12     9    1
   102    12    13    1
   103     9    10    1
   104     2     5    1
   105     2     3    1
   106     2     1    1
   107     5     6    1
   108    24    25    2
   109    24    23    1
   110     6     7    1
   111    98   100    1
   112    98    99    1
   113     3     4    2
   114     7     1    1
   115    77    78    1
   116   169   168    1
   117   168   167    1
   118    78    81    1
   119    23    22    1
   120    10    14   am
   121    10    11    2
   122    22    16   am
   123    14    15    1
   124    81    82    1
   125   161   160    2
   126    16    15    1
   127    16    17    2
   128    83    82   ar
   129    82    84   ar
   130    15    18    1
   131   160   159    1
   132    18    19    1
   133    19    20    1
   134   151   153   ar
   135   151   149   ar
   136   153   152   ar
   137   159   162    1
   138   159   158    1
   139    20    21    1
   140   149   148   ar
   141   152   150   ar
   142   162   163    1
   143   158   156   am
   144   141   140    1
   145   157   156    2
   146   148   150   ar
   147   148   147    1
   148   156   155    1
   149   163   164    1
   150   140   142    1
   151   140   139    2
   152   165   164    2
   153   155   154    1
   154   164   166   am
   155   147   144    1
   156   138   139    1
   157   138   137    1
   158   144   145    1
   159   144   143    1
   160   145   146    2
   161   136   137    1
   162   136   133    1
   163   132   133    1
   164   133   134    1
   165   135   134    2
