@<TRIPOS>MOLECULE
tmp/6bbnF00.pdb
 178 174 0 0 0
SMALL
GASTEIGER

@<TRIPOS>ATOM
      1  N          2.8190  -20.1760    4.5230 N.3    69  ARG69      -0.1231
      2  CA         2.3840  -19.4050    3.3640 C.3    69  ARG69       0.1694
      3  C          3.3370  -18.2460    3.1060 C.2    69  ARG69       0.2592
      4  O          3.7590  -17.5520    4.0370 O.2    69  ARG69      -0.2718
      5  CB         0.9610  -18.8580    3.5310 C.3    69  ARG69       0.0321
      6  CG         0.4910  -18.0740    2.3140 C.3    69  ARG69       0.0489
      7  CD        -0.9650  -17.6760    2.3960 C.3    69  ARG69       0.2205
      8  NE        -1.5450  -17.5640    1.0620 N.pl3  69  ARG69      -0.0865
      9  CZ        -2.8240  -17.3020    0.8220 C.cat  69  ARG69       0.5346
     10  NH1       -3.6670  -17.1220    1.8300 N.pl3  69  ARG69       0.1354
     11  NH2       -3.2610  -17.2250   -0.4280 N.pl3  69  ARG69       0.1354
     12  N          3.6640  -18.0440    1.8320 N.am   70  LYS70      -0.1966
     13  CA         4.4750  -16.9250    1.3730 C.3    70  LYS70       0.1728
     14  C          3.5820  -15.9010    0.6870 C.2    70  LYS70       0.2616
     15  O          2.8500  -16.2420   -0.2480 O.2    70  LYS70      -0.2715
     16  CB         5.5540  -17.4090    0.4050 C.3    70  LYS70       0.0311
     17  CG         6.2680  -16.3080   -0.3630 C.3    70  LYS70       0.0038
     18  CD         7.0960  -16.8980   -1.4950 C.3    70  LYS70       0.0206
     19  CE         7.8190  -15.8250   -2.2920 C.3    70  LYS70       0.1093
     20  NZ         8.4010  -16.3900   -3.5440 N.3    70  LYS70      -0.1314
     21  N          3.6410  -14.6460    1.1520 N.am   71  ARG71      -0.1964
     22  CA         2.8800  -13.6530    0.4080 C.3    71  ARG71       0.1714
     23  C          3.7890  -12.9110   -0.5660 C.2    71  ARG71       0.2458
     24  O          4.9890  -12.7750   -0.3180 O.2    71  ARG71      -0.2730
     25  CB         2.2210  -12.6390    1.3480 C.3    71  ARG71       0.0347
     26  CG         3.2060  -11.7270    2.0630 C.3    71  ARG71       0.0492
     27  CD         2.5340  -10.4540    2.5590 C.3    71  ARG71       0.2205
     28  NE         3.5020   -9.5070    3.1080 N.pl3  71  ARG71      -0.0865
     29  CZ         4.1090   -8.5630    2.3940 C.cat  71  ARG71       0.5346
     30  NH1        3.8560   -8.4480    1.0970 N.pl3  71  ARG71       0.1354
     31  NH2        4.9790   -7.7420    2.9710 N.pl3  71  ARG71       0.1354
     32  N          3.2680  -12.4320   -1.6900 N.am   72  PRO72      -0.2727
     33  CA         4.1010  -11.6730   -2.6290 C.3    72  PRO72       0.1402
     34  C          4.3320  -10.2400   -2.1650 C.2    72  PRO72       0.2269
     35  O          3.6070   -9.6980   -1.3260 O.2    72  PRO72      -0.2865
     36  CB         3.2920  -11.7040   -3.9320 C.3    72  PRO72       0.0296
     37  CG         1.8910  -11.9800   -3.5080 C.3    72  PRO72       0.0237
     38  CD         1.9730  -12.8200   -2.2750 C.3    72  PRO72       0.0939
     39  N          4.5560   -6.1340   -2.2380 N.3    74  ASN74      -0.1240
     40  CA         3.5440   -5.1300   -2.5450 C.3    74  ASN74       0.1653
     41  C          4.1960   -3.8540   -3.0830 C.2    74  ASN74       0.2266
     42  O          5.3970   -3.8100   -3.3670 O.2    74  ASN74      -0.2867
     43  CB         2.6740   -4.8560   -1.3170 C.3    74  ASN74       0.1155
     44  CG         3.4840   -4.4520   -0.1060 C.2    74  ASN74       0.2627
     45  OD1        4.4300   -3.6730   -0.2000 O.2    74  ASN74      -0.2716
     46  ND2        3.1140   -4.9910    1.0490 N.am   74  ASN74      -0.0877
     47  N          1.1660  -17.1990   -4.8300 N.3   123  SER123     -0.1202
     48  CA         0.0760  -17.0810   -5.7920 C.3   123  SER123      0.2020
     49  C         -1.2370  -17.6220   -5.2340 C.2   123  SER123      0.2618
     50  O         -2.2400  -16.9010   -5.1950 O.2   123  SER123     -0.2717
     51  CB         0.4300  -17.8000   -7.0990 C.3   123  SER123      0.2103
     52  OG         0.2060  -19.1980   -7.0100 O.3   123  SER123     -0.2182
     53  N         -1.2310  -18.8880   -4.7990 N.am  124  ALA124     -0.1979
     54  CA        -2.4030  -19.6610   -4.3920 C.3   124  ALA124      0.1597
     55  C         -3.3840  -18.8560   -3.5440 C.2   124  ALA124      0.2287
     56  O         -2.9690  -18.0970   -2.6580 O.2   124  ALA124     -0.2864
     57  CB        -1.9640  -20.9110   -3.6300 C.3   124  ALA124      0.0319
     58  N          4.4870  -12.7560   11.0890 N.3   154  GLN154     -0.1231
     59  CA         4.8330  -11.3910   11.4500 C.3   154  GLN154      0.1698
     60  C          3.7570  -10.4260   10.9710 C.2   154  GLN154      0.2593
     61  O          2.8930  -10.7610   10.1620 O.2   154  GLN154     -0.2718
     62  CB         6.2000  -10.9990   10.8800 C.3   154  GLN154      0.0381
     63  CG         6.2340  -10.8280    9.3740 C.3   154  GLN154      0.0905
     64  CD         7.6470  -10.6940    8.8460 C.2   154  GLN154      0.2608
     65  OE1        8.1500  -11.5740    8.1470 O.2   154  GLN154     -0.2717
     66  NE2        8.2960   -9.5820    9.1750 N.am  154  GLN154     -0.0878
     67  N          3.8200   -9.2070   11.4920 N.am  155  THR155     -0.1939
     68  CA         2.8490   -8.1720   11.1490 C.3   155  THR155      0.2028
     69  C          3.0780   -7.7150    9.7130 C.2   155  THR155      0.2643
     70  O          4.0380   -6.9960    9.4240 O.2   155  THR155     -0.2714
     71  CB         2.9590   -7.0030   12.1220 C.3   155  THR155      0.1808
     72  OG1        2.8450   -7.4930   13.4640 O.3   155  THR155     -0.2208
     73  CG2        1.8640   -5.9760   11.8500 C.3   155  THR155      0.0379
     74  N          2.1860   -8.1170    8.8140 N.am  156  GLY156     -0.1939
     75  CA         2.3840   -7.9340    7.3930 C.3   156  GLY156      0.2014
     76  C          2.6040   -9.2160    6.6260 C.2   156  GLY156      0.2640
     77  O          2.8810   -9.1580    5.4220 O.2   156  GLY156     -0.2714
     78  N          2.4940  -10.3700    7.2830 N.am  157  SER157     -0.1935
     79  CA         2.6510  -11.6590    6.6240 C.3   157  SER157      0.2055
     80  C          1.3510  -12.1670    6.0160 C.2   157  SER157      0.2644
     81  O          1.3910  -12.9460    5.0560 O.2   157  SER157     -0.2714
     82  CB         3.1990  -12.6890    7.6140 C.3   157  SER157      0.2130
     83  OG         2.3510  -12.8170    8.7430 O.3   157  SER157     -0.2179
     84  N          0.2050  -11.7550    6.5570 N.am  158  GLY158     -0.1939
     85  CA        -1.0750  -12.0330    5.9330 C.3   158  GLY158      0.2014
     86  C         -1.9780  -12.9940    6.6800 C.2   158  GLY158      0.2639
     87  O         -2.7830  -13.6970    6.0610 O.2   158  GLY158     -0.2714
     88  N         -1.8660  -13.0310    8.0090 N.am  159  LYS159     -0.1963
     89  CA        -2.7100  -13.9230    8.7970 C.3   159  LYS159      0.1728
     90  C         -4.1810  -13.5370    8.6760 C.2   159  LYS159      0.2617
     91  O         -5.0390  -14.3820    8.3810 O.2   159  LYS159     -0.2715
     92  CB        -2.2560  -13.9040   10.2540 C.3   159  LYS159      0.0311
     93  CG        -0.7830  -14.2130   10.4330 C.3   159  LYS159      0.0038
     94  CD        -0.2910  -13.8160   11.8140 C.3   159  LYS159      0.0206
     95  CE        -0.4510  -12.3290   12.0580 C.3   159  LYS159      0.1093
     96  NZ         0.5480  -11.5240   11.3060 N.3   159  LYS159     -0.1314
     97  N         -4.4910  -12.2540    8.8930 N.am  160  THR160     -0.1937
     98  CA        -5.8770  -11.8040    8.8060 C.3   160  THR160      0.2028
     99  C         -6.4500  -12.0420    7.4140 C.2   160  THR160      0.2642
    100  O         -7.5940  -12.4870    7.2770 O.2   160  THR160     -0.2714
    101  CB        -5.9840  -10.3240    9.1810 C.3   160  THR160      0.1808
    102  OG1       -5.1520  -10.0520   10.3150 O.3   160  THR160     -0.2208
    103  CG2       -7.4280   -9.9590    9.5150 C.3   160  THR160      0.0379
    104  N         -5.6660  -11.7710    6.3670 N.am  161  HIS161     -0.1959
    105  CA        -6.1860  -11.9420    5.0150 C.3   161  HIS161      0.1787
    106  C         -6.4930  -13.4010    4.7100 C.2   161  HIS161      0.2620
    107  O         -7.3730  -13.6910    3.8910 O.2   161  HIS161     -0.2715
    108  CB        -5.2040  -11.3900    3.9880 C.3   161  HIS161      0.0785
    109  CG        -5.6100  -11.6550    2.5730 C.ar  161  HIS161      0.0821
    110  ND1       -5.0670  -12.6730    1.8190 N.ar  161  HIS161     -0.2267
    111  CD2       -6.5260  -11.0470    1.7810 C.ar  161  HIS161      0.1154
    112  CE1       -5.6200  -12.6730    0.6190 C.ar  161  HIS161      0.1986
    113  NE2       -6.5100  -11.6970    0.5710 N.ar  161  HIS161     -0.2212
    114  N         -5.7850  -14.3300    5.3520 N.am  162  THR162     -0.1951
    115  CA        -6.1220  -15.7350    5.1910 C.3   162  THR162      0.1897
    116  C         -7.3010  -16.1300    6.0650 C.2   162  THR162      0.2313
    117  O         -8.0360  -17.0620    5.7210 O.2   162  THR162     -0.2863
    118  CB        -4.9070  -16.6080    5.5050 C.3   162  THR162      0.1794
    119  OG1       -3.8130  -16.2180    4.6660 O.3   162  THR162     -0.2208
    120  CG2       -5.2140  -18.0740    5.2420 C.3   162  THR162      0.0378
    121  N        -11.4670   -9.9370    3.1720 N.3   166  ASP166     -0.1239
    122  CA       -11.4360   -8.5170    2.7870 C.3   166  ASP166      0.1674
    123  C        -12.7650   -7.8320    3.1140 C.2   166  ASP166      0.2266
    124  O        -12.9300   -7.2400    4.1810 O.2   166  ASP166     -0.2867
    125  CB       -11.1370   -8.3720    1.2920 C.3   166  ASP166      0.1410
    126  CG        -9.7160   -8.7770    0.9310 C.2   166  ASP166      0.3668
    127  OD1       -9.4640   -9.9830    0.6970 O.co2 166  ASP166     -0.2456
    128  OD2       -8.8560   -7.8770    0.8550 O.co2 166  ASP166     -0.2456
    129  N         -2.9230   -0.0120   10.2440 N.3   257  HIS257     -0.1226
    130  CA        -4.2050   -0.6130    9.8620 C.3   257  HIS257      0.1752
    131  C         -4.2190   -2.1230   10.0640 C.2   257  HIS257      0.2597
    132  O         -4.6410   -2.8670    9.1790 O.2   257  HIS257     -0.2718
    133  CB        -4.5170   -0.2650    8.4090 C.3   257  HIS257      0.0759
    134  CG        -5.9420   -0.5110    8.0140 C.ar  257  HIS257      0.0818
    135  ND1       -6.5110   -1.7680    8.0200 N.ar  257  HIS257     -0.2268
    136  CD2       -6.9090    0.3360    7.5880 C.ar  257  HIS257      0.1154
    137  CE1       -7.7680   -1.6820    7.6210 C.ar  257  HIS257      0.1986
    138  NE2       -8.0340   -0.4170    7.3520 N.ar  257  HIS257     -0.2212
    139  N         -3.7840   -2.6230   11.2150 N.am  258  SER258     -0.1938
    140  CA        -3.5610   -4.0540   11.3560 C.3   258  SER258      0.2055
    141  C         -4.2180   -4.5950   12.6150 C.2   258  SER258      0.2644
    142  O         -4.3880   -3.8810   13.6080 O.2   258  SER258     -0.2714
    143  CB        -2.0580   -4.3860   11.3610 C.3   258  SER258      0.2130
    144  OG        -1.6070   -4.7030   10.0510 O.3   258  SER258     -0.2179
    145  N         -4.5840   -5.8750   12.5500 N.am  259  SER259     -0.1935
    146  CA        -5.2480   -6.5960   13.6320 C.3   259  SER259      0.2055
    147  C         -4.4380   -6.5590   14.9240 C.2   259  SER259      0.2642
    148  O         -3.4430   -7.2780   15.0610 O.2   259  SER259     -0.2714
    149  CB        -5.4990   -8.0440   13.2040 C.3   259  SER259      0.2130
    150  OG        -4.5070   -8.9100   13.7250 O.3   259  SER259     -0.2179
    151  N         -4.8660   -5.7390   15.8860 N.am  260  ARG260     -0.1977
    152  CA        -4.1110   -5.5100   17.1120 C.3   260  ARG260      0.1597
    153  C         -4.6600   -6.2960   18.3000 C.2   260  ARG260      0.2287
    154  O         -4.4740   -5.8840   19.4500 O.2   260  ARG260     -0.2864
    155  CB        -4.0820   -4.0180   17.4400 C.3   260  ARG260      0.0334
    156  CG        -3.2890   -3.1820   16.4550 C.3   260  ARG260      0.0492
    157  CD        -1.8330   -3.6100   16.3890 C.3   260  ARG260      0.2205
    158  NE        -1.0100   -2.9380   17.3900 N.pl3 260  ARG260     -0.0865
    159  CZ         0.3150   -3.0330   17.4500 C.cat 260  ARG260      0.5346
    160  NH1        0.9700   -3.7690   16.5610 N.pl3 260  ARG260      0.1354
    161  NH2        0.9860   -2.3870   18.3930 N.pl3 260  ARG260      0.1354
    162  N         -4.0870  -14.5870   14.9770 N.3   284  LEU284     -0.1231
    163  CA        -3.3050  -13.8790   15.9800 C.3   284  LEU284      0.1693
    164  C         -2.6990  -12.6080   15.3910 C.2   284  LEU284      0.2592
    165  O         -2.7000  -12.3860   14.1770 O.2   284  LEU284     -0.2718
    166  CB        -2.1890  -14.7630   16.5340 C.3   284  LEU284      0.0284
    167  CG        -2.4810  -16.1920   16.9910 C.3   284  LEU284      0.0019
    168  CD1       -1.3040  -17.0960   16.6540 C.3   284  LEU284      0.0001
    169  CD2       -2.7790  -16.2290   18.4800 C.3   284  LEU284      0.0001
    170  N         -2.1800  -11.7610   16.2740 N.am  285  ALA285     -0.1966
    171  CA        -1.3330  -10.6630   15.8430 C.3   285  ALA285      0.1728
    172  C          0.0630  -11.1920   15.5420 C.2   285  ALA285      0.2616
    173  O          0.5110  -12.1850   16.1200 O.2   285  ALA285     -0.2715
    174  CB        -1.2700   -9.5730   16.9100 C.3   285  ALA285      0.0334
    175  N          0.7510  -10.5270   14.6160 N.am  286  GLY286     -0.1955
    176  CA         2.0920  -10.9440   14.2670 C.3   286  GLY286      0.1869
    177  C          3.1190  -10.5550   15.3140 C.2   286  GLY286      0.2309
    178  O          2.9270   -9.6250   16.0970 O.2   286  GLY286     -0.2863
@<TRIPOS>BOND
     1    51    52    1
     2    51    48    1
     3    48    49    1
     4    48    47    1
     5    49    50    2
     6    49    53   am
     7    53    54    1
     8    54    57    1
     9    54    55    1
    10    36    37    1
    11    36    33    1
    12    55    56    2
    13    20    19    1
    14    37    38    1
    15    42    41    2
    16    41    40    1
    17    33    34    1
    18    33    32    1
    19    40    39    1
    20    40    43    1
    21    19    18    1
    22    38    32    1
    23    34    35    2
    24    32    23   am
    25    18    17    1
    26    43    44    1
    27    23    24    2
    28    23    22    1
    29    11     9    1
    30    17    16    1
    31    15    14    2
    32    45    44    2
    33    44    46   am
    34    16    13    1
    35    22    21    1
    36    22    25    1
    37   113   112   ar
    38   113   111   ar
    39   112   110   ar
    40    14    21   am
    41    14    13    1
    42   127   126   ar
    43     9     8    2
    44     9    10    1
    45   128   126   ar
    46   126   125    1
    47     8     7    1
    48    30    29    1
    49   125   122    1
    50    25    26    1
    51    13    12    1
    52   111   109   ar
    53   110   109   ar
    54    12     3   am
    55    26    27    1
    56     6     7    1
    57     6     5    1
    58    29    31    1
    59    29    28    2
    60    27    28    1
    61   109   108    1
    62   122   123    1
    63   122   121    1
    64     3     2    1
    65     3     4    2
    66   123   124    2
    67     2     5    1
    68     2     1    1
    69   107   106    2
    70   108   105    1
    71   119   118    1
    72   106   105    1
    73   106   114   am
    74   105   104    1
    75    81    80    2
    76   115   114    1
    77   115   118    1
    78   115   116    1
    79   120   118    1
    80    77    76    2
    81   117   116    2
    82    85    84    1
    83    85    86    1
    84    80    84   am
    85    80    79    1
    86    87    86    2
    87   104    99   am
    88    79    78    1
    89    79    82    1
    90    76    78   am
    91    76    75    1
    92    86    88   am
    93   100    99    2
    94   138   136   ar
    95   138   137   ar
    96    75    74    1
    97    99    98    1
    98   136   134   ar
    99    82    83    1
   100   137   135   ar
   101    88    89    1
   102   134   135   ar
   103   134   133    1
   104    65    64    2
   105    91    90    2
   106   133   130    1
   107    90    89    1
   108    90    97   am
   109    89    92    1
   110    98    97    1
   111    98   101    1
   112    74    69   am
   113    64    66   am
   114    64    63    1
   115   132   131    2
   116   101   103    1
   117   101   102    1
   118    63    62    1
   119    70    69    2
   120    69    68    1
   121   130   131    1
   122   130   129    1
   123   144   143    1
   124   131   139   am
   125    61    60    2
   126    92    93    1
   127    93    94    1
   128    62    59    1
   129    60    59    1
   130    60    67   am
   131    58    59    1
   132    68    67    1
   133    68    71    1
   134   139   140    1
   135    96    95    1
   136   140   143    1
   137   140   141    1
   138    94    95    1
   139    73    71    1
   140    71    72    1
   141   145   141   am
   142   145   146    1
   143   141   142    2
   144   149   146    1
   145   149   150    1
   146   146   147    1
   147   165   164    2
   148   176   175    1
   149   176   177    1
   150   175   172   am
   151   147   148    2
   152   147   151   am
   153   162   163    1
   154   177   178    2
   155   164   163    1
   156   164   170   am
   157   172   171    1
   158   172   173    2
   159   171   170    1
   160   171   174    1
   161   151   152    1
   162   163   166    1
   163   157   156    1
   164   157   158    1
   165   156   155    1
   166   166   167    1
   167   160   159    1
   168   168   167    1
   169   167   169    1
   170   152   155    1
   171   152   153    1
   172   158   159    2
   173   159   161    1
   174   153   154    2
