@<TRIPOS>MOLECULE
tmp/6bbqA01.pdb
 135 128 0 0 0
SMALL
GASTEIGER

@<TRIPOS>ATOM
      1  N        -16.9280  -26.3630   -0.5130 N.3   221  LYS221     -0.1245
      2  CA       -17.9900  -25.8910    0.3640 C.3   221  LYS221      0.1561
      3  C        -19.2480  -26.7360    0.2640 C.2   221  LYS221      0.2260
      4  O        -19.6410  -27.1800   -0.8150 O.2   221  LYS221     -0.2867
      5  CB       -18.3290  -24.4240    0.0640 C.3   221  LYS221      0.0271
      6  CG       -18.8940  -24.2210   -1.3340 C.3   221  LYS221      0.0035
      7  CD       -19.4090  -22.7950   -1.5190 C.3   221  LYS221      0.0206
      8  CE       -20.7800  -22.5900   -0.8830 C.3   221  LYS221      0.1093
      9  NZ       -21.8570  -23.2890   -1.6350 N.3   221  LYS221     -0.1314
     10  N        -23.3230  -27.2350    0.5350 N.3   223  GLY223     -0.1210
     11  CA       -24.5490  -26.4950    0.2080 C.3   223  GLY223      0.1956
     12  C        -25.4210  -26.2090    1.4180 C.2   223  GLY223      0.2612
     13  O        -25.1100  -26.6260    2.5350 O.2   223  GLY223     -0.2717
     14  N        -26.5170  -25.4830    1.1940 N.am  224  GLY224     -0.1942
     15  CA       -27.3620  -25.0080    2.2860 C.3   224  GLY224      0.2014
     16  C        -28.4230  -26.0280    2.6350 C.2   224  GLY224      0.2639
     17  O        -28.2300  -26.8410    3.5420 O.2   224  GLY224     -0.2714
     18  N        -29.5420  -25.9750    1.9180 N.am  225  ARG225     -0.1963
     19  CA       -30.6000  -26.9780    2.0550 C.3   225  ARG225      0.1729
     20  C        -30.1340  -28.3050    1.4660 C.2   225  ARG225      0.2616
     21  O        -30.1730  -29.3380    2.1420 O.2   225  ARG225     -0.2715
     22  CB       -31.8840  -26.5250    1.3580 C.3   225  ARG225      0.0348
     23  CG       -32.6190  -25.4400    2.0950 C.3   225  ARG225      0.0492
     24  CD       -33.8180  -24.9780    1.3060 C.3   225  ARG225      0.2205
     25  NE       -34.5450  -23.9240    2.0090 N.pl3 225  ARG225     -0.0865
     26  CZ       -35.3550  -23.0510    1.4180 C.cat 225  ARG225      0.5346
     27  NH1      -35.5410  -23.0890    0.1030 N.pl3 225  ARG225      0.1354
     28  NH2      -35.9770  -22.1310    2.1460 N.pl3 225  ARG225      0.1354
     29  N        -29.7110  -28.2610    0.2060 N.am  226  VAL226     -0.1977
     30  CA       -29.1310  -29.4130   -0.4880 C.3   226  VAL226      0.1596
     31  C        -27.6550  -29.5310   -0.0850 C.2   226  VAL226      0.2287
     32  O        -26.8330  -28.6750   -0.4390 O.2   226  VAL226     -0.2864
     33  CB       -29.2940  -29.2680   -2.0090 C.3   226  VAL226      0.0276
     34  CG1      -28.5580  -30.3840   -2.7640 C.3   226  VAL226      0.0022
     35  CG2      -30.7940  -29.2510   -2.3910 C.3   226  VAL226      0.0022
     36  N        -24.7020  -30.6470   -0.8140 N.3   228  THR228     -0.1218
     37  CA       -23.7020  -31.0970   -1.7780 C.3   228  THR228      0.1862
     38  C        -22.4230  -30.2700   -1.6630 C.2   228  THR228      0.2287
     39  O        -22.4630  -29.0830   -1.3180 O.2   228  THR228     -0.2866
     40  CB       -24.2190  -31.0800   -3.2330 C.3   228  THR228      0.1770
     41  OG1      -24.8100  -29.8070   -3.5270 O.3   228  THR228     -0.2211
     42  CG2      -25.2630  -32.1730   -3.4530 C.3   228  THR228      0.0375
     43  N        -19.1190  -28.5090   -3.3450 N.3   230  LYS230     -0.1245
     44  CA       -18.6970  -27.8840   -4.5930 C.3   230  LYS230      0.1561
     45  C        -17.3220  -27.2540   -4.4100 C.2   230  LYS230      0.2260
     46  O        -17.0090  -26.7380   -3.3320 O.2   230  LYS230     -0.2867
     47  CB       -19.6970  -26.8100   -5.0440 C.3   230  LYS230      0.0271
     48  CG       -21.1310  -27.3240   -5.3150 C.3   230  LYS230      0.0035
     49  CD       -21.1960  -28.2450   -6.5330 C.3   230  LYS230      0.0206
     50  CE       -22.3370  -29.2510   -6.3980 C.3   230  LYS230      0.1093
     51  NZ       -22.4910  -30.0510   -7.6340 N.3   230  LYS230     -0.1314
     52  N        -14.9910  -24.3190   -5.0750 N.3   232  ARG232     -0.1245
     53  CA       -15.1960  -22.9020   -5.3460 C.3   232  ARG232      0.1563
     54  C        -13.9380  -22.0830   -5.0990 C.2   232  ARG232      0.2260
     55  O        -13.1930  -22.3530   -4.1630 O.2   232  ARG232     -0.2867
     56  CB       -16.3530  -22.3510   -4.4980 C.3   232  ARG232      0.0307
     57  CG       -17.7220  -23.0080   -4.7610 C.3   232  ARG232      0.0489
     58  CD       -18.3070  -22.5860   -6.1040 C.3   232  ARG232      0.2205
     59  NE       -19.5820  -23.2450   -6.4300 N.pl3 232  ARG232     -0.0865
     60  CZ       -19.7470  -24.1880   -7.3590 C.cat 232  ARG232      0.5346
     61  NH1      -18.7130  -24.6300   -8.0770 N.pl3 232  ARG232      0.1354
     62  NH2      -20.9560  -24.6960   -7.5830 N.pl3 232  ARG232      0.1354
     63  N        -17.4880  -16.1700   -3.3730 N.3   243  TYR243     -0.1241
     64  CA       -17.0520  -17.4060   -4.0190 C.3   243  TYR243      0.1605
     65  C        -17.5230  -17.5040   -5.4510 C.2   243  TYR243      0.2264
     66  O        -18.5750  -16.9750   -5.8160 O.2   243  TYR243     -0.2867
     67  CB       -17.3930  -18.6600   -3.1980 C.3   243  TYR243      0.0534
     68  CG       -18.8530  -18.8240   -2.7910 C.ar  243  TYR243     -0.0201
     69  CD1      -19.3270  -18.2690   -1.6020 C.ar  243  TYR243     -0.0009
     70  CD2      -19.7380  -19.5720   -3.5710 C.ar  243  TYR243     -0.0009
     71  CE1      -20.6640  -18.4280   -1.2070 C.ar  243  TYR243      0.0417
     72  CE2      -21.0860  -19.7480   -3.1810 C.ar  243  TYR243      0.0417
     73  CZ       -21.5290  -19.1690   -1.9900 C.ar  243  TYR243      0.1957
     74  OH       -22.8340  -19.3170   -1.5780 O.3   243  TYR243     -0.2866
     75  N        -20.5140  -16.2830   -7.7050 N.3   253  ARG253     -0.1245
     76  CA       -21.5930  -17.2380   -7.4630 C.3   253  ARG253      0.1563
     77  C        -22.2890  -16.9050   -6.1490 C.2   253  ARG253      0.2260
     78  O        -23.5140  -16.9510   -6.0720 O.2   253  ARG253     -0.2867
     79  CB       -21.0450  -18.6710   -7.4220 C.3   253  ARG253      0.0307
     80  CG       -22.0680  -19.7590   -7.0300 C.3   253  ARG253      0.0489
     81  CD       -23.2100  -19.8640   -8.0330 C.3   253  ARG253      0.2205
     82  NE       -22.7580  -20.1930   -9.3880 N.pl3 253  ARG253     -0.0865
     83  CZ       -22.6580  -21.4250   -9.8780 C.cat 253  ARG253      0.5346
     84  NH1      -22.9700  -22.4780   -9.1330 N.pl3 253  ARG253      0.1354
     85  NH2      -22.2510  -21.6100  -11.1260 N.pl3 253  ARG253      0.1354
     86  N        -26.7990  -15.9100   -3.4750 N.3   291  LYS291     -0.1231
     87  CA       -26.1540  -16.6970   -4.5100 C.3   291  LYS291      0.1693
     88  C        -26.9130  -16.5170   -5.8040 C.2   291  LYS291      0.2592
     89  O        -28.0660  -16.0990   -5.8080 O.2   291  LYS291     -0.2718
     90  CB       -26.0390  -18.1830   -4.1080 C.3   291  LYS291      0.0285
     91  CG       -27.3390  -18.9590   -4.1420 C.3   291  LYS291      0.0035
     92  CD       -28.1050  -18.8440   -2.8230 C.3   291  LYS291      0.0206
     93  CE       -29.1610  -19.9320   -2.7230 C.3   291  LYS291      0.1093
     94  NZ       -28.5420  -21.3050   -2.8320 N.3   291  LYS291     -0.1314
     95  N        -26.2400  -16.8190   -6.9030 N.am  292  THR292     -0.1953
     96  CA       -26.7670  -16.6000   -8.2230 C.3   292  THR292      0.1897
     97  C        -27.3780  -17.8960   -8.7390 C.2   292  THR292      0.2313
     98  O        -26.7680  -18.9680   -8.6210 O.2   292  THR292     -0.2863
     99  CB       -25.6410  -16.1250   -9.1480 C.3   292  THR292      0.1794
    100  OG1      -25.0430  -14.9470   -8.5800 O.3   292  THR292     -0.2208
    101  CG2      -26.1670  -15.7900  -10.5100 C.3   292  THR292      0.0378
    102  N        -29.5680  -16.8360    0.5160 N.3   301  GLY301     -0.1210
    103  CA       -29.0440  -18.1240    0.9350 C.3   301  GLY301      0.1956
    104  C        -29.9230  -18.7590    2.0020 C.2   301  GLY301      0.2612
    105  O        -30.7230  -18.0820    2.6590 O.2   301  GLY301     -0.2717
    106  N        -29.7510  -20.0630    2.1690 N.am  302  ASN302     -0.1960
    107  CA       -30.5240  -20.8470    3.1310 C.3   302  ASN302      0.1819
    108  C        -29.6830  -21.4350    4.2520 C.2   302  ASN302      0.2621
    109  O        -30.1810  -22.2400    5.0500 O.2   302  ASN302     -0.2715
    110  CB       -31.2600  -21.9770    2.4120 C.3   302  ASN302      0.1195
    111  CG       -32.0830  -21.4910    1.2380 C.2   302  ASN302      0.2630
    112  OD1      -32.9680  -20.6440    1.3890 O.2   302  ASN302     -0.2716
    113  ND2      -31.8040  -22.0280    0.0580 N.am  302  ASN302     -0.0877
    114  N        -28.4120  -21.0520    4.3220 N.am  303  HIS303     -0.1973
    115  CA       -27.4910  -21.6470    5.2920 C.3   303  HIS303      0.1656
    116  C        -27.7210  -21.2250    6.7230 C.2   303  HIS303      0.2291
    117  O        -27.8870  -20.0390    7.0080 O.2   303  HIS303     -0.2864
    118  CB       -26.0500  -21.2680    4.9740 C.3   303  HIS303      0.0771
    119  CG       -25.4770  -21.9730    3.7920 C.ar  303  HIS303      0.0820
    120  ND1      -25.8710  -21.6960    2.5040 N.ar  303  HIS303     -0.2267
    121  CD2      -24.5190  -22.9240    3.7010 C.ar  303  HIS303      0.1154
    122  CE1      -25.1860  -22.4540    1.6690 C.ar  303  HIS303      0.1986
    123  NE2      -24.3540  -23.2020    2.3700 N.ar  303  HIS303     -0.2212
    124  N        -21.9310  -22.4140    7.2850 N.3   306  TYR306     -0.1241
    125  CA       -21.1380  -22.6870    6.0840 C.3   306  TYR306      0.1605
    126  C        -19.9830  -23.5910    6.4750 C.2   306  TYR306      0.2264
    127  O        -19.0630  -23.1580    7.1690 O.2   306  TYR306     -0.2867
    128  CB       -20.5950  -21.3920    5.4490 C.3   306  TYR306      0.0534
    129  CG       -21.6370  -20.6300    4.6840 C.ar  306  TYR306     -0.0201
    130  CD1      -22.4460  -19.6910    5.3280 C.ar  306  TYR306     -0.0009
    131  CD2      -21.8410  -20.8610    3.3280 C.ar  306  TYR306     -0.0009
    132  CE1      -23.4100  -19.0080    4.6440 C.ar  306  TYR306      0.0417
    133  CE2      -22.8040  -20.1650    2.6270 C.ar  306  TYR306      0.0417
    134  CZ       -23.5890  -19.2420    3.3030 C.ar  306  TYR306      0.1957
    135  OH       -24.5560  -18.5600    2.6260 O.3   306  TYR306     -0.2866
@<TRIPOS>BOND
     1    85    83    1
     2   101    99    1
     3    83    82    2
     4    83    84    1
     5    82    81    1
     6    99   100    1
     7    99    96    1
     8    97    98    2
     9    97    96    1
    10    96    95    1
    11    61    60    1
    12    81    80    1
    13    75    76    1
    14    51    50    1
    15    62    60    1
    16    76    79    1
    17    76    77    1
    18    79    80    1
    19    60    59    2
    20    95    88   am
    21    49    50    1
    22    49    48    1
    23    59    58    1
    24    77    78    2
    25    58    57    1
    26    66    65    2
    27    89    88    2
    28    88    87    1
    29    65    64    1
    30    53    54    1
    31    53    52    1
    32    53    56    1
    33    48    47    1
    34    54    55    2
    35    47    44    1
    36    57    56    1
    37    44    45    1
    38    44    43    1
    39    87    90    1
    40    87    86    1
    41    45    46    2
    42    91    90    1
    43    91    92    1
    44    64    63    1
    45    64    67    1
    46    70    72   ar
    47    70    68   ar
    48    41    40    1
    49    42    40    1
    50    40    37    1
    51    67    68    1
    52    72    73   ar
    53    94    93    1
    54    92    93    1
    55    68    69   ar
    56    34    33    1
    57    35    33    1
    58    33    30    1
    59    73    74    1
    60    73    71   ar
    61    37    38    1
    62    37    36    1
    63    38    39    2
    64     9     8    1
    65    69    71   ar
    66     7     6    1
    67     7     8    1
    68     6     5    1
    69     4     3    2
    70     1     2    1
    71    30    31    1
    72    30    29    1
    73    32    31    2
    74   113   111   am
    75     5     2    1
    76    27    26    1
    77    29    20   am
    78    11    10    1
    79    11    12    1
    80     3     2    1
    81   102   103    1
    82   103   104    1
    83    14    12   am
    84    14    15    1
    85   111   112    2
    86   111   110    1
    87    24    25    1
    88    24    23    1
    89    22    19    1
    90    22    23    1
    91    12    13    2
    92    26    25    2
    93    26    28    1
    94    20    19    1
    95    20    21    2
    96   122   123   ar
    97   122   120   ar
    98    18    19    1
    99    18    16   am
   100   104   106   am
   101   104   105    2
   102   106   107    1
   103    15    16    1
   104   123   121   ar
   105   110   107    1
   106   120   119   ar
   107   135   134    1
   108   133   134   ar
   109   133   131   ar
   110    16    17    2
   111   107   108    1
   112   134   132   ar
   113   131   129   ar
   114   121   119   ar
   115   119   118    1
   116   108   114   am
   117   108   109    2
   118   114   115    1
   119   132   130   ar
   120   129   130   ar
   121   129   128    1
   122   118   115    1
   123   115   116    1
   124   128   125    1
   125   125   126    1
   126   125   124    1
   127   126   127    2
   128   116   117    2
