@<TRIPOS>MOLECULE
tmp/6bbqA00.pdb
 163 157 0 0 0
SMALL
GASTEIGER

@<TRIPOS>ATOM
      1  N        -23.2830    6.0530   -0.6340 N.3   368  ASP368     -0.1225
      2  CA       -23.1690    5.7780    0.7800 C.3   368  ASP368      0.1805
      3  C        -23.7680    6.9630    1.5340 C.2   368  ASP368      0.2598
      4  O        -23.6690    8.1000    1.0680 O.2   368  ASP368     -0.2718
      5  CB       -21.7040    5.5730    1.1780 C.3   368  ASP368      0.1424
      6  CG       -20.8050    6.7110    0.7170 C.2   368  ASP368      0.3668
      7  OD1      -20.6360    6.8870   -0.5080 O.co2 368  ASP368     -0.2456
      8  OD2      -20.2870    7.4360    1.5910 O.co2 368  ASP368     -0.2456
      9  N        -24.3940    6.6640    2.6730 N.am  369  ALA369     -0.1966
     10  CA       -24.9910    7.6460    3.5980 C.3   369  ALA369      0.1728
     11  C        -26.2920    8.3000    3.1240 C.2   369  ALA369      0.2616
     12  O        -26.8220    9.1860    3.7990 O.2   369  ALA369     -0.2715
     13  CB       -23.9610    8.7260    4.0250 C.3   369  ALA369      0.0334
     14  N        -26.8030    7.8700    1.9740 N.am  370  ALA370     -0.1963
     15  CA       -28.0390    8.4380    1.4310 C.3   370  ALA370      0.1728
     16  C        -29.2790    8.2000    2.3120 C.2   370  ALA370      0.2617
     17  O        -30.1590    9.0720    2.3800 O.2   370  ALA370     -0.2715
     18  CB       -28.2700    7.9710    0.0140 C.3   370  ALA370      0.0334
     19  N        -29.3320    7.0480    2.9950 N.am  371  GLY371     -0.1940
     20  CA       -30.4620    6.6910    3.8640 C.3   371  GLY371      0.2014
     21  C        -31.1130    5.3460    3.5510 C.2   371  GLY371      0.2639
     22  O        -32.1500    5.0110    4.1100 O.2   371  GLY371     -0.2714
     23  N        -30.4910    4.5670    2.6700 N.am  372  LYS372     -0.1963
     24  CA       -31.0870    3.3110    2.1640 C.3   372  LYS372      0.1728
     25  C        -31.4750    2.3240    3.2550 C.2   372  LYS372      0.2617
     26  O        -32.6210    1.8730    3.3080 O.2   372  LYS372     -0.2715
     27  CB       -30.1500    2.6340    1.1620 C.3   372  LYS372      0.0311
     28  CG       -29.8810    3.4450   -0.0760 C.3   372  LYS372      0.0038
     29  CD       -28.9660    2.6920   -1.0490 C.3   372  LYS372      0.0206
     30  CE       -27.5950    2.3560   -0.4420 C.3   372  LYS372      0.1093
     31  NZ       -26.7530    3.5570   -0.1070 N.3   372  LYS372     -0.1314
     32  N        -30.5330    2.0070    4.1400 N.am  373  THR373     -0.1937
     33  CA       -30.7750    1.0350    5.2000 C.3   373  THR373      0.2028
     34  C        -31.7900    1.5590    6.2260 C.2   373  THR373      0.2642
     35  O        -32.6110    0.8030    6.7460 O.2   373  THR373     -0.2714
     36  CB       -29.4600    0.6250    5.8760 C.3   373  THR373      0.1808
     37  OG1      -28.5380    0.2070    4.8530 O.3   373  THR373     -0.2208
     38  CG2      -29.6810   -0.5410    6.8400 C.3   373  THR373      0.0379
     39  N        -31.7470    2.8600    6.4920 N.am  374  THR374     -0.1950
     40  CA       -32.6980    3.4720    7.4140 C.3   374  THR374      0.1897
     41  C        -34.1320    3.3000    6.8930 C.2   374  THR374      0.2313
     42  O        -35.0270    2.9640    7.6660 O.2   374  THR374     -0.2863
     43  CB       -32.3720    4.9710    7.6330 C.3   374  THR374      0.1794
     44  OG1      -31.0100    5.1060    8.0850 O.3   374  THR374     -0.2208
     45  CG2      -33.3190    5.5780    8.6750 C.3   374  THR374      0.0378
     46  N        -33.8720    3.0730   13.0980 N.3   385  VAL385     -0.1231
     47  CA       -32.7410    2.4890   13.8040 C.3   385  VAL385      0.1692
     48  C        -31.4920    3.2990   13.5050 C.2   385  VAL385      0.2593
     49  O        -31.4510    4.0200   12.5130 O.2   385  VAL385     -0.2718
     50  CB       -32.5300    1.0020   13.4170 C.3   385  VAL385      0.0266
     51  CG1      -33.7250    0.1500   13.8620 C.3   385  VAL385      0.0020
     52  CG2      -32.2910    0.8520   11.9140 C.3   385  VAL385      0.0020
     53  N        -30.4970    3.1790   14.3780 N.am  386  THR386     -0.1939
     54  CA       -29.1850    3.7880   14.1790 C.3   386  THR386      0.2028
     55  C        -28.3390    2.8180   13.3590 C.2   386  THR386      0.2643
     56  O        -27.9800    1.7350   13.8310 O.2   386  THR386     -0.2714
     57  CB       -28.4980    4.0920   15.5310 C.3   386  THR386      0.1808
     58  OG1      -29.3240    4.9900   16.2840 O.3   386  THR386     -0.2208
     59  CG2      -27.1230    4.7390   15.3300 C.3   386  THR386      0.0379
     60  N        -28.0260    3.2180   12.1330 N.am  387  THR387     -0.1936
     61  CA       -27.3710    2.3280   11.1810 C.3   387  THR387      0.2028
     62  C        -25.8550    2.4210   11.2580 C.2   387  THR387      0.2642
     63  O        -25.3060    3.3530   11.8590 O.2   387  THR387     -0.2714
     64  CB       -27.7950    2.6350    9.7360 C.3   387  THR387      0.1808
     65  OG1      -27.4660    3.9950    9.4130 O.3   387  THR387     -0.2208
     66  CG2      -29.2940    2.4000    9.5460 C.3   387  THR387      0.0379
     67  N        -25.1950    1.4340   10.6570 N.am  388  ILE388     -0.1963
     68  CA       -23.7720    1.5140   10.3170 C.3   388  ILE388      0.1712
     69  C        -23.6560    1.2760    8.8130 C.2   388  ILE388      0.2458
     70  O        -24.5850    0.7310    8.2090 O.2   388  ILE388     -0.2730
     71  CB       -22.9160    0.5120   11.1200 C.3   388  ILE388      0.0289
     72  CG1      -23.2980   -0.9310   10.7770 C.3   388  ILE388      0.0022
     73  CG2      -23.0380    0.7960   12.6200 C.3   388  ILE388      0.0023
     74  CD1      -22.3580   -1.9620   11.3480 C.3   388  ILE388      0.0001
     75  N        -22.5410    1.7040    8.1920 N.am  389  PRO389     -0.2716
     76  CA       -22.4090    1.5010    6.7540 C.3   389  PRO389      0.1536
     77  C        -22.5280    0.0240    6.3670 C.2   389  PRO389      0.2599
     78  O        -22.0740   -0.8570    7.1070 O.2   389  PRO389     -0.2715
     79  CB       -21.0140    2.0510    6.4580 C.3   389  PRO389      0.0310
     80  CG       -20.8320    3.1090    7.5060 C.3   389  PRO389      0.0237
     81  CD       -21.4320    2.5120    8.7310 C.3   389  PRO389      0.0939
     82  N        -23.1870   -0.2170    5.2430 N.am  390  THR390     -0.1951
     83  CA       -23.4830   -1.5660    4.7670 C.3   390  THR390      0.1897
     84  C        -22.3340   -2.0690    3.8960 C.2   390  THR390      0.2313
     85  O        -22.0630   -1.5000    2.8460 O.2   390  THR390     -0.2863
     86  CB       -24.7980   -1.5740    3.9530 C.3   390  THR390      0.1794
     87  OG1      -25.8390   -0.9830    4.7450 O.3   390  THR390     -0.2208
     88  CG2      -25.2050   -2.9920    3.5760 C.3   390  THR390      0.0378
     89  N        -31.1790   -3.8800   -0.6500 N.3   409  ASP409     -0.1239
     90  CA       -30.4730   -2.6530   -0.2990 C.3   409  ASP409      0.1674
     91  C        -28.9660   -2.9200   -0.4000 C.2   409  ASP409      0.2266
     92  O        -28.3900   -3.5630    0.4600 O.2   409  ASP409     -0.2867
     93  CB       -30.8880   -2.2090    1.1260 C.3   409  ASP409      0.1410
     94  CG       -29.8810   -1.2830    1.7970 C.2   409  ASP409      0.3668
     95  OD1      -29.1590   -0.5380    1.1030 O.co2 409  ASP409     -0.2456
     96  OD2      -29.8240   -1.3010    3.0380 O.co2 409  ASP409     -0.2456
     97  N        -24.9390   -1.9120   -0.5370 N.3   411  GLY411     -0.1210
     98  CA       -24.0080   -0.9150   -0.0060 C.3   411  GLY411      0.1956
     99  C        -23.5510    0.0760   -1.0610 C.2   411  GLY411      0.2612
    100  O        -23.2710   -0.2940   -2.2080 O.2   411  GLY411     -0.2717
    101  N        -23.4700    1.3450   -0.6700 N.am  412  GLY412     -0.1942
    102  CA       -23.1710    2.3980   -1.6290 C.3   412  GLY412      0.2014
    103  C        -21.7520    2.9380   -1.5830 C.2   412  GLY412      0.2638
    104  O        -21.4380    3.8830   -2.3110 O.2   412  GLY412     -0.2714
    105  N        -20.9000    2.3660   -0.7310 N.am  413  LEU413     -0.1977
    106  CA       -19.4980    2.7960   -0.6850 C.3   413  LEU413      0.1596
    107  C        -18.8070    2.6240   -2.0450 C.2   413  LEU413      0.2287
    108  O        -19.0820    1.6760   -2.7810 O.2   413  LEU413     -0.2864
    109  CB       -18.7250    2.0710    0.4160 C.3   413  LEU413      0.0297
    110  CG       -17.5310    2.8320    1.0090 C.3   413  LEU413      0.0022
    111  CD1      -18.0000    3.9980    1.8920 C.3   413  LEU413      0.0001
    112  CD2      -16.6220    1.8900    1.7840 C.3   413  LEU413      0.0001
    113  N        -34.3160   12.1890   -0.0220 N.3   468  ASN468     -0.1225
    114  CA       -34.2550   11.9490    1.4110 C.3   468  ASN468      0.1785
    115  C        -33.5980   13.0740    2.2070 C.2   468  ASN468      0.2597
    116  O        -32.9030   13.9180    1.6460 O.2   468  ASN468     -0.2718
    117  CB       -33.5520   10.6030    1.6820 C.3   468  ASN468      0.1169
    118  CG       -33.8270   10.0730    3.0730 C.2   468  ASN468      0.2627
    119  OD1      -34.9670   10.1050    3.5410 O.2   468  ASN468     -0.2716
    120  ND2      -32.7810    9.5920    3.7520 N.am  468  ASN468     -0.0877
    121  N        -33.8240   13.0630    3.5180 N.am  469  LYS469     -0.1980
    122  CA       -33.2900   14.0530    4.4670 C.3   469  LYS469      0.1596
    123  C        -33.9120   15.4500    4.3070 C.2   469  LYS469      0.2287
    124  O        -33.2370   16.4640    4.5000 O.2   469  LYS469     -0.2864
    125  CB       -31.7450   14.1170    4.4520 C.3   469  LYS469      0.0298
    126  CG       -31.0690   12.7450    4.4300 C.3   469  LYS469      0.0038
    127  CD       -29.6700   12.7720    5.0190 C.3   469  LYS469      0.0206
    128  CE       -28.9810   11.4070    4.8460 C.3   469  LYS469      0.1093
    129  NZ       -27.5330   11.4550    5.2800 N.3   469  LYS469     -0.1314
    130  N        -35.7650   16.8850    6.2460 N.3   471  ASP471     -0.1225
    131  CA       -35.7450   17.5190    7.5610 C.3   471  ASP471      0.1805
    132  C        -34.5700   18.4860    7.7430 C.2   471  ASP471      0.2597
    133  O        -34.6280   19.3900    8.5840 O.2   471  ASP471     -0.2718
    134  CB       -35.7130   16.4600    8.6650 C.3   471  ASP471      0.1424
    135  CG       -34.4700   15.5800    8.5950 C.2   471  ASP471      0.3668
    136  OD1      -34.2760   14.9130    7.5560 O.co2 471  ASP471     -0.2456
    137  OD2      -33.6940   15.5580    9.5770 O.co2 471  ASP471     -0.2456
    138  N        -33.5070   18.2910    6.9650 N.am  472  LEU472     -0.1979
    139  CA       -32.3000   19.1080    7.0930 C.3   472  LEU472      0.1596
    140  C        -32.4410   20.4990    6.4640 C.2   472  LEU472      0.2287
    141  O        -33.1020   20.6590    5.4360 O.2   472  LEU472     -0.2864
    142  CB       -31.0770   18.3630    6.5270 C.3   472  LEU472      0.0297
    143  CG       -30.6940   17.0730    7.2630 C.3   472  LEU472      0.0022
    144  CD1      -29.4130   16.4770    6.6830 C.3   472  LEU472      0.0001
    145  CD2      -30.5360   17.3040    8.7630 C.3   472  LEU472      0.0001
    146  N        -38.1770   11.8540    4.6860 N.3   501  CYS501     -0.1221
    147  CA       -37.3170   11.8790    5.8410 C.3   501  CYS501      0.1808
    148  C        -37.3720   10.4670    6.4020 C.2   501  CYS501      0.2601
    149  O        -38.3690   10.0660    7.0170 O.2   501  CYS501     -0.2717
    150  CB       -37.8000   12.9040    6.8690 C.3   501  CYS501      0.0970
    151  SG       -36.9540   12.8080    8.4420 S.3   501  CYS501     -0.0800
    152  N        -36.3150    9.6970    6.1500 N.am  502  ALA502     -0.1965
    153  CA       -36.2940    8.2830    6.5460 C.3   502  ALA502      0.1728
    154  C        -36.3730    8.0880    8.0530 C.2   502  ALA502      0.2616
    155  O        -36.8860    7.0730    8.5250 O.2   502  ALA502     -0.2715
    156  CB       -35.0380    7.5990    5.9920 C.3   502  ALA502      0.0334
    157  N        -35.8660    9.0510    8.8120 N.am  503  THR503     -0.1951
    158  CA       -35.8120    8.8800   10.2570 C.3   503  THR503      0.1897
    159  C        -37.1670    9.1030   10.9400 C.2   503  THR503      0.2313
    160  O        -37.4310    8.5240   11.9880 O.2   503  THR503     -0.2863
    161  CB       -34.7000    9.7240   10.9080 C.3   503  THR503      0.1794
    162  OG1      -34.8120   11.0780   10.4670 O.3   503  THR503     -0.2208
    163  CG2      -33.3030    9.1860   10.5100 C.3   503  THR503      0.0378
@<TRIPOS>BOND
     1   108   107    2
     2   104   103    2
     3   100    99    2
     4   107   106    1
     5   102   103    1
     6   102   101    1
     7   103   105   am
     8    99   101   am
     9    99    98    1
    10    29    30    1
    11    29    28    1
    12   105   106    1
    13   106   109    1
    14    89    90    1
    15     1     2    1
    16    97    98    1
    17     7     6   ar
    18    30    31    1
    19    91    90    1
    20    91    92    2
    21    90    93    1
    22    28    27    1
    23   113   114    1
    24    18    15    1
    25   109   110    1
    26     6     5    1
    27     6     8   ar
    28     2     5    1
    29     2     3    1
    30   110   112    1
    31   110   111    1
    32     4     3    2
    33    95    94   ar
    34    93    94    1
    35    27    24    1
    36   114   117    1
    37   114   115    1
    38    15    14    1
    39    15    16    1
    40     3     9   am
    41   116   115    2
    42   117   118    1
    43    94    96   ar
    44    14    11   am
    45    24    23    1
    46    24    25    1
    47   115   121   am
    48    16    17    2
    49    16    19   am
    50    23    21   am
    51     9    10    1
    52    85    84    2
    53    19    20    1
    54   118   119    2
    55   118   120   am
    56    11    10    1
    57    11    12    2
    58    25    26    2
    59    25    32   am
    60   121   122    1
    61    21    20    1
    62    21    22    2
    63    88    86    1
    64    10    13    1
    65    84    83    1
    66    86    87    1
    67    86    83    1
    68    32    33    1
    69   123   122    1
    70   123   124    2
    71   126   125    1
    72   126   127    1
    73   125   122    1
    74   146   147    1
    75    83    82    1
    76   128   127    1
    77   128   129    1
    78    37    36    1
    79    33    36    1
    80    33    34    1
    81    82    77   am
    82   141   140    2
    83   147   148    1
    84   147   150    1
    85    36    38    1
    86   156   153    1
    87   152   148   am
    88   152   153    1
    89    34    39   am
    90    34    35    2
    91   130   131    1
    92    77    76    1
    93    77    78    2
    94   148   149    2
    95    79    76    1
    96    79    80    1
    97   140   139    1
    98    39    40    1
    99   142   139    1
   100   142   143    1
   101   153   154    1
   102   144   143    1
   103    76    75    1
   104   150   151    1
   105    41    40    1
   106    41    42    2
   107   138   139    1
   108   138   132   am
   109   143   145    1
   110    40    43    1
   111    80    81    1
   112   136   135   ar
   113   131   132    1
   114   131   134    1
   115    43    44    1
   116    43    45    1
   117   132   133    2
   118   154   155    2
   119   154   157   am
   120    75    81    1
   121    75    69   am
   122    70    69    2
   123   135   134    1
   124   135   137   ar
   125   157   158    1
   126    69    68    1
   127    65    64    1
   128    66    64    1
   129    64    61    1
   130   158   161    1
   131   158   159    1
   132    68    67    1
   133    68    71    1
   134   162   161    1
   135   163   161    1
   136    67    62   am
   137    72    71    1
   138    72    74    1
   139   159   160    2
   140    71    73    1
   141    61    62    1
   142    61    60    1
   143    62    63    2
   144    52    50    1
   145    60    55   am
   146    49    48    2
   147    46    47    1
   148    55    56    2
   149    55    54    1
   150    50    47    1
   151    50    51    1
   152    48    47    1
   153    48    53   am
   154    54    53    1
   155    54    57    1
   156    59    57    1
   157    57    58    1
