@<TRIPOS>MOLECULE
tmp/6bbuA00.pdb
 159 147 0 0 0
SMALL
GASTEIGER

@<TRIPOS>ATOM
      1  N         11.1600   21.2840  -17.1900 N.3    15  LEU15      -0.1231
      2  CA        12.0280   20.1260  -16.9500 C.3    15  LEU15       0.1693
      3  C         11.7240   19.0350  -17.9630 C.2    15  LEU15       0.2593
      4  O         12.5760   18.1940  -18.2410 O.2    15  LEU15      -0.2718
      5  CB        11.8660   19.5880  -15.5030 C.3    15  LEU15       0.0284
      6  CG        12.2930   20.5420  -14.3640 C.3    15  LEU15       0.0019
      7  CD1       11.9710   19.9380  -13.0050 C.3    15  LEU15       0.0001
      8  CD2       13.7840   20.9040  -14.4470 C.3    15  LEU15       0.0001
      9  N         10.5160   19.0670  -18.5040 N.am   16  GLY16      -0.1942
     10  CA        10.0620   18.0920  -19.4770 C.3    16  GLY16       0.2014
     11  C          8.6030   18.2630  -19.7960 C.2    16  GLY16       0.2642
     12  O          7.8470   18.8390  -19.0110 O.2    16  GLY16      -0.2714
     13  N          8.2010   17.7570  -20.9530 N.am   17  GLU17      -0.1917
     14  CA         6.8380   17.8750  -21.4390 C.3    17  GLU17       0.1949
     15  C          6.4050   16.6110  -22.1460 C.2    17  GLU17       0.2659
     16  O          7.1780   16.0040  -22.8910 O.2    17  GLU17      -0.2711
     17  CB         6.7190   19.0400  -22.4440 C.2    17  GLU17       0.0111
     18  CG         6.7440   20.4400  -21.8490 C.2    17  GLU17       0.0838
     19  CD         6.4030   21.5740  -22.8040 C.2    17  GLU17       0.3877
     20  OE1        6.2570   22.7220  -22.3230 O.co2  17  GLU17      -0.2406
     21  OE2        6.2630   21.3200  -24.0230 O.co2  17  GLU17      -0.2406
     22  N          5.1610   16.2450  -21.9080 N.am   18  GLY18      -0.1952
     23  CA         4.4900   15.1630  -22.5970 C.3    18  GLY18       0.1869
     24  C          3.5160   15.8010  -23.5690 C.2    18  GLY18       0.2309
     25  O          3.6670   16.9730  -23.9290 O.2    18  GLY18      -0.2863
     26  N          0.7800   16.6920  -20.3470 N.3    21  GLY21      -0.1225
     27  CA         1.4020   17.0980  -19.0930 C.3    21  GLY21       0.1811
     28  C          2.7420   17.7710  -19.2580 C.2    21  GLY21       0.2280
     29  O          3.3870   17.6410  -20.2990 O.2    21  GLY21      -0.2866
     30  N          6.3260   19.1690  -16.6850 N.3    23  VAL23      -0.1245
     31  CA         6.9990   19.2080  -15.3980 C.3    23  VAL23       0.1561
     32  C          7.8700   20.4680  -15.4280 C.2    23  VAL23       0.2260
     33  O          8.6760   20.6240  -16.3380 O.2    23  VAL23      -0.2867
     34  CB         7.8220   17.9280  -15.0660 C.3    23  VAL23       0.0252
     35  CG1        8.5000   18.0510  -13.6970 C.3    23  VAL23       0.0019
     36  CG2        6.9590   16.6550  -15.1360 C.3    23  VAL23       0.0019
     37  N          9.9010   20.1560   -8.2090 N.3    40  ALA40      -0.1245
     38  CA         9.4460   19.7960   -9.5550 C.3    40  ALA40       0.1562
     39  C          7.9350   19.7540   -9.4640 C.2    40  ALA40       0.2260
     40  O          7.3810   19.2160   -8.4990 O.2    40  ALA40      -0.2867
     41  CB        10.0110   18.4550   -9.9710 C.3    40  ALA40       0.0290
     42  N          4.3850   19.0530  -11.4860 N.3    42  LYS42      -0.1245
     43  CA         3.7490   18.4570  -12.6580 C.3    42  LYS42       0.1561
     44  C          2.3060   18.9210  -12.7480 C.2    42  LYS42       0.2260
     45  O          1.5390   18.7650  -11.8000 O.2    42  LYS42      -0.2867
     46  CB         3.8630   16.9290  -12.6440 C.3    42  LYS42       0.0271
     47  CG         3.1460   16.2710  -13.8300 C.3    42  LYS42       0.0035
     48  CD         3.5050   14.8050  -13.9160 C.3    42  LYS42       0.0206
     49  CE         3.1520   14.2660  -15.2730 C.3    42  LYS42       0.1093
     50  NZ         3.5700   12.8530  -15.4160 N.3    42  LYS42      -0.1314
     51  N         11.3580    8.6480   -7.1370 N.3    68  VAL68      -0.1245
     52  CA        11.3090   10.0880   -6.7970 C.3    68  VAL68       0.1561
     53  C         10.2780   10.3290   -5.6460 C.2    68  VAL68       0.2260
     54  O          9.1890    9.7370   -5.6370 O.2    68  VAL68      -0.2867
     55  CB        11.0310   10.9930   -8.0280 C.3    68  VAL68       0.0252
     56  CG1        9.5540   10.9300   -8.4470 C.3    68  VAL68       0.0019
     57  CG2       11.4520   12.4420   -7.7440 C.3    68  VAL68       0.0019
     58  N          6.8980   17.2850   -6.4180 N.3    83  MET83      -0.1230
     59  CA         7.9170   16.2610   -6.1880 C.3    83  MET83       0.1702
     60  C          9.2320   16.9020   -5.8340 C.2    83  MET83       0.2592
     61  O          9.4560   18.0870   -6.1290 O.2    83  MET83      -0.2718
     62  CB         8.1220   15.4110   -7.4690 C.3    83  MET83       0.0401
     63  CG         6.9130   14.5760   -7.8660 C.3    83  MET83       0.0596
     64  SD         7.0760   13.9140   -9.5490 S.3    83  MET83      -0.1393
     65  CE         6.8370   15.4210  -10.5040 C.3    83  MET83       0.0692
     66  N         10.1580   16.1000   -5.2730 N.am   84  GLU84      -0.1966
     67  CA        11.4880   16.6380   -5.0170 C.3    84  GLU84       0.1733
     68  C         12.1320   16.9000   -6.3950 C.2    84  GLU84       0.2616
     69  O         11.7990   16.2290   -7.3950 O.2    84  GLU84      -0.2715
     70  CB        12.3480   15.6520   -4.1840 C.3    84  GLU84       0.0429
     71  CG        12.5790   14.3260   -4.9010 C.3    84  GLU84       0.1163
     72  CD        13.5220   13.3300   -4.2430 C.2    84  GLU84       0.3649
     73  OE1       14.3270   13.7400   -3.3760 O.co2  84  GLU84      -0.2457
     74  OE2       13.4370   12.1290   -4.5820 O.co2  84  GLU84      -0.2457
     75  N         13.0120   17.8890   -6.4430 N.am   85  PHE85      -0.1960
     76  CA        13.7210   18.2260   -7.6650 C.3    85  PHE85       0.1771
     77  C         15.1170   17.6190   -7.6100 C.2    85  PHE85       0.2619
     78  O         15.8070   17.7910   -6.6010 O.2    85  PHE85      -0.2715
     79  CB        13.8080   19.7620   -7.8060 C.3    85  PHE85       0.0574
     80  CG        14.8160   20.2760   -8.8090 C.ar   85  PHE85      -0.0200
     81  CD1       14.6720   20.0040  -10.1680 C.ar   85  PHE85      -0.0042
     82  CD2       15.8370   21.1360   -8.4120 C.ar   85  PHE85      -0.0042
     83  CE1       15.5810   20.5130  -11.0980 C.ar   85  PHE85      -0.0003
     84  CE2       16.7320   21.6590   -9.3420 C.ar   85  PHE85      -0.0003
     85  CZ        16.6010   21.3510  -10.6790 C.ar   85  PHE85      -0.0000
     86  N         15.5630   16.9690   -8.7070 N.am   86  LEU86      -0.1977
     87  CA        16.9190   16.3780   -8.7440 C.3    86  LEU86       0.1596
     88  C         17.7210   17.1910   -9.7630 C.2    86  LEU86       0.2287
     89  O         17.4780   17.0380  -10.9640 O.2    86  LEU86      -0.2864
     90  CB        16.8910   14.8610   -9.0890 C.3    86  LEU86       0.0297
     91  CG        16.0380   13.8980   -8.1990 C.3    86  LEU86       0.0022
     92  CD1       16.6270   12.5380   -8.1480 C.3    86  LEU86       0.0001
     93  CD2       15.8840   14.3500   -6.7790 C.3    86  LEU86       0.0001
     94  N         19.1430   16.1380  -13.2370 N.3    89  GLY89      -0.1210
     95  CA        18.1850   15.7980  -14.2790 C.3    89  GLY89       0.1956
     96  C         18.1410   14.3250  -14.6480 C.2    89  GLY89       0.2612
     97  O         18.6100   13.4730  -13.8930 O.2    89  GLY89      -0.2717
     98  N         17.5450   14.0080  -15.8070 N.am   90  SER90      -0.1952
     99  CA        17.4270   12.6160  -16.2400 C.3    90  SER90       0.1924
    100  C         18.7700   12.0970  -16.7520 C.2    90  SER90       0.2314
    101  O         19.6670   12.8930  -17.0560 O.2    90  SER90      -0.2863
    102  CB        16.3660   12.4810  -17.3340 C.3    90  SER90       0.2116
    103  OG        16.9070   12.7630  -18.6160 O.3    90  SER90      -0.2180
    104  N         19.9460   13.6480  -19.9830 N.3    93  GLU93      -0.1245
    105  CA        20.6230   14.9420  -19.8460 C.3    93  GLU93       0.1567
    106  C         22.0220   14.7140  -19.2440 C.2    93  GLU93       0.2260
    107  O         23.0020   15.2670  -19.7310 O.2    93  GLU93      -0.2867
    108  CB        19.8050   15.8710  -18.9020 C.3    93  GLU93       0.0388
    109  CG        18.4390   16.3300  -19.4170 C.3    93  GLU93       0.1160
    110  CD        17.1860   15.9160  -18.6500 C.2    93  GLU93       0.3649
    111  OE1       17.0380   16.2700  -17.4530 O.co2  93  GLU93      -0.2457
    112  OE2       16.3000   15.3060  -19.2940 O.co2  93  GLU93      -0.2457
    113  N          6.1530    3.3100  -19.2030 N.3   130  ASP130     -0.1239
    114  CA         6.8890    4.4360  -19.7910 C.3   130  ASP130      0.1674
    115  C          8.3290    4.4250  -19.2980 C.2   130  ASP130      0.2266
    116  O          8.9170    5.4840  -19.0710 O.2   130  ASP130     -0.2867
    117  CB         6.1680    5.7870  -19.4670 C.3   130  ASP130      0.1410
    118  CG         6.6370    6.9630  -20.3160 C.2   130  ASP130      0.3668
    119  OD1        7.1650    6.7240  -21.4050 O.co2 130  ASP130     -0.2456
    120  OD2        6.5100    8.1270  -19.8580 O.co2 130  ASP130     -0.2456
    121  N         14.7820    8.9830  -20.1310 N.3   134  ARG134     -0.1231
    122  CA        14.2650   10.3440  -19.8990 C.3   134  ARG134      0.1694
    123  C         13.4890   10.4280  -18.5690 C.2   134  ARG134      0.2592
    124  O         13.2990   11.5170  -18.0300 O.2   134  ARG134     -0.2718
    125  CB        13.3750   10.7890  -21.0740 C.3   134  ARG134      0.0321
    126  CG        12.2070    9.8380  -21.3630 C.3   134  ARG134      0.0489
    127  CD        11.3500   10.3240  -22.5170 C.3   134  ARG134      0.2205
    128  NE        10.1780    9.4650  -22.6810 N.pl3 134  ARG134     -0.0865
    129  CZ        10.1210    8.4040  -23.4820 C.cat 134  ARG134      0.5346
    130  NH1       11.1650    8.0720  -24.2350 N.pl3 134  ARG134      0.1354
    131  NH2        9.0160    7.6780  -23.5490 N.pl3 134  ARG134      0.1354
    132  N         13.0200    9.2680  -18.0720 N.am  135  ASN135     -0.1974
    133  CA        12.2630    9.1080  -16.8310 C.3   135  ASN135      0.1688
    134  C         13.0940    8.5800  -15.6590 C.2   135  ASN135      0.2292
    135  O         12.5400    8.3460  -14.5840 O.2   135  ASN135     -0.2864
    136  CB        11.0250    8.2270  -17.0820 C.3   135  ASN135      0.1181
    137  CG        10.0070    8.9510  -17.9180 C.2   135  ASN135      0.2629
    138  OD1       10.0020   10.1850  -18.0090 O.2   135  ASN135     -0.2716
    139  ND2        9.1290    8.2140  -18.5510 N.am  135  ASN135     -0.0877
    140  N         15.9560    9.5880  -13.1370 N.3   137  LEU137     -0.1245
    141  CA        16.6110   10.7710  -12.5940 C.3   137  LEU137      0.1561
    142  C         17.8820   10.4320  -11.8590 C.2   137  LEU137      0.2260
    143  O         17.9140    9.4560  -11.1430 O.2   137  LEU137     -0.2867
    144  CB        15.6670   11.5210  -11.6170 C.3   137  LEU137      0.0270
    145  CG        14.2900   11.8870  -12.1460 C.3   137  LEU137      0.0019
    146  CD1       13.4680   12.5500  -11.0690 C.3   137  LEU137      0.0001
    147  CD2       14.3890   12.7590  -13.3620 C.3   137  LEU137      0.0001
    148  N         11.5210    8.6680  -12.0050 N.3   147  GLY147     -0.1210
    149  CA        10.9850   10.0030  -11.7800 C.3   147  GLY147      0.1956
    150  C          9.7420   10.5040  -12.4680 C.2   147  GLY147      0.2611
    151  O          9.4670   11.7000  -12.3810 O.2   147  GLY147     -0.2717
    152  N          8.9610    9.6170  -13.1090 N.am  148  ASP148     -0.1973
    153  CA         7.6940   10.0200  -13.7280 C.3   148  ASP148      0.1709
    154  C          6.7900    8.8110  -13.7420 C.2   148  ASP148      0.2293
    155  O          7.3000    7.7180  -13.9310 O.2   148  ASP148     -0.2864
    156  CB         7.8760   10.5870  -15.1490 C.3   148  ASP148      0.1436
    157  CG         6.5880   11.2470  -15.6110 C.2   148  ASP148      0.3671
    158  OD1        6.3280   12.4060  -15.1910 O.co2 148  ASP148     -0.2456
    159  OD2        5.7580   10.5500  -16.2340 O.co2 148  ASP148     -0.2456
@<TRIPOS>BOND
     1   130   129    1
     2    21    19   ar
     3    25    24    2
     4    24    23    1
     5   131   129    1
     6   129   128    2
     7    16    15    2
     8    19    20   ar
     9    19    18    1
    10   128   127    1
    11    23    22    1
    12   127   126    1
    13    17    18    2
    14    17    14    1
    15    15    22   am
    16    15    14    1
    17    14    13    1
    18   119   118   ar
    19   126   125    1
    20   125   122    1
    21    13    11   am
    22    26    27    1
    23   118   120   ar
    24   118   117    1
    25    29    28    2
    26   121   122    1
    27   104   105    1
    28   122   123    1
    29   105   106    1
    30   105   108    1
    31    11    10    1
    32    11    12    2
    33   114   117    1
    34   114   115    1
    35   114   113    1
    36   107   106    2
    37    10     9    1
    38   109   108    1
    39   109   110    1
    40   115   116    2
    41   112   110   ar
    42    28    27    1
    43   110   111   ar
    44   103   102    1
    45   123   132   am
    46   123   124    2
    47   139   137   am
    48     9     3   am
    49     4     3    2
    50   132   133    1
    51   138   137    2
    52     3     2    1
    53   137   136    1
    54   102    99    1
    55     1     2    1
    56   136   133    1
    57   101   100    2
    58     2     5    1
    59   133   134    1
    60   100    99    1
    61    30    31    1
    62    33    32    2
    63    99    98    1
    64   159   157   ar
    65    98    96   am
    66   134   135    2
    67   157   158   ar
    68   157   156    1
    69     5     6    1
    70    32    31    1
    71    50    49    1
    72    31    34    1
    73    49    48    1
    74   156   153    1
    75    36    34    1
    76    34    35    1
    77    96    95    1
    78    96    97    2
    79     8     6    1
    80     6     7    1
    81    95    94    1
    82   155   154    2
    83    48    47    1
    84    47    46    1
    85   154   153    1
    86   153   152    1
    87   147   145    1
    88   140   141    1
    89   152   150   am
    90    44    43    1
    91    44    45    2
    92    43    46    1
    93    43    42    1
    94   141   142    1
    95   141   144    1
    96   150   151    2
    97   150   149    1
    98   145   144    1
    99   145   146    1
   100   148   149    1
   101   142   143    2
   102    83    85   ar
   103    83    81   ar
   104    89    88    2
   105    85    84   ar
   106    65    64    1
   107    81    80   ar
   108    41    38    1
   109    88    87    1
   110    38    39    1
   111    38    37    1
   112    64    63    1
   113    39    40    2
   114    84    82   ar
   115    90    87    1
   116    90    91    1
   117    80    82   ar
   118    80    79    1
   119    87    86    1
   120    86    77   am
   121    56    55    1
   122    91    92    1
   123    91    93    1
   124    55    57    1
   125    55    52    1
   126    63    62    1
   127    79    76    1
   128    76    77    1
   129    76    75    1
   130    77    78    2
   131    62    59    1
   132    69    68    2
   133    51    52    1
   134    52    53    1
   135    75    68   am
   136    58    59    1
   137    68    67    1
   138    59    60    1
   139    61    60    2
   140    60    66   am
   141    53    54    2
   142    66    67    1
   143    67    70    1
   144    71    72    1
   145    71    70    1
   146    74    72   ar
   147    72    73   ar
