@<TRIPOS>MOLECULE
tmp/6bbvA00.pdb
 157 147 0 0 0
SMALL
GASTEIGER

@<TRIPOS>ATOM
      1  N        -10.8690    3.7620   11.9500 N.3    13  LEU13      -0.1231
      2  CA        -9.7480    4.1910   11.0910 C.3    13  LEU13       0.1693
      3  C         -9.9100    3.8410    9.6310 C.2    13  LEU13       0.2593
      4  O         -9.3720    4.5440    8.7720 O.2    13  LEU13      -0.2718
      5  CB        -8.3990    3.6570   11.6220 C.3    13  LEU13       0.0284
      6  CG        -8.0070    4.1220   13.0390 C.3    13  LEU13       0.0019
      7  CD1       -6.6630    3.5530   13.4400 C.3    13  LEU13       0.0001
      8  CD2       -8.0080    5.6610   13.1700 C.3    13  LEU13       0.0001
      9  N        -10.5550    2.7230    9.3620 N.am   14  GLY14      -0.1942
     10  CA       -10.7880    2.2770    7.9900 C.3    14  GLY14       0.2014
     11  C        -11.5620    0.9840    7.9190 C.2    14  GLY14       0.2639
     12  O        -11.6590    0.2540    8.9050 O.2    14  GLY14      -0.2714
     13  N        -12.1060    0.6890    6.7370 N.am   15  LYS15      -0.1963
     14  CA       -12.9060   -0.5130    6.4890 C.3    15  LYS15       0.1728
     15  C        -12.5070   -1.2180    5.1870 C.2    15  LYS15       0.2616
     16  O        -12.0820   -0.5790    4.2310 O.2    15  LYS15      -0.2715
     17  CB       -14.3990   -0.1390    6.3980 C.3    15  LYS15       0.0311
     18  CG       -15.0610    0.1610    7.7340 C.3    15  LYS15       0.0038
     19  CD       -16.0740   -0.9110    8.1000 C.3    15  LYS15       0.0206
     20  CE       -16.6100   -0.7660    9.5040 C.3    15  LYS15       0.1093
     21  NZ       -17.7120    0.2270    9.5820 N.3    15  LYS15      -0.1314
     22  N        -12.6670   -2.5310    5.2040 N.am   16  GLY16      -0.1955
     23  CA       -12.4940   -3.4890    4.1160 C.3    16  GLY16       0.1869
     24  C        -13.7320   -4.3690    4.1390 C.2    16  GLY16       0.2309
     25  O        -14.4070   -4.4320    5.1730 O.2    16  GLY16      -0.2863
     26  N        -13.0150   -6.7300    6.8740 N.3    19  GLY19      -0.1210
     27  CA       -12.1760   -6.2360    7.9660 C.3    19  GLY19       0.1956
     28  C        -12.3310   -4.7720    8.3160 C.2    19  GLY19       0.2613
     29  O        -12.7200   -3.9630    7.4730 O.2    19  GLY19      -0.2717
     30  N        -12.0470   -4.4110    9.5710 N.am   20  SER20      -0.1938
     31  CA       -12.0930   -3.0030    9.9730 C.3    20  SER20       0.2055
     32  C        -10.9210   -2.7120   10.8990 C.2    20  SER20       0.2642
     33  O        -10.4630   -3.6220   11.5980 O.2    20  SER20      -0.2714
     34  CB       -13.4320   -2.6400   10.6150 C.3    20  SER20       0.2130
     35  OG       -13.4930   -2.9900   11.9870 O.3    20  SER20      -0.2179
     36  N        -10.4360   -1.4550   10.9040 N.am   21  VAL21      -0.1977
     37  CA        -9.3340   -1.0330   11.7830 C.3    21  VAL21       0.1596
     38  C         -9.8520    0.0880   12.6520 C.2    21  VAL21       0.2287
     39  O        -10.4600    1.0380   12.1360 O.2    21  VAL21      -0.2864
     40  CB        -8.0360   -0.6290   11.0140 C.3    21  VAL21       0.0276
     41  CG1       -6.9050   -0.2990   11.9820 C.3    21  VAL21       0.0022
     42  CG2       -7.5960   -1.7310   10.0500 C.3    21  VAL21       0.0022
     43  N         -3.6880    0.3780   17.1930 N.3    38  ALA38      -0.1245
     44  CA        -4.5770    0.1440   16.0550 C.3    38  ALA38       0.1562
     45  C         -5.0000   -1.3330   16.1490 C.2    38  ALA38       0.2260
     46  O         -4.1560   -2.2280   16.2950 O.2    38  ALA38      -0.2867
     47  CB        -3.8450    0.4070   14.7390 C.3    38  ALA38       0.0290
     48  N         -7.2040   -4.3890   14.3590 N.3    40  LYS40      -0.1245
     49  CA        -7.8510   -4.8920   13.1490 C.3    40  LYS40       0.1561
     50  C         -8.6980   -6.0940   13.5340 C.2    40  LYS40       0.2260
     51  O         -8.2410   -6.9650   14.2720 O.2    40  LYS40      -0.2867
     52  CB        -6.8580   -5.2510   12.0350 C.3    40  LYS40       0.0271
     53  CG        -7.5900   -5.6590   10.7420 C.3    40  LYS40       0.0035
     54  CD        -6.6450   -5.7210    9.5480 C.3    40  LYS40       0.0206
     55  CE        -7.4280   -5.9450    8.2770 C.3    40  LYS40       0.1093
     56  NZ        -6.5170   -6.0250    7.0890 N.3    40  LYS40      -0.1314
     57  N          4.5090   -1.1700    9.1480 N.3    69  VAL69      -0.1245
     58  CA         3.8910   -0.9140   10.4620 C.3    69  VAL69       0.1561
     59  C          4.2520   -2.0230   11.4810 C.2    69  VAL69       0.2260
     60  O          4.2990   -3.1910   11.1000 O.2    69  VAL69      -0.2867
     61  CB         2.3530   -0.6860   10.3150 C.3    69  VAL69       0.0252
     62  CG1        1.6080   -1.9860    9.9690 C.3    69  VAL69       0.0019
     63  CG2        1.7640   -0.0160   11.5710 C.3    69  VAL69       0.0019
     64  N         -1.6690   -3.5470   16.3970 N.3    87  MET87      -0.1230
     65  CA        -0.5530   -2.8850   15.7330 C.3    87  MET87       0.1702
     66  C         -0.2800   -1.5660   16.4160 C.2    87  MET87       0.2592
     67  O         -1.1520   -1.0370   17.1200 O.2    87  MET87      -0.2718
     68  CB        -0.9210   -2.5790   14.2600 C.3    87  MET87       0.0401
     69  CG        -1.0390   -3.8150   13.3940 C.3    87  MET87       0.0596
     70  SD        -1.8130   -3.4660   11.8120 S.3    87  MET87      -0.1393
     71  CE        -3.5720   -3.2950   12.3150 C.3    87  MET87       0.0692
     72  N          0.8920   -0.9750   16.1440 N.am   88  GLU88      -0.1966
     73  CA         1.1470    0.3770   16.6260 C.3    88  GLU88       0.1733
     74  C          0.1800    1.3340   15.9190 C.2    88  GLU88       0.2616
     75  O         -0.2080    1.0920   14.7600 O.2    88  GLU88      -0.2715
     76  CB         2.5880    0.8150   16.3810 C.3    88  GLU88       0.0429
     77  CG         3.0370    0.6520   14.9350 C.3    88  GLU88       0.1163
     78  CD         4.3760    1.2730   14.5870 C.2    88  GLU88       0.3649
     79  OE1        4.8020    1.0930   13.4260 O.co2  88  GLU88      -0.2457
     80  OE2        4.9660    1.9870   15.4340 O.co2  88  GLU88      -0.2457
     81  N         -0.2220    2.4020   16.6270 N.am   89  TYR89      -0.1960
     82  CA        -1.0980    3.4290   16.0520 C.3    89  TYR89       0.1771
     83  C         -0.2500    4.6330   15.6700 C.2    89  TYR89       0.2619
     84  O          0.5350    5.1200   16.5000 O.2    89  TYR89      -0.2715
     85  CB        -2.2280    3.8200   17.0310 C.3    89  TYR89       0.0574
     86  CG        -2.9530    5.0700   16.5920 C.ar   89  TYR89      -0.0198
     87  CD1       -3.7610    5.0680   15.4530 C.ar   89  TYR89      -0.0009
     88  CD2       -2.7440    6.2800   17.2420 C.ar   89  TYR89      -0.0009
     89  CE1       -4.3800    6.2330   15.0070 C.ar   89  TYR89       0.0417
     90  CE2       -3.3930    7.4410   16.8290 C.ar   89  TYR89       0.0417
     91  CZ        -4.1930    7.4140   15.7000 C.ar   89  TYR89       0.1957
     92  OH        -4.7720    8.5640   15.2470 O.3    89  TYR89      -0.2866
     93  N         -0.3860    5.0970   14.4000 N.am   90  LEU90      -0.1977
     94  CA         0.3540    6.2570   13.8960 C.3    90  LEU90       0.1596
     95  C         -0.5800    7.4650   13.8520 C.2    90  LEU90       0.2287
     96  O         -1.4450    7.5580   12.9620 O.2    90  LEU90      -0.2864
     97  CB         1.0200    5.9600   12.5190 C.3    90  LEU90       0.0297
     98  CG         2.4040    5.2870   12.5760 C.3    90  LEU90       0.0022
     99  CD1        2.3320    3.9780   13.3400 C.3    90  LEU90       0.0001
    100  CD2        2.9080    4.9590   11.1430 C.3    90  LEU90       0.0001
    101  N         -1.8050    9.4090   10.7020 N.3    93  GLY93      -0.1210
    102  CA        -2.7720    8.7500    9.8330 C.3    93  GLY93       0.1956
    103  C         -2.2690    8.2560    8.4910 C.2    93  GLY93       0.2612
    104  O         -1.0630    8.0650    8.3010 O.2    93  GLY93      -0.2717
    105  N         -3.2140    8.0170    7.5540 N.am   94  SER94      -0.1952
    106  CA        -2.8400    7.5230    6.2310 C.3    94  SER94       0.1924
    107  C         -2.1770    8.6140    5.4010 C.2    94  SER94       0.2314
    108  O         -2.4210    9.8160    5.5950 O.2    94  SER94      -0.2863
    109  CB        -4.0420    6.9670    5.4670 C.3    94  SER94       0.2116
    110  OG        -4.9030    8.0230    5.0720 O.3    94  SER94      -0.2180
    111  N         -2.6230   -5.0110   -2.7270 N.3   134  ASP134     -0.1239
    112  CA        -3.5110   -3.9000   -2.4320 C.3   134  ASP134      0.1674
    113  C         -2.7550   -2.6010   -2.1990 C.2   134  ASP134      0.2266
    114  O         -3.1860   -1.7770   -1.3890 O.2   134  ASP134     -0.2867
    115  CB        -4.3720   -4.2820   -1.2030 C.3   134  ASP134      0.1410
    116  CG        -5.5940   -3.4100   -0.9240 C.2   134  ASP134      0.3668
    117  OD1       -6.1570   -2.8330   -1.8900 O.co2 134  ASP134     -0.2456
    118  OD2       -6.0070   -3.3380    0.2460 O.co2 134  ASP134     -0.2456
    119  N         -4.1760    4.8070    0.5940 N.3   138  ARG138     -0.1231
    120  CA        -5.1160    4.4540    1.6820 C.3   138  ARG138      0.1694
    121  C         -4.4360    3.5100    2.7280 C.2   138  ARG138      0.2592
    122  O         -4.7300    3.5850    3.9160 O.2   138  ARG138     -0.2718
    123  CB        -6.3320    3.7570    1.0380 C.3   138  ARG138      0.0321
    124  CG        -7.1610    2.8450    1.9100 C.3   138  ARG138      0.0489
    125  CD        -8.3890    2.3160    1.1670 C.3   138  ARG138      0.2205
    126  NE        -8.0550    1.5120   -0.0100 N.pl3 138  ARG138     -0.0865
    127  CZ        -7.8080    0.2040    0.0040 C.cat 138  ARG138      0.5346
    128  NH1       -7.5960   -0.4490   -1.1340 N.pl3 138  ARG138      0.1354
    129  NH2       -7.7960   -0.4670    1.1510 N.pl3 138  ARG138      0.1354
    130  N         -3.5420    2.6480    2.2650 N.am  139  ASN139     -0.1974
    131  CA        -2.8560    1.6330    3.0700 C.3   139  ASN139      0.1688
    132  C         -1.4290    1.9880    3.4940 C.2   139  ASN139      0.2292
    133  O         -0.7410    1.1390    4.0770 O.2   139  ASN139     -0.2864
    134  CB        -2.8630    0.2960    2.3230 C.3   139  ASN139      0.1181
    135  CG        -4.2240   -0.2840    2.1750 C.2   139  ASN139      0.2629
    136  OD1       -5.0510   -0.1720    3.0700 O.2   139  ASN139     -0.2716
    137  ND2       -4.4900   -0.8990    1.0300 N.am  139  ASN139     -0.0877
    138  N          0.9670    4.6580    5.7100 N.3   141  LEU141     -0.1245
    139  CA         0.8130    5.4780    6.9030 C.3   141  LEU141      0.1561
    140  C          1.9860    6.4230    7.0350 C.2   141  LEU141      0.2260
    141  O          3.0700    6.1290    6.5410 O.2   141  LEU141     -0.2867
    142  CB         0.7920    4.5640    8.1330 C.3   141  LEU141      0.0270
    143  CG        -0.1480    3.3680    8.1480 C.3   141  LEU141      0.0019
    144  CD1       -0.0100    2.6410    9.4810 C.3   141  LEU141      0.0001
    145  CD2       -1.6230    3.8180    7.9360 C.3   141  LEU141      0.0001
    146  N          0.9570   -0.0620    5.8200 N.3   151  GLY151     -0.1210
    147  CA         0.1420   -0.2350    7.0200 C.3   151  GLY151      0.1956
    148  C         -0.9940   -1.2270    7.0550 C.2   151  GLY151      0.2611
    149  O         -1.7300   -1.2810    8.0610 O.2   151  GLY151     -0.2717
    150  N         -1.1460   -2.0200    5.9810 N.am  152  ASP152     -0.1973
    151  CA        -2.1970   -3.0470    5.9130 C.3   152  ASP152      0.1709
    152  C         -1.7660   -4.1530    5.0000 C.2   152  ASP152      0.2293
    153  O         -1.1170   -3.8840    3.9870 O.2   152  ASP152     -0.2864
    154  CB        -3.5520   -2.4850    5.4320 C.3   152  ASP152      0.1436
    155  CG        -4.6950   -3.4780    5.6130 C.2   152  ASP152      0.3671
    156  OD1       -5.2620   -3.5440    6.7380 O.co2 152  ASP152     -0.2456
    157  OD2       -4.9760   -4.2480    4.6610 O.co2 152  ASP152     -0.2456
@<TRIPOS>BOND
     1   111   112    1
     2   112   113    1
     3   112   115    1
     4   113   114    2
     5   117   116   ar
     6   115   116    1
     7   128   127    1
     8   116   118   ar
     9   126   127    2
    10   126   125    1
    11   127   129    1
    12   119   120    1
    13   137   135   am
    14   123   120    1
    15   123   124    1
    16   125   124    1
    17   120   121    1
    18   135   134    1
    19   135   136    2
    20   130   121   am
    21   130   131    1
    22   134   131    1
    23   121   122    2
    24   131   132    1
    25   132   133    2
    26   153   152    2
    27    23    24    1
    28    23    22    1
    29    24    25    2
    30    16    15    2
    31   157   155   ar
    32   152   151    1
    33   110   109    1
    34    15    22   am
    35    15    14    1
    36   107   108    2
    37   107   106    1
    38   154   155    1
    39   154   151    1
    40   109   106    1
    41   155   156   ar
    42   138   139    1
    43   146   147    1
    44   151   150    1
    45   150   148   am
    46   106   105    1
    47    17    14    1
    48    17    18    1
    49    14    13    1
    50   141   140    2
    51    13    11   am
    52    26    27    1
    53   139   140    1
    54   139   142    1
    55   147   148    1
    56   148   149    2
    57    56    55    1
    58    29    28    2
    59   105   103   am
    60    18    19    1
    61    11    10    1
    62    11    12    2
    63   145   143    1
    64    27    28    1
    65    10     9    1
    66    19    20    1
    67   142   143    1
    68   143   144    1
    69    55    54    1
    70   104   103    2
    71    28    30   am
    72   103   102    1
    73     4     3    2
    74    57    58    1
    75     9     3   am
    76    20    21    1
    77    54    53    1
    78    30    31    1
    79     3     2    1
    80   102   101    1
    81    62    61    1
    82    31    34    1
    83    31    32    1
    84    42    40    1
    85    61    58    1
    86    61    63    1
    87    58    59    1
    88    34    35    1
    89    53    52    1
    90    32    36   am
    91    32    33    2
    92    36    37    1
    93    40    37    1
    94    40    41    1
    95     2     5    1
    96     2     1    1
    97    60    59    2
    98   100    98    1
    99     5     6    1
   100    37    38    1
   101    70    71    1
   102    70    69    1
   103    52    49    1
   104    39    38    2
   105    97    98    1
   106    97    94    1
   107    98    99    1
   108    96    95    2
   109     6     8    1
   110     6     7    1
   111    49    50    1
   112    49    48    1
   113    69    68    1
   114    79    78   ar
   115    50    51    2
   116    95    94    1
   117    94    93    1
   118    68    65    1
   119    93    83   am
   120    78    77    1
   121    78    80   ar
   122    47    44    1
   123    75    74    2
   124    77    76    1
   125    89    87   ar
   126    89    91   ar
   127    92    91    1
   128    87    86   ar
   129    83    82    1
   130    83    84    2
   131    91    90   ar
   132    65    64    1
   133    65    66    1
   134    74    73    1
   135    74    81   am
   136    82    81    1
   137    82    85    1
   138    44    45    1
   139    44    43    1
   140    72    66   am
   141    72    73    1
   142    45    46    2
   143    76    73    1
   144    66    67    2
   145    86    85    1
   146    86    88   ar
   147    90    88   ar
