@<TRIPOS>MOLECULE
tmp/6bc2A00.pdb
 187 181 0 0 0
SMALL
GASTEIGER

@<TRIPOS>ATOM
      1  N        -18.2870    2.7410   61.1620 N.3    59  PHE59      -0.1241
      2  CA       -18.7690    3.1880   62.4660 C.3    59  PHE59       0.1605
      3  C        -17.6870    4.0720   63.0820 C.2    59  PHE59       0.2264
      4  O        -16.6500    3.5710   63.5320 O.2    59  PHE59      -0.2867
      5  CB       -19.0990    1.9880   63.3480 C.3    59  PHE59       0.0534
      6  CG       -19.2950    2.3250   64.8000 C.ar   59  PHE59      -0.0203
      7  CD1      -18.5630    1.6700   65.7770 C.ar   59  PHE59      -0.0042
      8  CD2      -20.2390    3.2650   65.1910 C.ar   59  PHE59      -0.0042
      9  CE1      -18.7500    1.9610   67.1150 C.ar   59  PHE59      -0.0003
     10  CE2      -20.4310    3.5600   66.5280 C.ar   59  PHE59      -0.0003
     11  CZ       -19.6860    2.9070   67.4920 C.ar   59  PHE59      -0.0000
     12  N        -18.4670    7.0720   65.2730 N.3    61  SER61      -0.1202
     13  CA       -18.8720    7.6220   66.5700 C.3    61  SER61       0.2020
     14  C        -18.3980    9.0770   66.6620 C.2    61  SER61       0.2618
     15  O        -18.3850    9.8030   65.6580 O.2    61  SER61      -0.2717
     16  CB       -18.3650    6.7230   67.6780 C.3    61  SER61       0.2103
     17  OG       -18.8490    7.1990   68.9160 O.3    61  SER61      -0.2182
     18  N        -18.0140    9.5160   67.8620 N.am   62  TRP62      -0.1975
     19  CA       -17.6480   10.9050   68.1160 C.3    62  TRP62       0.1640
     20  C        -16.6570   10.9590   69.2730 C.2    62  TRP62       0.2290
     21  O        -16.8910   10.3540   70.3250 O.2    62  TRP62      -0.2864
     22  CB       -18.9060   11.7300   68.4230 C.3    62  TRP62       0.0576
     23  CG       -18.6880   13.1520   68.7750 C.ar   62  TRP62       0.0006
     24  CD1      -17.6010   13.9120   68.4800 C.ar   62  TRP62       0.0946
     25  CD2      -19.6150   14.0150   69.4440 C.ar   62  TRP62       0.0152
     26  NE1      -17.7750   15.1860   68.9550 N.ar   62  TRP62      -0.2442
     27  CE2      -19.0070   15.2760   69.5470 C.ar   62  TRP62       0.0810
     28  CE3      -20.8950   13.8380   69.9800 C.ar   62  TRP62       0.0012
     29  CZ2      -19.6320   16.3580   70.1570 C.ar   62  TRP62       0.0191
     30  CZ3      -21.5180   14.9170   70.5890 C.ar   62  TRP62       0.0001
     31  CH2      -20.8860   16.1600   70.6710 C.ar   62  TRP62       0.0015
     32  N        -18.3630   12.3330   72.5080 N.3    65  SER65      -0.1217
     33  CA       -19.7270   11.9190   72.8260 C.3    65  SER65       0.1889
     34  C        -19.9670   11.9550   74.3350 C.2    65  SER65       0.2288
     35  O        -19.1760   11.3850   75.0980 O.2    65  SER65      -0.2866
     36  CB       -19.9930   10.5080   72.2940 C.3    65  SER65       0.2089
     37  OG       -21.1920    9.9740   72.8300 O.3    65  SER65      -0.2183
     38  N        -21.5670   10.2530   76.4240 N.3    67  TYR67      -0.1227
     39  CA       -22.2540    9.0060   76.7500 C.3    67  TYR67       0.1736
     40  C        -22.2280    8.7320   78.2530 C.2    67  TYR67       0.2595
     41  O        -23.2740    8.7080   78.9150 O.2    67  TYR67      -0.2718
     42  CB       -21.6150    7.8460   75.9680 C.3    67  TYR67       0.0548
     43  CG       -22.3160    6.5210   76.1420 C.ar   67  TYR67      -0.0200
     44  CD1      -23.3580    6.1430   75.3040 C.ar   67  TYR67      -0.0009
     45  CD2      -21.9380    5.6500   77.1510 C.ar   67  TYR67      -0.0009
     46  CE1      -23.9960    4.9260   75.4650 C.ar   67  TYR67       0.0417
     47  CE2      -22.5740    4.4370   77.3260 C.ar   67  TYR67       0.0417
     48  CZ       -23.6010    4.0770   76.4780 C.ar   67  TYR67       0.1957
     49  OH       -24.2390    2.8680   76.6530 O.3    67  TYR67      -0.2866
     50  N        -21.0250    8.5440   78.8090 N.am   68  GLU68      -0.1979
     51  CA       -20.8700    8.2540   80.2320 C.3    68  GLU68       0.1602
     52  C        -21.4050    9.3890   81.0960 C.2    68  GLU68       0.2287
     53  O        -21.9520    9.1470   82.1770 O.2    68  GLU68      -0.2864
     54  CB       -19.3890    8.0070   80.5290 C.3    68  GLU68       0.0415
     55  CG       -18.8680    6.6850   80.0190 C.3    68  GLU68       0.1163
     56  CD       -19.5320    5.4720   80.6410 C.2    68  GLU68       0.3649
     57  OE1      -19.6390    4.4600   79.9210 O.co2  68  GLU68      -0.2457
     58  OE2      -19.9310    5.5090   81.8320 O.co2  68  GLU68      -0.2457
     59  N        -14.3700    8.9560   67.1830 N.3    95  TYR95      -0.1241
     60  CA       -13.8910    8.4180   68.4530 C.3    95  TYR95       0.1605
     61  C        -12.6150    7.6120   68.2540 C.2    95  TYR95       0.2264
     62  O        -12.6330    6.6020   67.5390 O.2    95  TYR95      -0.2867
     63  CB       -14.9610    7.5350   69.0830 C.3    95  TYR95       0.0534
     64  CG       -14.6270    7.0610   70.4780 C.ar   95  TYR95      -0.0201
     65  CD1      -14.7280    7.9110   71.5700 C.ar   95  TYR95      -0.0009
     66  CD2      -14.2030    5.7570   70.6990 C.ar   95  TYR95      -0.0009
     67  CE1      -14.4160    7.4720   72.8500 C.ar   95  TYR95       0.0417
     68  CE2      -13.8930    5.3070   71.9710 C.ar   95  TYR95       0.0417
     69  CZ       -13.9990    6.1680   73.0430 C.ar   95  TYR95       0.1957
     70  OH       -13.6920    5.7240   74.3120 O.3    95  TYR95      -0.2866
     71  N        -10.8760    5.4720   69.9660 N.3    97  GLY97      -0.1210
     72  CA       -10.7730    4.0950   70.4440 C.3    97  GLY97       0.1956
     73  C        -11.3620    3.0390   69.5280 C.2    97  GLY97       0.2611
     74  O        -11.1300    1.8440   69.7730 O.2    97  GLY97      -0.2717
     75  N        -12.0940    3.4460   68.4810 N.am   98  PHE98      -0.1976
     76  CA       -12.6190    2.5210   67.4820 C.3    98  PHE98       0.1639
     77  C        -11.7690    2.4810   66.2170 C.2    98  PHE98       0.2290
     78  O        -12.2170    1.9350   65.2060 O.2    98  PHE98      -0.2864
     79  CB       -14.0610    2.8880   67.0920 C.3    98  PHE98       0.0560
     80  CG       -15.0140    2.9500   68.2480 C.ar   98  PHE98      -0.0200
     81  CD1      -14.9290    2.0440   69.2970 C.ar   98  PHE98      -0.0042
     82  CD2      -16.0120    3.9110   68.2750 C.ar   98  PHE98      -0.0042
     83  CE1      -15.8070    2.1170   70.3460 C.ar   98  PHE98      -0.0003
     84  CE2      -16.9000    3.9810   69.3320 C.ar   98  PHE98      -0.0003
     85  CZ       -16.7870    3.0730   70.3700 C.ar   98  PHE98      -0.0000
     86  N        -23.6080    9.4180   68.9830 N.3   118  ASP118     -0.1239
     87  CA       -22.8450    8.3360   69.5970 C.3   118  ASP118      0.1674
     88  C        -22.6400    7.1520   68.6600 C.2   118  ASP118      0.2266
     89  O        -21.5850    6.5090   68.7040 O.2   118  ASP118     -0.2867
     90  CB       -23.5280    7.8870   70.8940 C.3   118  ASP118      0.1410
     91  CG       -22.6360    7.0060   71.7510 C.2   118  ASP118      0.3668
     92  OD1      -22.8120    5.7710   71.7150 O.co2 118  ASP118     -0.2456
     93  OD2      -21.7430    7.5420   72.4420 O.co2 118  ASP118     -0.2456
     94  N        -28.3570    0.7610   66.3350 N.3   141  TYR141     -0.1241
     95  CA       -27.8190   -0.3480   65.5630 C.3   141  TYR141      0.1605
     96  C        -28.8710   -1.3340   65.0740 C.2   141  TYR141      0.2264
     97  O        -28.5120   -2.3020   64.3920 O.2   141  TYR141     -0.2867
     98  CB       -26.7710   -1.1050   66.3910 C.3   141  TYR141      0.0534
     99  CG       -25.7470   -0.2070   67.0390 C.ar  141  TYR141     -0.0201
    100  CD1      -25.8230    0.0970   68.3910 C.ar  141  TYR141     -0.0009
    101  CD2      -24.7180    0.3560   66.2970 C.ar  141  TYR141     -0.0009
    102  CE1      -24.8920    0.9220   68.9920 C.ar  141  TYR141      0.0417
    103  CE2      -23.7830    1.1870   66.8870 C.ar  141  TYR141      0.0417
    104  CZ       -23.8740    1.4660   68.2370 C.ar  141  TYR141      0.1957
    105  OH       -22.9500    2.2930   68.8380 O.3   141  TYR141     -0.2866
    106  N        -14.1400   -9.1850   68.5180 N.3   165  ASP165     -0.1225
    107  CA       -14.9710   -8.2320   69.2390 C.3   165  ASP165      0.1805
    108  C        -15.3610   -7.0310   68.3860 C.2   165  ASP165      0.2598
    109  O        -16.3240   -6.3330   68.7250 O.2   165  ASP165     -0.2718
    110  CB       -14.2190   -7.7560   70.4800 C.3   165  ASP165      0.1424
    111  CG       -12.9510   -6.9890   70.1270 C.2   165  ASP165      0.3668
    112  OD1      -12.9480   -5.7460   70.2350 O.co2 165  ASP165     -0.2456
    113  OD2      -11.9570   -7.6330   69.7210 O.co2 165  ASP165     -0.2456
    114  N        -14.6350   -6.7640   67.3010 N.am  166  ALA166     -0.1966
    115  CA       -14.8640   -5.5660   66.4960 C.3   166  ALA166      0.1728
    116  C        -15.7700   -5.9030   65.3140 C.2   166  ALA166      0.2616
    117  O        -15.3660   -5.8540   64.1550 O.2   166  ALA166     -0.2715
    118  CB       -13.5360   -4.9860   66.0220 C.3   166  ALA166      0.0334
    119  N        -17.0260   -6.2240   65.6230 N.am  167  VAL167     -0.1963
    120  CA       -18.0330   -6.4700   64.5940 C.3   167  VAL167      0.1727
    121  C        -19.3190   -5.7270   64.9380 C.2   167  VAL167      0.2616
    122  O        -20.2590   -6.3130   65.4920 O.2   167  VAL167     -0.2715
    123  CB       -18.3080   -7.9780   64.4240 C.3   167  VAL167      0.0290
    124  CG1      -19.2270   -8.2070   63.2470 C.3   167  VAL167      0.0023
    125  CG2      -17.0140   -8.7710   64.2590 C.3   167  VAL167      0.0023
    126  N        -19.3500   -4.4200   64.6500 N.am  168  THR168     -0.1951
    127  CA       -20.4570   -3.5860   65.1080 C.3   168  THR168      0.1897
    128  C        -21.7990   -4.0820   64.5810 C.2   168  THR168      0.2313
    129  O        -22.8250   -3.9200   65.2540 O.2   168  THR168     -0.2863
    130  CB       -20.2320   -2.1300   64.6910 C.3   168  THR168      0.1794
    131  OG1      -18.8990   -1.7250   65.0260 O.3   168  THR168     -0.2208
    132  CG2      -21.2290   -1.2030   65.3880 C.3   168  THR168      0.0378
    133  N        -24.5360   -5.9510   66.5990 N.3   171  HIS171     -0.1241
    134  CA       -25.4760   -5.2740   67.4840 C.3   171  HIS171      0.1621
    135  C        -26.8780   -5.2510   66.8960 C.2   171  HIS171      0.2264
    136  O        -27.8470   -5.0850   67.6420 O.2   171  HIS171     -0.2867
    137  CB       -25.0120   -3.8520   67.8030 C.3   171  HIS171      0.0745
    138  CG       -23.8270   -3.7900   68.7150 C.ar  171  HIS171      0.0817
    139  ND1      -23.8100   -4.4060   69.9470 N.ar  171  HIS171     -0.2268
    140  CD2      -22.6210   -3.1900   68.5770 C.ar  171  HIS171      0.1154
    141  CE1      -22.6470   -4.1830   70.5340 C.ar  171  HIS171      0.1986
    142  NE2      -21.9070   -3.4490   69.7210 N.ar  171  HIS171     -0.2212
    143  N        -25.1670   -1.4690   74.3150 N.3   207  SER207     -0.1202
    144  CA       -24.1470   -1.9910   73.4130 C.3   207  SER207      0.2020
    145  C        -22.8700   -2.4220   74.1300 C.2   207  SER207      0.2618
    146  O        -21.8890   -2.7610   73.4610 O.2   207  SER207     -0.2717
    147  CB       -23.8040   -0.9570   72.3350 C.3   207  SER207      0.2103
    148  OG       -23.1800    0.1870   72.8900 O.3   207  SER207     -0.2182
    149  N        -22.8540   -2.4310   75.4630 N.am  208  ASN208     -0.1974
    150  CA       -21.7550   -3.0070   76.2300 C.3   208  ASN208      0.1688
    151  C        -22.1400   -4.3240   76.8980 C.2   208  ASN208      0.2292
    152  O        -21.6680   -4.6350   77.9930 O.2   208  ASN208     -0.2864
    153  CB       -21.2410   -1.9990   77.2560 C.3   208  ASN208      0.1181
    154  CG       -20.3770   -0.9150   76.6230 C.2   208  ASN208      0.2629
    155  OD1      -19.3730   -1.2100   75.9770 O.2   208  ASN208     -0.2716
    156  ND2      -20.7750    0.3420   76.7950 N.am  208  ASN208     -0.0877
    157  N        -23.0630  -11.1560   79.6600 N.3   214  TYR214     -0.1241
    158  CA       -22.2050  -10.6490   78.5920 C.3   214  TYR214      0.1605
    159  C        -21.6880   -9.2350   78.8110 C.2   214  TYR214      0.2264
    160  O        -20.9710   -8.7220   77.9460 O.2   214  TYR214     -0.2867
    161  CB       -22.9040  -10.7390   77.2290 C.3   214  TYR214      0.0534
    162  CG       -23.3250  -12.1380   76.8480 C.ar  214  TYR214     -0.0201
    163  CD1      -22.3730  -13.1420   76.7230 C.ar  214  TYR214     -0.0009
    164  CD2      -24.6470  -12.4500   76.5680 C.ar  214  TYR214     -0.0009
    165  CE1      -22.7250  -14.4230   76.3670 C.ar  214  TYR214      0.0417
    166  CE2      -25.0110  -13.7370   76.2020 C.ar  214  TYR214      0.0417
    167  CZ       -24.0430  -14.7180   76.1050 C.ar  214  TYR214      0.1957
    168  OH       -24.3870  -16.0000   75.7370 O.3   214  TYR214     -0.2866
    169  N        -14.2700  -10.2260   80.7220 N.3   219  GLY219     -0.1225
    170  CA       -15.3960   -9.5180   80.1680 C.3   219  GLY219      0.1811
    171  C        -15.6760   -9.6270   78.6770 C.2   219  GLY219      0.2280
    172  O        -15.8910   -8.5850   78.0470 O.2   219  GLY219     -0.2866
    173  N        -17.7290   -9.9570   75.3490 N.3   221  ASP221     -0.1239
    174  CA       -19.1080   -9.6510   75.0190 C.3   221  ASP221      0.1674
    175  C        -19.7610  -10.7110   74.1300 C.2   221  ASP221      0.2266
    176  O        -19.1500  -11.7100   73.7400 O.2   221  ASP221     -0.2867
    177  CB       -19.1310   -8.2610   74.3970 C.3   221  ASP221      0.1410
    178  CG       -18.3750   -8.2100   73.0960 C.2   221  ASP221      0.3668
    179  OD1      -18.9800   -8.4890   72.0580 O.co2 221  ASP221     -0.2456
    180  OD2      -17.1600   -7.9300   73.1220 O.co2 221  ASP221     -0.2456
    181  N        -20.9430  -10.2600   71.0690 N.3   223  VAL223     -0.1245
    182  CA       -20.4060  -10.1050   69.7180 C.3   223  VAL223      0.1561
    183  C        -19.1710  -10.9790   69.5320 C.2   223  VAL223      0.2260
    184  O        -19.0530  -11.7140   68.5460 O.2   223  VAL223     -0.2867
    185  CB       -20.1170   -8.6230   69.4120 C.3   223  VAL223      0.0252
    186  CG1      -19.3570   -8.4730   68.1030 C.3   223  VAL223      0.0019
    187  CG2      -21.4030   -7.8130   69.3950 C.3   223  VAL223      0.0019
@<TRIPOS>BOND
     1     1     2    1
     2     2     3    1
     3     2     5    1
     4     3     4    2
     5   124   123    1
     6     5     6    1
     7   117   116    2
     8   125   123    1
     9    97    96    2
    10   123   120    1
    11   128   127    1
    12   128   129    2
    13   120   121    1
    14   120   119    1
    15   126   121   am
    16   126   127    1
    17   130   131    1
    18   130   127    1
    19   130   132    1
    20     6     8   ar
    21     6     7   ar
    22   121   122    2
    23    96    95    1
    24     8    10   ar
    25    78    77    2
    26    12    13    1
    27   116   119   am
    28   116   115    1
    29    95    94    1
    30    95    98    1
    31    15    14    2
    32     7     9   ar
    33   118   115    1
    34    77    76    1
    35   101   103   ar
    36   101    99   ar
    37    98    99    1
    38   115   114    1
    39    10    11   ar
    40    13    14    1
    41    13    16    1
    42   133   134    1
    43    14    18   am
    44   103   104   ar
    45   135   134    1
    46   135   136    2
    47    99   100   ar
    48    79    76    1
    49    79    80    1
    50     9    11   ar
    51    59    60    1
    52   114   108   am
    53    76    75    1
    54   134   137    1
    55    62    61    2
    56    16    17    1
    57   137   138    1
    58    18    19    1
    59   186   185    1
    60    19    22    1
    61    19    20    1
    62   104   105    1
    63   104   102   ar
    64    80    82   ar
    65    80    81   ar
    66    61    60    1
    67    82    84   ar
    68   108   109    2
    69   108   107    1
    70   100   102   ar
    71    22    23    1
    72    60    63    1
    73    24    23   ar
    74    24    26   ar
    75    75    73   am
    76   106   107    1
    77   184   183    2
    78   140   138   ar
    79   140   142   ar
    80    88    89    2
    81    88    87    1
    82   138   139   ar
    83    23    25   ar
    84    26    27   ar
    85    86    87    1
    86    63    64    1
    87   107   110    1
    88    20    21    2
    89    81    83   ar
    90    84    85   ar
    91   187   185    1
    92   185   182    1
    93    25    27   ar
    94    25    28   ar
    95    73    74    2
    96    73    72    1
    97   183   182    1
    98    27    29   ar
    99    87    90    1
   100   182   181    1
   101   113   111   ar
   102   142   141   ar
   103   139   141   ar
   104    71    72    1
   105    28    30   ar
   106   111   112   ar
   107   111   110    1
   108    29    31   ar
   109    83    85   ar
   110    64    66   ar
   111    64    65   ar
   112    30    31   ar
   113    66    68   ar
   114    90    91    1
   115    65    67   ar
   116    92    91   ar
   117    91    93   ar
   118    68    69   ar
   119   179   178   ar
   120    36    33    1
   121    36    37    1
   122   147   148    1
   123   147   144    1
   124    32    33    1
   125    33    34    1
   126    67    69   ar
   127    69    70    1
   128   178   180   ar
   129   178   177    1
   130   144   145    1
   131   144   143    1
   132   146   145    2
   133   176   175    2
   134   145   149   am
   135   175   174    1
   136    34    35    2
   137   177   174    1
   138   174   173    1
   139    44    46   ar
   140    44    43   ar
   141   149   150    1
   142    46    48   ar
   143   168   167    1
   144    42    43    1
   145    42    39    1
   146   155   154    2
   147   167   166   ar
   148   167   165   ar
   149    43    45   ar
   150   166   164   ar
   151   150   151    1
   152   150   153    1
   153   165   163   ar
   154    38    39    1
   155    48    49    1
   156    48    47   ar
   157   164   162   ar
   158   154   156   am
   159   154   153    1
   160   163   162   ar
   161    39    40    1
   162   162   161    1
   163   151   152    2
   164    45    47   ar
   165   161   158    1
   166   160   159    2
   167   172   171    2
   168    40    50   am
   169    40    41    2
   170   158   159    1
   171   158   157    1
   172   171   170    1
   173    50    51    1
   174    57    56   ar
   175    55    54    1
   176    55    56    1
   177   170   169    1
   178    51    54    1
   179    51    52    1
   180    56    58   ar
   181    52    53    2
