@<TRIPOS>MOLECULE
tmp/6bc3A00.pdb
 188 187 0 0 0
SMALL
GASTEIGER

@<TRIPOS>ATOM
      1  N         13.9320   40.3940   11.5880 N.3    25  PRO25      -0.2102
      2  CA        15.1680   40.9750   11.0520 C.3    25  PRO25       0.1504
      3  C         16.3570   40.0260   11.0660 C.2    25  PRO25       0.2576
      4  O         16.5410   39.2140   11.9750 O.2    25  PRO25      -0.2718
      5  CB        15.4150   42.1600   11.9940 C.3    25  PRO25       0.0282
      6  CG        14.8670   41.6950   13.2990 C.3    25  PRO25       0.0208
      7  CD        13.6780   40.8210   12.9750 C.3    25  PRO25       0.0893
      8  N         17.1730   40.1430   10.0190 N.am   26  HIS26      -0.1962
      9  CA        18.4900   39.5140    9.9400 C.3    26  HIS26       0.1787
     10  C         19.4720   40.6220    9.5850 C.2    26  HIS26       0.2620
     11  O         19.4000   41.1880    8.4900 O.2    26  HIS26      -0.2715
     12  CB        18.5190   38.3910    8.9040 C.3    26  HIS26       0.0785
     13  CG        17.5310   37.2990    9.1710 C.ar   26  HIS26       0.0821
     14  ND1       17.7290   36.3360   10.1380 N.ar   26  HIS26      -0.2267
     15  CD2       16.3370   37.0150    8.5980 C.ar   26  HIS26       0.1154
     16  CE1       16.7000   35.5090   10.1500 C.ar   26  HIS26       0.1986
     17  NE2       15.8410   35.8970    9.2230 N.ar   26  HIS26      -0.2212
     18  N         20.3790   40.9400   10.5070 N.am   27  VAL27      -0.1963
     19  CA        21.1250   42.1920   10.4700 C.3    27  VAL27       0.1727
     20  C         22.6220   41.9130   10.4720 C.2    27  VAL27       0.2617
     21  O         23.0970   40.9990   11.1550 O.2    27  VAL27      -0.2715
     22  CB        20.7410   43.0970   11.6600 C.3    27  VAL27       0.0290
     23  CG1       21.4690   44.4310   11.5850 C.3    27  VAL27       0.0023
     24  CG2       19.2340   43.3070   11.7040 C.3    27  VAL27       0.0023
     25  N         23.3580   42.7060    9.6950 N.am   28  SER28      -0.1936
     26  CA        24.8100   42.8100    9.7830 C.3    28  SER28       0.2055
     27  C         25.1320   44.2270   10.2410 C.2    28  SER28       0.2643
     28  O         25.0140   45.1780    9.4600 O.2    28  SER28      -0.2714
     29  CB        25.4730   42.5010    8.4420 C.3    28  SER28       0.2130
     30  OG        26.8170   42.9530    8.4270 O.3    28  SER28      -0.2179
     31  N         25.5310   44.3690   11.5070 N.am   29  LEU29      -0.1963
     32  CA        25.7740   45.6990   12.0570 C.3    29  LEU29       0.1728
     33  C         26.9810   46.3720   11.4150 C.2    29  LEU29       0.2616
     34  O         27.0180   47.6030   11.3160 O.2    29  LEU29      -0.2715
     35  CB        25.9500   45.6180   13.5730 C.3    29  LEU29       0.0311
     36  CG        24.6610   45.3820   14.3620 C.3    29  LEU29       0.0022
     37  CD1       24.9560   45.2160   15.8440 C.3    29  LEU29       0.0001
     38  CD2       23.6840   46.5250   14.1320 C.3    29  LEU29       0.0001
     39  N         27.9750   45.5930   10.9790 N.am   30  ARG30      -0.1977
     40  CA        29.1010   46.1840   10.2640 C.3    30  ARG30       0.1597
     41  C         28.6640   46.7740    8.9300 C.2    30  ARG30       0.2287
     42  O         29.2320   47.7750    8.4780 O.2    30  ARG30      -0.2864
     43  CB        30.2010   45.1440   10.0500 C.3    30  ARG30       0.0334
     44  CG        30.8760   44.6680   11.3290 C.3    30  ARG30       0.0492
     45  CD        32.0500   43.7480   11.0180 C.3    30  ARG30       0.2205
     46  NE        32.8020   43.3780   12.2150 N.pl3  30  ARG30      -0.0865
     47  CZ        32.7000   42.2060   12.8340 C.cat  30  ARG30       0.5346
     48  NH1       31.8770   41.2750   12.3720 N.pl3  30  ARG30       0.1354
     49  NH2       33.4260   41.9630   13.9170 N.pl3  30  ARG30       0.1354
     50  N         24.7750   53.4530   19.0990 N.3    38  GLY38      -0.1210
     51  CA        25.1330   52.0670   18.9220 C.3    38  GLY38       0.1940
     52  C         23.9820   51.2310   18.4010 C.2    38  GLY38       0.2453
     53  O         22.9860   51.7530   17.8900 O.2    38  GLY38      -0.2732
     54  N         24.0990   49.9060   18.5320 N.am   39  PRO39      -0.2728
     55  CA        23.0570   49.0140   17.9940 C.3    39  PRO39       0.1401
     56  C         21.6630   49.2800   18.5370 C.2    39  PRO39       0.2269
     57  O         20.6840   48.8870   17.8910 O.2    39  PRO39      -0.2865
     58  CB        23.5530   47.6180   18.3950 C.3    39  PRO39       0.0296
     59  CG        25.0330   47.7730   18.5350 C.3    39  PRO39       0.0237
     60  CD        25.2470   49.1590   19.0730 C.3    39  PRO39       0.0939
     61  N         15.3630   35.2430   15.6370 N.3    59  PHE59      -0.1241
     62  CA        16.0030   33.9860   16.0190 C.3    59  PHE59       0.1605
     63  C         17.3080   34.3260   16.7240 C.2    59  PHE59       0.2264
     64  O         18.3100   34.6550   16.0850 O.2    59  PHE59      -0.2867
     65  CB        16.2310   33.1000   14.8000 C.3    59  PHE59       0.0534
     66  CG        17.0440   31.8660   15.0860 C.ar   59  PHE59      -0.0203
     67  CD1       18.0060   31.4350   14.1870 C.ar   59  PHE59      -0.0042
     68  CD2       16.8530   31.1420   16.2510 C.ar   59  PHE59      -0.0042
     69  CE1       18.7570   30.3030   14.4420 C.ar   59  PHE59      -0.0003
     70  CE2       17.6040   30.0120   16.5140 C.ar   59  PHE59      -0.0003
     71  CZ        18.5570   29.5920   15.6070 C.ar   59  PHE59      -0.0000
     72  N         26.0270   34.8580   19.7120 N.3    96  PRO96      -0.2102
     73  CA        26.6150   36.0080   19.0040 C.3    96  PRO96       0.1504
     74  C         26.7860   35.7850   17.5120 C.2    96  PRO96       0.2576
     75  O         26.7910   36.7590   16.7490 O.2    96  PRO96      -0.2718
     76  CB        27.9710   36.1940   19.7030 C.3    96  PRO96       0.0282
     77  CG        27.8340   35.4900   21.0180 C.3    96  PRO96       0.0208
     78  CD        26.9220   34.3330   20.7560 C.3    96  PRO96       0.0893
     79  N         26.9190   34.5320   17.0700 N.am   97  GLY97      -0.1943
     80  CA        27.1500   34.2560   15.6620 C.3    97  GLY97       0.2014
     81  C         25.9910   34.6120   14.7560 C.2    97  GLY97       0.2639
     82  O         26.1910   34.7730   13.5470 O.2    97  GLY97      -0.2714
     83  N         24.7860   34.7370   15.3050 N.am   98  PHE98      -0.1959
     84  CA        23.6090   35.0690   14.5170 C.3    98  PHE98       0.1771
     85  C         23.3190   36.5640   14.4940 C.2    98  PHE98       0.2620
     86  O         22.2440   36.9700   14.0400 O.2    98  PHE98      -0.2715
     87  CB        22.3920   34.3030   15.0430 C.3    98  PHE98       0.0574
     88  CG        22.5510   32.8050   14.9960 C.ar   98  PHE98      -0.0200
     89  CD1       23.3770   32.2100   14.0550 C.ar   98  PHE98      -0.0042
     90  CD2       21.8790   31.9950   15.8970 C.ar   98  PHE98      -0.0042
     91  CE1       23.5280   30.8350   14.0120 C.ar   98  PHE98      -0.0003
     92  CE2       22.0250   30.6200   15.8580 C.ar   98  PHE98      -0.0003
     93  CZ        22.8510   30.0400   14.9150 C.ar   98  PHE98      -0.0000
     94  N         24.2500   37.3860   14.9660 N.am   99  GLY99      -0.1940
     95  CA        24.0540   38.8320   14.9150 C.3    99  GLY99       0.2014
     96  C         24.1080   39.4450   16.3120 C.2    99  GLY99       0.2639
     97  O         23.3930   39.0440   17.2240 O.2    99  GLY99      -0.2714
     98  N         24.9830   40.4390   16.4560 N.am  100  ALA100     -0.1963
     99  CA        25.0980   41.1570   17.7210 C.3   100  ALA100      0.1728
    100  C         23.8400   41.9420   18.0560 C.2   100  ALA100      0.2616
    101  O         23.6460   42.3110   19.2190 O.2   100  ALA100     -0.2715
    102  CB        26.2970   42.1000   17.6860 C.3   100  ALA100      0.0334
    103  N         22.9870   42.2110   17.0630 N.am  101  ILE101     -0.1963
    104  CA        21.7520   42.9510   17.3050 C.3   101  ILE101      0.1727
    105  C         20.8160   42.1650   18.2150 C.2   101  ILE101      0.2616
    106  O         20.0010   42.7520   18.9380 O.2   101  ILE101     -0.2715
    107  CB        21.0770   43.2940   15.9600 C.3   101  ILE101      0.0290
    108  CG1       19.8940   44.2420   16.1610 C.3   101  ILE101      0.0022
    109  CG2       20.6250   42.0270   15.2460 C.3   101  ILE101      0.0023
    110  CD1       20.2690   45.7030   16.0990 C.3   101  ILE101      0.0001
    111  N         20.9280   40.8340   18.2140 N.am  102  ASN102     -0.1958
    112  CA        19.9360   40.0050   18.8900 C.3   102  ASN102      0.1819
    113  C         20.0240   40.1200   20.4060 C.2   102  ASN102      0.2621
    114  O         19.0080   39.9710   21.0940 O.2   102  ASN102     -0.2715
    115  CB        20.0850   38.5510   18.4500 C.3   102  ASN102      0.1195
    116  CG        19.5690   38.3160   17.0430 C.2   102  ASN102      0.2630
    117  OD1       18.6520   39.0000   16.5870 O.2   102  ASN102     -0.2716
    118  ND2       20.1550   37.3490   16.3480 N.am  102  ASN102     -0.0877
    119  N         21.2160   40.3800   20.9480 N.am  103  GLU103     -0.1963
    120  CA        21.3170   40.6010   22.3860 C.3   103  GLU103      0.1733
    121  C         20.6730   41.9220   22.7880 C.2   103  GLU103      0.2616
    122  O         20.1770   42.0520   23.9120 O.2   103  GLU103     -0.2715
    123  CB        22.7810   40.5520   22.8280 C.3   103  GLU103      0.0429
    124  CG        23.0020   40.6800   24.3340 C.3   103  GLU103      0.1163
    125  CD        22.4900   39.4830   25.1220 C.2   103  GLU103      0.3649
    126  OE1       22.4540   39.5670   26.3680 O.co2 103  GLU103     -0.2457
    127  OE2       22.1280   38.4590   24.5050 O.co2 103  GLU103     -0.2457
    128  N         20.6630   42.9060   21.8860 N.am  104  PHE104     -0.1974
    129  CA        19.9330   44.1410   22.1520 C.3   104  PHE104      0.1639
    130  C         18.4300   43.9290   22.0160 C.2   104  PHE104      0.2290
    131  O         17.6440   44.5200   22.7660 O.2   104  PHE104     -0.2864
    132  CB        20.4100   45.2480   21.2120 C.3   104  PHE104      0.0560
    133  CG        21.7770   45.7780   21.5410 C.ar  104  PHE104     -0.0200
    134  CD1       21.9260   46.8860   22.3590 C.ar  104  PHE104     -0.0042
    135  CD2       22.9130   45.1680   21.0340 C.ar  104  PHE104     -0.0042
    136  CE1       23.1820   47.3780   22.6640 C.ar  104  PHE104     -0.0003
    137  CE2       24.1730   45.6550   21.3360 C.ar  104  PHE104     -0.0003
    138  CZ        24.3070   46.7610   22.1520 C.ar  104  PHE104     -0.0000
    139  N         21.5650   43.9160    5.2890 N.3   161  GLY161     -0.1210
    140  CA        22.9530   43.5970    5.0290 C.3   161  GLY161      0.1956
    141  C         23.3260   42.1450    5.2170 C.2   161  GLY161      0.2612
    142  O         24.5110   41.8090    5.1270 O.2   161  GLY161     -0.2717
    143  N         22.3570   41.2720    5.4740 N.am  162  ALA162     -0.1965
    144  CA        22.6230   39.8580    5.6790 C.3   162  ALA162      0.1728
    145  C         22.5260   39.0990    4.3620 C.2   162  ALA162      0.2616
    146  O         21.7750   39.4750    3.4580 O.2   162  ALA162     -0.2715
    147  CB        21.6470   39.2640    6.6960 C.3   162  ALA162      0.0334
    148  N         23.2960   38.0210    4.2640 N.am  163  GLY163     -0.1955
    149  CA        23.3100   37.2050    3.0730 C.3   163  GLY163      0.1869
    150  C         22.0770   36.3380    2.9620 C.2   163  GLY163      0.2309
    151  O         21.2650   36.2150    3.8930 O.2   163  GLY163     -0.2863
    152  N         21.8300   33.2370    3.0750 N.3   165  ASP165     -0.1225
    153  CA        21.8510   32.1060    3.9940 C.3   165  ASP165      0.1805
    154  C         21.1380   32.3960    5.3070 C.2   165  ASP165      0.2597
    155  O         20.8560   31.4560    6.0570 O.2   165  ASP165     -0.2718
    156  CB        23.2930   31.6930    4.2910 C.3   165  ASP165      0.1424
    157  CG        24.0460   32.7410    5.0910 C.2   165  ASP165      0.3668
    158  OD1       24.2680   33.8510    4.5630 O.co2 165  ASP165     -0.2456
    159  OD2       24.3990   32.4590    6.2550 O.co2 165  ASP165     -0.2456
    160  N         20.8400   33.6620    5.6010 N.am  166  ALA166     -0.1979
    161  CA        20.2950   34.0400    6.8970 C.3   166  ALA166      0.1597
    162  C         18.7880   33.8510    7.0030 C.2   166  ALA166      0.2287
    163  O         18.2400   34.0230    8.0960 O.2   166  ALA166     -0.2864
    164  CB        20.6460   35.4970    7.2070 C.3   166  ALA166      0.0319
    165  N         16.1900   32.3440    8.0920 N.3   168  THR168     -0.1218
    166  CA        15.9030   31.2380    9.0020 C.3   168  THR168      0.1862
    167  C         14.5270   30.6340    8.7480 C.2   168  THR168      0.2287
    168  O         14.3350   29.4270    8.9430 O.2   168  THR168     -0.2866
    169  CB        16.0140   31.7200   10.4520 C.3   168  THR168      0.1770
    170  OG1       17.3290   32.2420   10.6810 O.3   168  THR168     -0.2211
    171  CG2       15.7550   30.5830   11.4300 C.3   168  THR168      0.0375
    172  N         13.7430   27.2290    7.0260 N.3   171  HIS171     -0.1241
    173  CA        13.8120   25.9290    7.6810 C.3   171  HIS171      0.1621
    174  C         12.4370   25.3080    7.8690 C.2   171  HIS171      0.2264
    175  O         12.3400   24.0860    8.0260 O.2   171  HIS171     -0.2867
    176  CB        14.5150   26.0500    9.0310 C.3   171  HIS171      0.0745
    177  CG        15.9800   26.3190    8.9200 C.ar  171  HIS171      0.0817
    178  ND1       16.8200   25.5430    8.1500 N.ar  171  HIS171     -0.2268
    179  CD2       16.7550   27.2760    9.4780 C.ar  171  HIS171      0.1154
    180  CE1       18.0510   26.0130    8.2390 C.ar  171  HIS171      0.1986
    181  NE2       18.0380   27.0640    9.0390 N.ar  171  HIS171     -0.2212
    182  N         19.0990   26.6450    2.4490 N.3   223  VAL223     -0.1245
    183  CA        18.5340   27.9720    2.6850 C.3   223  VAL223      0.1561
    184  C         19.1240   28.9830    1.7100 C.2   223  VAL223      0.2260
    185  O         18.4050   29.7970    1.1200 O.2   223  VAL223     -0.2867
    186  CB        18.7600   28.3970    4.1470 C.3   223  VAL223      0.0252
    187  CG1       18.3350   29.8430    4.3510 C.3   223  VAL223      0.0019
    188  CG2       18.0000   27.4770    5.0880 C.3   223  VAL223      0.0019
@<TRIPOS>BOND
     1   185   184    2
     2   184   183    1
     3   182   183    1
     4   183   186    1
     5   150   149    1
     6   150   151    2
     7   149   148    1
     8   152   153    1
     9   146   145    2
    10   153   156    1
    11   153   154    1
    12   186   187    1
    13   186   188    1
    14   148   145   am
    15   156   157    1
    16   145   144    1
    17   158   157   ar
    18   140   141    1
    19   140   139    1
    20   157   159   ar
    21   142   141    2
    22   141   143   am
    23   154   160   am
    24   154   155    2
    25   143   144    1
    26   160   161    1
    27   144   147    1
    28   161   162    1
    29   161   164    1
    30   162   163    2
    31   172   173    1
    32   173   174    1
    33   173   176    1
    34   174   175    2
    35   165   166    1
    36   178   180   ar
    37   178   177   ar
    38   180   181   ar
    39    30    29    1
    40    29    26    1
    41    42    41    2
    42    11    10    2
    43    15    13   ar
    44    15    17   ar
    45   167   168    2
    46   167   166    1
    47    12    13    1
    48    12     9    1
    49   177   176    1
    50   177   179   ar
    51    41    40    1
    52   166   169    1
    53   181   179   ar
    54    13    14   ar
    55    17    16   ar
    56    28    27    2
    57    10     9    1
    58    10    18   am
    59    25    26    1
    60    25    20   am
    61    26    27    1
    62     9     8    1
    63     8     3   am
    64    43    40    1
    65    43    44    1
    66    14    16   ar
    67    27    31   am
    68    40    39    1
    69   169   170    1
    70   169   171    1
    71    19    20    1
    72    19    18    1
    73    19    22    1
    74    20    21    2
    75    39    33   am
    76    45    44    1
    77    45    46    1
    78     2     3    1
    79     2     1    1
    80     2     5    1
    81     3     4    2
    82    34    33    2
    83    33    32    1
    84    31    32    1
    85    23    22    1
    86     1     7    1
    87    22    24    1
    88     5     6    1
    89    32    35    1
    90    46    47    2
    91    48    47    1
    92    47    49    1
    93     7     6    1
    94    82    81    2
    95    35    36    1
    96    91    89   ar
    97    91    93   ar
    98    86    85    2
    99    89    88   ar
   100    38    36    1
   101    67    69   ar
   102    67    66   ar
   103    36    37    1
   104    69    71   ar
   105    85    84    1
   106    85    94   am
   107    84    87    1
   108    84    83    1
   109    81    83   am
   110    81    80    1
   111    65    66    1
   112    65    62    1
   113    95    94    1
   114    95    96    1
   115    93    92   ar
   116    88    87    1
   117    88    90   ar
   118    66    68   ar
   119   109   107    1
   120    71    70   ar
   121    61    62    1
   122    80    79    1
   123    92    90   ar
   124   107   108    1
   125   107   104    1
   126    62    63    1
   127    64    63    2
   128   110   108    1
   129    68    70   ar
   130    96    98   am
   131    96    97    2
   132   118   116   am
   133    98    99    1
   134   117   116    2
   135    75    74    2
   136   116   115    1
   137   103   104    1
   138   103   100   am
   139    79    74   am
   140   104   105    1
   141    74    73    1
   142   102    99    1
   143    99   100    1
   144    53    52    2
   145    57    56    2
   146    55    58    1
   147    55    54    1
   148    55    56    1
   149   100   101    2
   150   111   105   am
   151   111   112    1
   152   105   106    2
   153    58    59    1
   154    52    54   am
   155    52    51    1
   156   115   112    1
   157    54    60    1
   158    59    60    1
   159   112   113    1
   160    51    50    1
   161    73    76    1
   162    73    72    1
   163    76    77    1
   164    72    78    1
   165   113   119   am
   166   113   114    2
   167    78    77    1
   168   119   120    1
   169   135   137   ar
   170   135   133   ar
   171   132   133    1
   172   132   129    1
   173   137   138   ar
   174   133   134   ar
   175   128   129    1
   176   128   121   am
   177   130   129    1
   178   130   131    2
   179   138   136   ar
   180   134   136   ar
   181   120   121    1
   182   120   123    1
   183   121   122    2
   184   123   124    1
   185   124   125    1
   186   127   125   ar
   187   125   126   ar
