@<TRIPOS>MOLECULE
tmp/6bc3A01.pdb
 181 174 0 0 0
SMALL
GASTEIGER

@<TRIPOS>ATOM
      1  N         15.3630   35.2430   15.6370 N.3    59  PHE59      -0.1241
      2  CA        16.0030   33.9860   16.0190 C.3    59  PHE59       0.1605
      3  C         17.3080   34.3260   16.7240 C.2    59  PHE59       0.2264
      4  O         18.3100   34.6550   16.0850 O.2    59  PHE59      -0.2867
      5  CB        16.2310   33.1000   14.8000 C.3    59  PHE59       0.0534
      6  CG        17.0440   31.8660   15.0860 C.ar   59  PHE59      -0.0203
      7  CD1       18.0060   31.4350   14.1870 C.ar   59  PHE59      -0.0042
      8  CD2       16.8530   31.1420   16.2510 C.ar   59  PHE59      -0.0042
      9  CE1       18.7570   30.3030   14.4420 C.ar   59  PHE59      -0.0003
     10  CE2       17.6040   30.0120   16.5140 C.ar   59  PHE59      -0.0003
     11  CZ        18.5570   29.5920   15.6070 C.ar   59  PHE59      -0.0000
     12  N         18.5770   32.3070   19.5760 N.3    61  SER61      -0.1202
     13  CA        19.2170   31.0570   20.0290 C.3    61  SER61       0.2020
     14  C         19.8080   31.3030   21.4210 C.2    61  SER61       0.2618
     15  O         19.2130   32.0360   22.2260 O.2    61  SER61      -0.2717
     16  CB        20.2100   30.5860   18.9840 C.3    61  SER61       0.2103
     17  OG        20.7790   29.3440   19.3540 O.3    61  SER61      -0.2182
     18  N         20.9620   30.7160   21.7330 N.am   62  TRP62      -0.1975
     19  CA        21.5530   30.7870   23.0630 C.3    62  TRP62       0.1640
     20  C         23.0630   30.6930   22.9180 C.2    62  TRP62       0.2290
     21  O         23.5630   29.8290   22.1920 O.2    62  TRP62      -0.2864
     22  CB        21.0190   29.6570   23.9520 C.3    62  TRP62       0.0576
     23  CG        21.5690   29.6090   25.3490 C.ar   62  TRP62       0.0006
     24  CD1       22.1650   30.6250   26.0400 C.ar   62  TRP62       0.0946
     25  CD2       21.5690   28.4750   26.2240 C.ar   62  TRP62       0.0152
     26  NE1       22.5350   30.1910   27.2920 N.ar   62  TRP62      -0.2442
     27  CE2       22.1800   28.8750   27.4280 C.ar   62  TRP62       0.0810
     28  CE3       21.1100   27.1590   26.1040 C.ar   62  TRP62       0.0012
     29  CZ2       22.3440   28.0060   28.5060 C.ar   62  TRP62       0.0191
     30  CZ3       21.2740   26.2990   27.1740 C.ar   62  TRP62       0.0001
     31  CH2       21.8860   26.7250   28.3590 C.ar   62  TRP62       0.0015
     32  N         24.4160   27.1480   24.1520 N.3    65  SER65      -0.1217
     33  CA        23.6190   25.9810   23.7890 C.3    65  SER65       0.1889
     34  C         24.5180   24.7580   23.6510 C.2    65  SER65       0.2288
     35  O         25.4910   24.7940   22.8890 O.2    65  SER65      -0.2866
     36  CB        22.8660   26.2320   22.4850 C.3    65  SER65       0.2089
     37  OG        22.1980   25.0600   22.0520 O.3    65  SER65      -0.2183
     38  N         24.7210   22.1980   21.8900 N.3    67  TYR67      -0.1227
     39  CA        24.3440   21.4880   20.6720 C.3    67  TYR67       0.1736
     40  C         25.3930   20.4490   20.2940 C.2    67  TYR67       0.2595
     41  O         25.1100   19.2460   20.2600 O.2    67  TYR67      -0.2718
     42  CB        24.1280   22.4900   19.5350 C.3    67  TYR67       0.0548
     43  CG        23.5490   21.8890   18.2730 C.ar   67  TYR67      -0.0200
     44  CD1       22.1780   21.7240   18.1240 C.ar   67  TYR67      -0.0009
     45  CD2       24.3730   21.4970   17.2250 C.ar   67  TYR67      -0.0009
     46  CE1       21.6440   21.1800   16.9690 C.ar   67  TYR67       0.0417
     47  CE2       23.8480   20.9530   16.0680 C.ar   67  TYR67       0.0417
     48  CZ        22.4840   20.7960   15.9450 C.ar   67  TYR67       0.1957
     49  OH        21.9590   20.2550   14.7940 O.3    67  TYR67      -0.2866
     50  N         26.6180   20.8970   20.0050 N.am   68  GLU68      -0.1979
     51  CA        27.6740   19.9600   19.6340 C.3    68  GLU68       0.1602
     52  C         28.0480   19.0450   20.7920 C.2    68  GLU68       0.2287
     53  O         28.4480   17.8970   20.5670 O.2    68  GLU68      -0.2864
     54  CB        28.9120   20.7140   19.1460 C.3    68  GLU68       0.0415
     55  CG        28.6830   21.6050   17.9350 C.3    68  GLU68       0.1163
     56  CD        28.5110   23.0640   18.3090 C.2    68  GLU68       0.3649
     57  OE1       28.0580   23.3430   19.4400 O.co2  68  GLU68      -0.2457
     58  OE2       28.8370   23.9350   17.4740 O.co2  68  GLU68      -0.2457
     59  N         22.9740   33.8830   20.9380 N.3    95  TYR95      -0.1241
     60  CA        24.1440   33.3560   20.2460 C.3    95  TYR95       0.1605
     61  C         24.7850   34.4640   19.4210 C.2    95  TYR95       0.2264
     62  O         24.1450   34.9850   18.4970 O.2    95  TYR95      -0.2867
     63  CB        23.7570   32.1800   19.3550 C.3    95  TYR95       0.0534
     64  CG        24.9420   31.4730   18.7370 C.ar   95  TYR95      -0.0201
     65  CD1       25.7430   30.6310   19.4980 C.ar   95  TYR95      -0.0009
     66  CD2       25.2590   31.6440   17.3960 C.ar   95  TYR95      -0.0009
     67  CE1       26.8290   29.9830   18.9430 C.ar   95  TYR95       0.0417
     68  CE2       26.3430   30.9980   16.8300 C.ar   95  TYR95       0.0417
     69  CZ        27.1250   30.1700   17.6100 C.ar   95  TYR95       0.1957
     70  OH        28.2060   29.5240   17.0560 O.3    95  TYR95      -0.2866
     71  N         24.7860   34.7370   15.3050 N.3    98  PHE98      -0.1241
     72  CA        23.6090   35.0690   14.5170 C.3    98  PHE98       0.1605
     73  C         23.3190   36.5640   14.4940 C.2    98  PHE98       0.2264
     74  O         22.2440   36.9700   14.0400 O.2    98  PHE98      -0.2867
     75  CB        22.3920   34.3030   15.0430 C.3    98  PHE98       0.0534
     76  CG        22.5510   32.8050   14.9960 C.ar   98  PHE98      -0.0203
     77  CD1       23.3770   32.2100   14.0550 C.ar   98  PHE98      -0.0042
     78  CD2       21.8790   31.9950   15.8970 C.ar   98  PHE98      -0.0042
     79  CE1       23.5280   30.8350   14.0120 C.ar   98  PHE98      -0.0003
     80  CE2       22.0250   30.6200   15.8580 C.ar   98  PHE98      -0.0003
     81  CZ        22.8510   30.0400   14.9150 C.ar   98  PHE98      -0.0000
     82  N         18.0560   25.8980   21.9620 N.3   118  ASP118     -0.1239
     83  CA        18.8860   26.0280   20.7700 C.3   118  ASP118      0.1674
     84  C         18.2210   26.8590   19.6790 C.2   118  ASP118      0.2266
     85  O         18.9030   27.6130   18.9760 O.2   118  ASP118     -0.2867
     86  CB        19.2470   24.6450   20.2220 C.3   118  ASP118      0.1410
     87  CG        20.3080   24.7110   19.1410 C.2   118  ASP118      0.3668
     88  OD1       21.4770   25.0050   19.4710 O.co2 118  ASP118     -0.2456
     89  OD2       19.9740   24.4740   17.9620 O.co2 118  ASP118     -0.2456
     90  N         11.8150   24.6470   14.0540 N.3   141  TYR141     -0.1241
     91  CA        11.4910   25.6160   13.0170 C.3   141  TYR141      0.1605
     92  C         10.3270   25.2030   12.1260 C.2   141  TYR141      0.2264
     93  O          9.9640   25.9670   11.2240 O.2   141  TYR141     -0.2867
     94  CB        12.7230   25.8860   12.1390 C.3   141  TYR141      0.0534
     95  CG        13.9910   26.1070   12.9300 C.ar  141  TYR141     -0.0201
     96  CD1       14.9510   25.1090   13.0330 C.ar  141  TYR141     -0.0009
     97  CD2       14.2220   27.3080   13.5870 C.ar  141  TYR141     -0.0009
     98  CE1       16.1090   25.3040   13.7620 C.ar  141  TYR141      0.0417
     99  CE2       15.3760   27.5130   14.3180 C.ar  141  TYR141      0.0417
    100  CZ        16.3160   26.5070   14.4020 C.ar  141  TYR141      0.1957
    101  OH        17.4670   26.7040   15.1290 O.3   141  TYR141     -0.2866
    102  N         21.8300   33.2370    3.0750 N.3   165  ASP165     -0.1225
    103  CA        21.8510   32.1060    3.9940 C.3   165  ASP165      0.1805
    104  C         21.1380   32.3960    5.3070 C.2   165  ASP165      0.2597
    105  O         20.8560   31.4560    6.0570 O.2   165  ASP165     -0.2718
    106  CB        23.2930   31.6930    4.2910 C.3   165  ASP165      0.1424
    107  CG        24.0460   32.7410    5.0910 C.2   165  ASP165      0.3668
    108  OD1       24.2680   33.8510    4.5630 O.co2 165  ASP165     -0.2456
    109  OD2       24.3990   32.4590    6.2550 O.co2 165  ASP165     -0.2456
    110  N         20.8400   33.6620    5.6010 N.am  166  ALA166     -0.1979
    111  CA        20.2950   34.0400    6.8970 C.3   166  ALA166      0.1597
    112  C         18.7880   33.8510    7.0030 C.2   166  ALA166      0.2287
    113  O         18.2400   34.0230    8.0960 O.2   166  ALA166     -0.2864
    114  CB        20.6460   35.4970    7.2070 C.3   166  ALA166      0.0319
    115  N         16.1900   32.3440    8.0920 N.3   168  THR168     -0.1218
    116  CA        15.9030   31.2380    9.0020 C.3   168  THR168      0.1862
    117  C         14.5270   30.6340    8.7480 C.2   168  THR168      0.2287
    118  O         14.3350   29.4270    8.9430 O.2   168  THR168     -0.2866
    119  CB        16.0140   31.7200   10.4520 C.3   168  THR168      0.1770
    120  OG1       17.3290   32.2420   10.6810 O.3   168  THR168     -0.2211
    121  CG2       15.7550   30.5830   11.4300 C.3   168  THR168      0.0375
    122  N         13.7430   27.2290    7.0260 N.3   171  HIS171     -0.1241
    123  CA        13.8120   25.9290    7.6810 C.3   171  HIS171      0.1621
    124  C         12.4370   25.3080    7.8690 C.2   171  HIS171      0.2264
    125  O         12.3400   24.0860    8.0260 O.2   171  HIS171     -0.2867
    126  CB        14.5150   26.0500    9.0310 C.3   171  HIS171      0.0745
    127  CG        15.9800   26.3190    8.9200 C.ar  171  HIS171      0.0817
    128  ND1       16.8200   25.5430    8.1500 N.ar  171  HIS171     -0.2268
    129  CD2       16.7550   27.2760    9.4780 C.ar  171  HIS171      0.1154
    130  CE1       18.0510   26.0130    8.2390 C.ar  171  HIS171      0.1986
    131  NE2       18.0380   27.0640    9.0390 N.ar  171  HIS171     -0.2212
    132  N         19.1110   21.5650   10.9740 N.3   207  SER207     -0.1202
    133  CA        19.0690   22.9670   10.5790 C.3   207  SER207      0.2020
    134  C         20.3360   23.4170    9.8640 C.2   207  SER207      0.2618
    135  O         20.4150   24.5780    9.4490 O.2   207  SER207     -0.2717
    136  CB        18.8180   23.8510   11.8030 C.3   207  SER207      0.2103
    137  OG        19.9010   23.7880   12.7140 O.3   207  SER207     -0.2182
    138  N         21.3250   22.5360    9.7170 N.am  208  ASN208     -0.1974
    139  CA        22.5290   22.8150    8.9470 C.3   208  ASN208      0.1688
    140  C         22.4870   22.1810    7.5610 C.2   208  ASN208      0.2292
    141  O         23.5390   21.9510    6.9580 O.2   208  ASN208     -0.2864
    142  CB        23.7650   22.3410    9.7120 C.3   208  ASN208      0.1181
    143  CG        24.1230   23.2560   10.8670 C.2   208  ASN208      0.2629
    144  OD1       24.2460   24.4690   10.6960 O.2   208  ASN208     -0.2716
    145  ND2       24.2820   22.6790   12.0520 N.am  208  ASN208     -0.0877
    146  N         24.4410   19.9670    3.1330 N.3   215  ALA215     -0.1231
    147  CA        24.9330   19.9910    4.5030 C.3   215  ALA215      0.1694
    148  C         26.4470   20.0940    4.6090 C.2   215  ALA215      0.2592
    149  O         26.9700   20.1530    5.7280 O.2   215  ALA215     -0.2718
    150  CB        24.4500   18.7480    5.2570 C.3   215  ALA215      0.0304
    151  N         27.1650   20.0990    3.4930 N.am  216  ALA216     -0.1966
    152  CA        28.6000   20.3350    3.5460 C.3   216  ALA216      0.1713
    153  C         28.8480   21.7280    4.1070 C.2   216  ALA216      0.2458
    154  O         28.1510   22.6780    3.7290 O.2   216  ALA216     -0.2730
    155  CB        29.2250   20.1990    2.1600 C.3   216  ALA216      0.0333
    156  N         29.7990   21.8980    5.0330 N.am  217  PRO217     -0.2727
    157  CA        30.0160   23.2110    5.6440 C.3   217  PRO217      0.1402
    158  C         30.8280   24.1870    4.8050 C.2   217  PRO217      0.2269
    159  O         31.1990   25.2440    5.3230 O.2   217  PRO217     -0.2865
    160  CB        30.7660   22.8570    6.9380 C.3   217  PRO217      0.0296
    161  CG        31.4890   21.6030    6.6160 C.3   217  PRO217      0.0237
    162  CD        30.5830   20.8370    5.6890 C.3   217  PRO217      0.0939
    163  N         30.3060   25.0900    0.9390 N.3   219  GLY219     -0.1225
    164  CA        29.1360   24.7250    1.7170 C.3   219  GLY219      0.1811
    165  C         27.8970   25.6060    1.7340 C.2   219  GLY219      0.2280
    166  O         27.4040   25.9260    2.8120 O.2   219  GLY219     -0.2866
    167  N         24.1610   25.9980    1.8870 N.3   221  ASP221     -0.1239
    168  CA        23.1140   25.0930    2.3330 C.3   221  ASP221      0.1674
    169  C         21.8530   25.2850    1.4930 C.2   221  ASP221      0.2266
    170  O         21.8170   26.0720    0.5430 O.2   221  ASP221     -0.2867
    171  CB        22.8440   25.2950    3.8240 C.3   221  ASP221      0.1410
    172  CG        22.4870   26.7290    4.1690 C.2   221  ASP221      0.3668
    173  OD1       22.1750   26.9910    5.3510 O.co2 221  ASP221     -0.2456
    174  OD2       22.5020   27.5910    3.2650 O.co2 221  ASP221     -0.2456
    175  N         19.0990   26.6450    2.4490 N.3   223  VAL223     -0.1245
    176  CA        18.5340   27.9720    2.6850 C.3   223  VAL223      0.1561
    177  C         19.1240   28.9830    1.7100 C.2   223  VAL223      0.2260
    178  O         18.4050   29.7970    1.1200 O.2   223  VAL223     -0.2867
    179  CB        18.7600   28.3970    4.1470 C.3   223  VAL223      0.0252
    180  CG1       18.3350   29.8430    4.3510 C.3   223  VAL223      0.0019
    181  CG2       18.0000   27.4770    5.0880 C.3   223  VAL223      0.0019
@<TRIPOS>BOND
     1   170   169    2
     2   163   164    1
     3   178   177    2
     4   169   168    1
     5   177   176    1
     6   164   165    1
     7   165   166    2
     8   167   168    1
     9   155   152    1
    10   168   171    1
    11   175   176    1
    12   176   179    1
    13   102   103    1
    14   146   147    1
    15   174   172   ar
    16   151   152    1
    17   151   148   am
    18   152   153    1
    19   154   153    2
    20   171   172    1
    21   103   106    1
    22   103   104    1
    23   153   156   am
    24   179   180    1
    25   179   181    1
    26   172   173   ar
    27   106   107    1
    28   147   148    1
    29   147   150    1
    30   108   107   ar
    31   148   149    2
    32   158   159    2
    33   158   157    1
    34   156   157    1
    35   156   162    1
    36   107   109   ar
    37   104   110   am
    38   104   105    2
    39   110   111    1
    40   157   160    1
    41   162   161    1
    42   161   160    1
    43   111   112    1
    44   111   114    1
    45   141   140    2
    46   112   113    2
    47   122   123    1
    48   140   139    1
    49   123   124    1
    50   123   126    1
    51   124   125    2
    52   115   116    1
    53   128   130   ar
    54   128   127   ar
    55   130   131   ar
    56   117   118    2
    57   117   116    1
    58   127   126    1
    59   127   129   ar
    60   139   142    1
    61   139   138    1
    62   116   119    1
    63   131   129   ar
    64   135   134    2
    65   142   143    1
    66   138   134   am
    67   134   133    1
    68   119   120    1
    69   119   121    1
    70   133   132    1
    71   133   136    1
    72   144   143    2
    73   143   145   am
    74    93    92    2
    75   136   137    1
    76    92    91    1
    77    94    95    1
    78    94    91    1
    79    95    96   ar
    80    95    97   ar
    81    91    90    1
    82    96    98   ar
    83    97    99   ar
    84    98   100   ar
    85    79    77   ar
    86    79    81   ar
    87    74    73    2
    88    77    76   ar
    89     7     9   ar
    90     7     6   ar
    91    99   100   ar
    92   100   101    1
    93     9    11   ar
    94    73    72    1
    95    72    75    1
    96    72    71    1
    97    49    48    1
    98     5     6    1
    99     5     2    1
   100    81    80   ar
   101    76    75    1
   102    76    78   ar
   103     6     8   ar
   104    11    10   ar
   105     1     2    1
   106    80    78   ar
   107    48    47   ar
   108    48    46   ar
   109     2     3    1
   110    47    45   ar
   111     4     3    2
   112     8    10   ar
   113    68    66   ar
   114    68    69   ar
   115    46    44   ar
   116    70    69    1
   117    45    43   ar
   118    66    64   ar
   119    58    56   ar
   120    69    67   ar
   121    55    56    1
   122    55    54    1
   123    89    87   ar
   124    44    43   ar
   125    43    42    1
   126    56    57   ar
   127    62    61    2
   128    64    63    1
   129    64    65   ar
   130    67    65   ar
   131    85    84    2
   132    16    17    1
   133    16    13    1
   134    87    88   ar
   135    87    86    1
   136    54    51    1
   137    63    60    1
   138    61    60    1
   139    42    39    1
   140    12    13    1
   141    51    50    1
   142    51    52    1
   143    84    83    1
   144    50    40   am
   145    13    14    1
   146    86    83    1
   147    60    59    1
   148    41    40    2
   149    40    39    1
   150    53    52    2
   151    39    38    1
   152    83    82    1
   153    14    18   am
   154    14    15    2
   155    18    19    1
   156    37    36    1
   157    21    20    2
   158    36    33    1
   159    35    34    2
   160    20    19    1
   161    19    22    1
   162    34    33    1
   163    33    32    1
   164    22    23    1
   165    23    24   ar
   166    23    25   ar
   167    24    26   ar
   168    28    25   ar
   169    28    30   ar
   170    25    27   ar
   171    30    31   ar
   172    26    27   ar
   173    27    29   ar
   174    31    29   ar
