@<TRIPOS>MOLECULE
tmp/6bcqC00.pdb
 107 107 0 0 0
SMALL
GASTEIGER

@<TRIPOS>ATOM
      1  N        160.0810  178.0000  180.8910 N.3   106  HIS106     -0.1241
      2  CA       160.6000  176.6500  181.0470 C.3   106  HIS106      0.1621
      3  C        160.7420  176.3420  182.5390 C.2   106  HIS106      0.2264
      4  O        161.2500  175.2880  182.9200 O.2   106  HIS106     -0.2867
      5  CB       161.9490  176.5040  180.3440 C.3   106  HIS106      0.0745
      6  CG       162.4770  175.1030  180.3360 C.ar  106  HIS106      0.0817
      7  ND1      163.2400  174.5890  181.3610 N.ar  106  HIS106     -0.2268
      8  CD2      162.3500  174.1090  179.4260 C.ar  106  HIS106      0.1154
      9  CE1      163.5620  173.3380  181.0840 C.ar  106  HIS106      0.1986
     10  NE2      163.0350  173.0220  179.9150 N.ar  106  HIS106     -0.2212
     11  N        156.9860  173.9790  182.5480 N.3   111  ARG111     -0.1245
     12  CA       157.8790  172.8900  182.1730 C.3   111  ARG111      0.1563
     13  C        157.1420  171.5570  182.1800 C.2   111  ARG111      0.2260
     14  O        157.1670  170.8200  181.1880 O.2   111  ARG111     -0.2867
     15  CB       159.0830  172.8670  183.1160 C.3   111  ARG111      0.0307
     16  CG       160.1640  171.8460  182.7860 C.3   111  ARG111      0.0489
     17  CD       160.0950  170.6390  183.7040 C.3   111  ARG111      0.2205
     18  NE       161.1780  169.6990  183.4510 N.pl3 111  ARG111     -0.0865
     19  CZ       161.2520  168.4890  183.9950 C.cat 111  ARG111      0.5346
     20  NH1      160.3120  168.0760  184.8290 N.pl3 111  ARG111      0.1354
     21  NH2      162.2650  167.6910  183.7040 N.pl3 111  ARG111      0.1354
     22  N        153.6190  167.4770  174.9950 N.3   118  ARG118     -0.1245
     23  CA       154.4620  166.7900  174.0220 C.3   118  ARG118      0.1563
     24  C        154.3490  165.2750  174.1580 C.2   118  ARG118      0.2260
     25  O        154.3260  164.5530  173.1510 O.2   118  ARG118     -0.2867
     26  CB       155.9080  167.2380  174.1980 C.3   118  ARG118      0.0307
     27  CG       156.8660  166.7100  173.1700 C.3   118  ARG118      0.0489
     28  CD       158.2630  167.1560  173.5200 C.3   118  ARG118      0.2205
     29  NE       158.7250  166.5290  174.7540 N.pl3 118  ARG118     -0.0865
     30  CZ       159.8210  166.8920  175.4070 C.cat 118  ARG118      0.5346
     31  NH1      160.5670  167.8860  174.9500 N.pl3 118  ARG118      0.1354
     32  NH2      160.1700  166.2680  176.5210 N.pl3 118  ARG118      0.1354
     33  N        166.6690  179.4730  171.8350 N.3   160  TRP160     -0.1227
     34  CA       166.4850  178.7350  173.0710 C.3   160  TRP160      0.1737
     35  C        167.7200  177.8800  173.3330 C.2   160  TRP160      0.2595
     36  O        168.6590  177.8630  172.5300 O.2   160  TRP160     -0.2718
     37  CB       165.2070  177.9030  173.0010 C.3   160  TRP160      0.0564
     38  CG       165.1450  176.9190  171.8760 C.ar  160  TRP160      0.0003
     39  CD1      164.8880  177.1940  170.5650 C.ar  160  TRP160      0.0946
     40  CD2      165.2340  175.4930  171.9710 C.ar  160  TRP160      0.0152
     41  NE1      164.8650  176.0370  169.8310 N.ar  160  TRP160     -0.2442
     42  CE2      165.0690  174.9770  170.6720 C.ar  160  TRP160      0.0810
     43  CE3      165.4520  174.6040  173.0250 C.ar  160  TRP160      0.0012
     44  CZ2      165.1230  173.6150  170.3990 C.ar  160  TRP160      0.0191
     45  CZ3      165.5130  173.2480  172.7500 C.ar  160  TRP160      0.0001
     46  CH2      165.3440  172.7690  171.4500 C.ar  160  TRP160      0.0015
     47  N        167.7590  177.2700  174.5310 N.am  161  ARG161     -0.1980
     48  CA       168.7480  176.2820  174.9870 C.3   161  ARG161      0.1597
     49  C        170.1310  176.9010  175.2550 C.2   161  ARG161      0.2287
     50  O        171.0180  176.2480  175.8170 O.2   161  ARG161     -0.2864
     51  CB       168.8070  175.1140  173.9780 C.3   161  ARG161      0.0334
     52  CG       169.6130  173.8780  174.3110 C.3   161  ARG161      0.0492
     53  CD       169.5070  172.9010  173.1720 C.3   161  ARG161      0.2205
     54  NE       170.5190  171.8610  173.2650 N.pl3 161  ARG161     -0.0865
     55  CZ       170.3730  170.7210  173.9240 C.cat 161  ARG161      0.5346
     56  NH1      171.3690  169.8540  173.9390 N.pl3 161  ARG161      0.1354
     57  NH2      169.2480  170.4490  174.5690 N.pl3 161  ARG161      0.1354
     58  N        173.1700  179.3050  179.7740 N.3   164  PRO164     -0.2116
     59  CA       172.5630  178.8120  181.0190 C.3   164  PRO164      0.1372
     60  C        172.9240  179.6430  182.2420 C.2   164  PRO164      0.2244
     61  O        174.0460  179.5810  182.7540 O.2   164  PRO164     -0.2868
     62  CB       173.1030  177.3800  181.1240 C.3   164  PRO164      0.0268
     63  CG       174.3920  177.4050  180.3790 C.3   164  PRO164      0.0207
     64  CD       174.2220  178.4000  179.2730 C.3   164  PRO164      0.0892
     65  N        164.0090  181.2940  179.7560 N.3   171  PRO171     -0.2102
     66  CA       163.6080  181.1820  178.3510 C.3   171  PRO171      0.1504
     67  C        162.1320  180.8290  178.2250 C.2   171  PRO171      0.2576
     68  O        161.3850  180.7690  179.2030 O.2   171  PRO171     -0.2718
     69  CB       164.4810  180.0440  177.8270 C.3   171  PRO171      0.0282
     70  CG       164.6850  179.1810  179.0260 C.3   171  PRO171      0.0208
     71  CD       164.7840  180.1230  180.2010 C.3   171  PRO171      0.0893
     72  N        161.7230  180.5800  176.9850 N.am  172  LEU172     -0.1966
     73  CA       160.3490  180.2000  176.6950 C.3   172  LEU172      0.1728
     74  C        160.2460  178.7140  176.3860 C.2   172  LEU172      0.2616
     75  O        161.1580  178.1170  175.8090 O.2   172  LEU172     -0.2715
     76  CB       159.7930  180.9990  175.5170 C.3   172  LEU172      0.0311
     77  CG       159.6570  182.5020  175.7270 C.3   172  LEU172      0.0022
     78  CD1      159.0670  183.1510  174.4850 C.3   172  LEU172      0.0001
     79  CD2      158.8250  182.8020  176.9560 C.3   172  LEU172      0.0001
     80  N        159.1240  178.1250  176.7780 N.am  173  ASP173     -0.1957
     81  CA       158.8130  176.7610  176.3850 C.3   173  ASP173      0.1840
     82  C        158.3250  176.7600  174.9420 C.2   173  ASP173      0.2622
     83  O        157.5170  177.6060  174.5490 O.2   173  ASP173     -0.2715
     84  CB       157.7580  176.1820  177.3290 C.3   173  ASP173      0.1450
     85  CG       157.5600  174.6820  177.1700 C.2   173  ASP173      0.3671
     86  OD1      158.1750  174.0490  176.2900 O.co2 173  ASP173     -0.2456
     87  OD2      156.7730  174.1190  177.9520 O.co2 173  ASP173     -0.2456
     88  N        158.8170  175.8090  174.1500 N.am  174  TYR174     -0.1960
     89  CA       158.4290  175.7200  172.7490 C.3   174  TYR174      0.1771
     90  C        157.1920  174.8650  172.5350 C.2   174  TYR174      0.2619
     91  O        156.9370  174.4410  171.4040 O.2   174  TYR174     -0.2715
     92  CB       159.5960  175.1940  171.9050 C.3   174  TYR174      0.0574
     93  CG       160.0160  173.7670  172.1610 C.ar  174  TYR174     -0.0198
     94  CD1      160.8740  173.4530  173.2050 C.ar  174  TYR174     -0.0009
     95  CD2      159.6110  172.7430  171.3140 C.ar  174  TYR174     -0.0009
     96  CE1      161.2740  172.1510  173.4340 C.ar  174  TYR174      0.0417
     97  CE2      160.0070  171.4400  171.5310 C.ar  174  TYR174      0.0417
     98  CZ       160.8400  171.1510  172.5890 C.ar  174  TYR174      0.1957
     99  OH       161.2360  169.8540  172.8040 O.3   174  TYR174     -0.2866
    100  N        156.4150  174.6220  173.5870 N.am  175  ASN175     -0.1972
    101  CA       155.2030  173.8270  173.5220 C.3   175  ASN175      0.1688
    102  C        153.9440  174.6700  173.6510 C.2   175  ASN175      0.2292
    103  O        152.9590  174.2090  174.2320 O.2   175  ASN175     -0.2864
    104  CB       155.2350  172.7610  174.6120 C.3   175  ASN175      0.1181
    105  CG       156.3140  171.7440  174.3790 C.2   175  ASN175      0.2629
    106  OD1      156.4860  171.2550  173.2640 O.2   175  ASN175     -0.2716
    107  ND2      157.0750  171.4380  175.4220 N.am  175  ASN175     -0.0877
@<TRIPOS>BOND
     1    41    39   ar
     2    41    42   ar
     3    44    42   ar
     4    44    46   ar
     5    39    38   ar
     6    42    40   ar
     7    95    97   ar
     8    95    93   ar
     9    91    90    2
    10    46    45   ar
    11    97    98   ar
    12    33    34    1
    13    38    40   ar
    14    38    37    1
    15    92    93    1
    16    92    89    1
    17    40    43   ar
    18    93    94   ar
    19    36    35    2
    20    90    89    1
    21    90   100   am
    22    98    99    1
    23    98    96   ar
    24    89    88    1
    25    45    43   ar
    26    37    34    1
    27    34    35    1
    28    25    24    2
    29    27    28    1
    30    27    26    1
    31    53    54    1
    32    53    52    1
    33    94    96   ar
    34   106   105    2
    35    54    55    2
    36    35    47   am
    37    28    29    1
    38   101   100    1
    39   101   102    1
    40   101   104    1
    41   102   103    2
    42    55    56    1
    43    55    57    1
    44    51    52    1
    45    51    48    1
    46    23    24    1
    47    23    26    1
    48    23    22    1
    49    88    82   am
    50   105   104    1
    51   105   107   am
    52    78    77    1
    53    47    48    1
    54    83    82    2
    55    29    30    2
    56    82    81    1
    57    31    30    1
    58    48    49    1
    59    49    50    2
    60    30    32    1
    61    76    77    1
    62    76    73    1
    63    77    79    1
    64    75    74    2
    65    86    85   ar
    66    81    80    1
    67    81    84    1
    68    74    73    1
    69    74    80   am
    70    73    72    1
    71    72    67   am
    72    85    84    1
    73    85    87   ar
    74    69    66    1
    75    69    70    1
    76    67    66    1
    77    67    68    2
    78    66    65    1
    79    70    71    1
    80    64    58    1
    81    64    63    1
    82     8    10   ar
    83     8     6   ar
    84    65    71    1
    85    58    59    1
    86    10     9   ar
    87     6     5    1
    88     6     7   ar
    89     5     2    1
    90    63    62    1
    91     1     2    1
    92    59    62    1
    93    59    60    1
    94     2     3    1
    95     9     7   ar
    96    14    13    2
    97    12    13    1
    98    12    11    1
    99    12    15    1
   100    60    61    2
   101     3     4    2
   102    16    15    1
   103    16    17    1
   104    18    17    1
   105    18    19    2
   106    21    19    1
   107    19    20    1
