@<TRIPOS>MOLECULE
tmp/6bcsA01.pdb
 88 86 0 0 0
SMALL
GASTEIGER

@<TRIPOS>ATOM
      1  N        -35.0220    5.6650  -14.7910 N.3    37  TYR37      -0.1227
      2  CA       -36.0610    5.9040  -13.7940 C.3    37  TYR37       0.1736
      3  C        -35.4580    6.4670  -12.5150 C.2    37  TYR37       0.2595
      4  O        -34.2870    6.2330  -12.2060 O.2    37  TYR37      -0.2718
      5  CB       -36.8330    4.6290  -13.4280 C.3    37  TYR37       0.0548
      6  CG       -37.4590    3.9580  -14.6080 C.ar   37  TYR37      -0.0200
      7  CD1      -36.7260    3.0600  -15.3740 C.ar   37  TYR37      -0.0009
      8  CD2      -38.7800    4.2090  -14.9620 C.ar   37  TYR37      -0.0009
      9  CE1      -37.2890    2.4300  -16.4700 C.ar   37  TYR37       0.0417
     10  CE2      -39.3490    3.5850  -16.0610 C.ar   37  TYR37       0.0417
     11  CZ       -38.5900    2.6970  -16.8090 C.ar   37  TYR37       0.1957
     12  OH       -39.1150    2.0610  -17.8980 O.3    37  TYR37      -0.2866
     13  N        -36.2810    7.2070  -11.7790 N.am   38  ARG38      -0.1966
     14  CA       -35.9380    7.7290  -10.4650 C.3    38  ARG38       0.1729
     15  C        -37.0530    7.3500   -9.5060 C.2    38  ARG38       0.2616
     16  O        -38.2420    7.4730   -9.8400 O.2    38  ARG38      -0.2715
     17  CB       -35.7440    9.2720  -10.4880 C.3    38  ARG38       0.0348
     18  CG       -35.4320    9.8980   -9.1140 C.3    38  ARG38       0.0492
     19  CD       -35.1460   11.4150   -9.2090 C.3    38  ARG38       0.2205
     20  NE       -36.3440   12.1790   -9.5610 N.pl3  38  ARG38      -0.0865
     21  CZ       -36.4730   12.9660  -10.6310 C.cat  38  ARG38       0.5346
     22  NH1      -37.6160   13.6060  -10.8410 N.pl3  38  ARG38       0.1354
     23  NH2      -35.4690   13.1320  -11.4900 N.pl3  38  ARG38       0.1354
     24  N        -36.6610    6.8920   -8.3150 N.am   39  GLU39      -0.1977
     25  CA       -37.6150    6.3750   -7.3410 C.3    39  GLU39       0.1602
     26  C        -38.3380    7.5240   -6.6530 C.2    39  GLU39       0.2287
     27  O        -37.7210    8.5260   -6.2760 O.2    39  GLU39      -0.2864
     28  CB       -36.8970    5.5120   -6.3090 C.3    39  GLU39       0.0415
     29  CG       -37.7370    4.4350   -5.6340 C.3    39  GLU39       0.1163
     30  CD       -36.8630    3.3470   -5.0070 C.2    39  GLU39       0.3649
     31  OE1      -37.0770    2.1480   -5.3030 O.co2  39  GLU39      -0.2457
     32  OE2      -35.9410    3.7010   -4.2320 O.co2  39  GLU39      -0.2457
     33  N        -42.7480    4.8830   -9.6920 N.3    46  ILE46      -0.1245
     34  CA       -41.4550    5.4970   -9.9580 C.3    46  ILE46       0.1561
     35  C        -41.6070    6.4590  -11.1260 C.2    46  ILE46       0.2260
     36  O        -42.5700    6.3980  -11.8960 O.2    46  ILE46      -0.2867
     37  CB       -40.3690    4.4460  -10.2600 C.3    46  ILE46       0.0252
     38  CG1      -40.7280    3.6860  -11.5450 C.3    46  ILE46       0.0019
     39  CG2      -40.2210    3.5030   -9.0730 C.3    46  ILE46       0.0019
     40  CD1      -39.7740    2.5180  -11.9000 C.3    46  ILE46       0.0001
     41  N        -32.7880    8.0070   -5.9160 N.3    71  ARG71      -0.1231
     42  CA       -32.2580    6.7600   -6.4670 C.3    71  ARG71       0.1694
     43  C        -32.6490    6.6210   -7.9350 C.2    71  ARG71       0.2592
     44  O        -33.8360    6.6320   -8.2650 O.2    71  ARG71      -0.2718
     45  CB       -32.7710    5.5390   -5.6920 C.3    71  ARG71       0.0321
     46  CG       -32.5940    5.5970   -4.1980 C.3    71  ARG71       0.0489
     47  CD       -32.3090    4.2070   -3.6090 C.3    71  ARG71       0.2205
     48  NE       -33.2580    3.1660   -4.0250 N.pl3  71  ARG71      -0.0865
     49  CZ       -33.1130    1.8660   -3.7490 C.cat  71  ARG71       0.5346
     50  NH1      -34.0200    0.9830   -4.1680 N.pl3  71  ARG71       0.1354
     51  NH2      -32.0590    1.4410   -3.0520 N.pl3  71  ARG71       0.1354
     52  N        -31.6620    6.4410   -8.8080 N.am   72  TYR72      -0.1962
     53  CA       -31.9220    6.1730  -10.2160 C.3    72  TYR72       0.1771
     54  C        -31.5990    4.7250  -10.5500 C.2    72  TYR72       0.2620
     55  O        -30.7120    4.1150   -9.9480 O.2    72  TYR72      -0.2715
     56  CB       -31.0910    7.0760  -11.1300 C.3    72  TYR72       0.0574
     57  CG       -31.4620    8.5370  -11.0980 C.ar   72  TYR72      -0.0198
     58  CD1      -31.0460    9.3570  -10.0600 C.ar   72  TYR72      -0.0009
     59  CD2      -32.2200    9.1060  -12.1250 C.ar   72  TYR72      -0.0009
     60  CE1      -31.3820   10.7180  -10.0410 C.ar   72  TYR72       0.0417
     61  CE2      -32.5460   10.4590  -12.1250 C.ar   72  TYR72       0.0417
     62  CZ       -32.1360   11.2550  -11.0830 C.ar   72  TYR72       0.1957
     63  OH       -32.4740   12.5890  -11.0730 O.3    72  TYR72      -0.2866
     64  N        -32.3170    4.1950  -11.5230 N.am   73  GLY73      -0.1954
     65  CA       -32.0010    2.8960  -12.0970 C.3    73  GLY73       0.1869
     66  C        -32.3210    2.9120  -13.5770 C.2    73  GLY73       0.2309
     67  O        -33.1650    3.6930  -14.0390 O.2    73  GLY73      -0.2863
     68  N        -33.5140   -3.7440  -13.7600 N.3    85  LEU85      -0.1231
     69  CA       -32.8970   -2.4490  -13.4890 C.3    85  LEU85       0.1693
     70  C        -31.4690   -2.6260  -12.9890 C.2    85  LEU85       0.2592
     71  O        -31.1310   -3.6180  -12.3560 O.2    85  LEU85      -0.2718
     72  CB       -33.7060   -1.6630  -12.4580 C.3    85  LEU85       0.0284
     73  CG       -35.0440   -1.0830  -12.9210 C.3    85  LEU85       0.0019
     74  CD1      -35.7650   -0.4280  -11.7570 C.3    85  LEU85       0.0001
     75  CD2      -34.8440   -0.0680  -14.0560 C.3    85  LEU85       0.0001
     76  N        -30.6280   -1.6460  -13.2860 N.am   86  SER86      -0.1952
     77  CA       -29.2900   -1.6080  -12.7240 C.3    86  SER86       0.1924
     78  C        -29.3350   -1.5280  -11.1930 C.2    86  SER86       0.2314
     79  O        -30.3650   -1.2350  -10.5800 O.2    86  SER86      -0.2863
     80  CB       -28.5440   -0.3950  -13.2590 C.3    86  SER86       0.2116
     81  OG       -29.3250    0.7620  -12.9840 O.3    86  SER86      -0.2180
     82  N        -28.8550    0.5840   -7.9840 N.3    88  PRO88      -0.2116
     83  CA       -29.2690    1.9900   -7.9000 C.3    88  PRO88       0.1372
     84  C        -28.0680    2.9220   -7.8530 C.2    88  PRO88       0.2244
     85  O        -27.0230    2.6060   -7.2740 O.2    88  PRO88      -0.2868
     86  CB       -30.0850    2.0500   -6.6000 C.3    88  PRO88       0.0268
     87  CG       -29.6440    0.8450   -5.8120 C.3    88  PRO88       0.0207
     88  CD       -29.3180   -0.2100   -6.8390 C.3    88  PRO88       0.0892
@<TRIPOS>BOND
     1    12    11    1
     2    11     9   ar
     3    11    10   ar
     4     9     7   ar
     5    10     8   ar
     6     7     6   ar
     7     8     6   ar
     8     1     2    1
     9     6     5    1
    10    75    73    1
    11    67    66    2
    12     2     5    1
    13     2     3    1
    14    68    69    1
    15    66    65    1
    16    69    70    1
    17    69    72    1
    18    76    70   am
    19    76    77    1
    20    80    81    1
    21    80    77    1
    22    70    71    2
    23    73    72    1
    24    73    74    1
    25    77    78    1
    26     3     4    2
    27     3    13   am
    28    59    61   ar
    29    59    57   ar
    30    61    62   ar
    31    65    64    1
    32    40    38    1
    33    36    35    2
    34    13    14    1
    35    38    37    1
    36    64    54   am
    37    23    21    1
    38    78    79    2
    39    56    57    1
    40    56    53    1
    41    35    34    1
    42    57    58   ar
    43    62    63    1
    44    62    60   ar
    45    22    21    1
    46    21    20    2
    47    54    53    1
    48    54    55    2
    49    17    14    1
    50    17    18    1
    51    14    15    1
    52    37    34    1
    53    37    39    1
    54    53    52    1
    55    58    60   ar
    56    34    33    1
    57    16    15    2
    58    20    19    1
    59    15    24   am
    60    19    18    1
    61    52    43   am
    62    24    25    1
    63    44    43    2
    64    82    83    1
    65    82    88    1
    66    43    42    1
    67    83    84    1
    68    83    86    1
    69    84    85    2
    70    25    26    1
    71    25    28    1
    72    88    87    1
    73    26    27    2
    74    86    87    1
    75    42    41    1
    76    42    45    1
    77    28    29    1
    78    45    46    1
    79    29    30    1
    80    31    30   ar
    81    30    32   ar
    82    46    47    1
    83    50    49    1
    84    48    49    2
    85    48    47    1
    86    49    51    1
