@<TRIPOS>MOLECULE
tmp/6bcyF03.pdb
 89 81 0 0 0
SMALL
GASTEIGER

@<TRIPOS>ATOM
      1  N         -7.1560   17.2760  -50.9800 N.3    20  ASP20      -0.1239
      2  CA        -7.2100   16.9040  -49.5700 C.3    20  ASP20       0.1674
      3  C         -8.6100   16.4380  -49.1920 C.2    20  ASP20       0.2266
      4  O         -8.7810   15.3760  -48.5830 O.2    20  ASP20      -0.2867
      5  CB        -6.7800   18.0820  -48.6930 C.3    20  ASP20       0.1410
      6  CG        -5.3250   18.4550  -48.8900 C.2    20  ASP20       0.3668
      7  OD1       -4.5500   17.6030  -49.3690 O.co2  20  ASP20      -0.2456
      8  OD2       -4.9540   19.6010  -48.5580 O.co2  20  ASP20      -0.2456
      9  N         -9.2820   13.1030  -50.9340 N.3    23  ALA23      -0.1231
     10  CA        -8.6300   12.0000  -50.2350 C.3    23  ALA23       0.1694
     11  C         -9.3470   11.6710  -48.9310 C.2    23  ALA23       0.2592
     12  O         -9.4390   10.5000  -48.5440 O.2    23  ALA23      -0.2718
     13  CB        -7.1650   12.3420  -49.9680 C.3    23  ALA23       0.0304
     14  N         -9.8560   12.6920  -48.2360 N.am   24  THR24      -0.1953
     15  CA       -10.6070   12.4460  -47.0090 C.3    24  THR24       0.1897
     16  C        -11.8800   11.6600  -47.2950 C.2    24  THR24       0.2313
     17  O        -12.2670   10.7840  -46.5130 O.2    24  THR24      -0.2863
     18  CB       -10.9410   13.7720  -46.3250 C.3    24  THR24       0.1794
     19  OG1       -9.7330   14.4980  -46.0710 O.3    24  THR24      -0.2208
     20  CG2      -11.6680   13.5360  -45.0080 C.3    24  THR24       0.0378
     21  N        -10.8550    7.9660  -48.2670 N.3    27  LYS27      -0.1245
     22  CA       -10.4210    7.2860  -47.0510 C.3    27  LYS27       0.1561
     23  C        -11.6150    6.8480  -46.2130 C.2    27  LYS27       0.2260
     24  O        -11.6340    5.7310  -45.6830 O.2    27  LYS27      -0.2867
     25  CB        -9.5060    8.1970  -46.2370 C.3    27  LYS27       0.0271
     26  CG        -9.1300    7.6270  -44.8820 C.3    27  LYS27       0.0035
     27  CD        -7.9560    8.3670  -44.2690 C.3    27  LYS27       0.0206
     28  CE        -7.7250    7.9430  -42.8250 C.3    27  LYS27       0.1093
     29  NZ        -6.5690    8.6600  -42.2160 N.3    27  LYS27      -0.1314
     30  N         -4.9740   10.5980  -53.6300 N.3    48  TYR48      -0.1241
     31  CA        -3.7130   10.5070  -52.9010 C.3    48  TYR48       0.1605
     32  C         -2.5130   10.7780  -53.7950 C.2    48  TYR48       0.2264
     33  O         -1.4830   11.2620  -53.3110 O.2    48  TYR48      -0.2867
     34  CB        -3.5910    9.1390  -52.2340 C.3    48  TYR48       0.0534
     35  CG        -4.2820    9.1050  -50.8960 C.ar   48  TYR48      -0.0201
     36  CD1       -3.7100    9.7130  -49.7870 C.ar   48  TYR48      -0.0009
     37  CD2       -5.5170    8.4900  -50.7430 C.ar   48  TYR48      -0.0009
     38  CE1       -4.3420    9.6990  -48.5610 C.ar   48  TYR48       0.0417
     39  CE2       -6.1550    8.4720  -49.5230 C.ar   48  TYR48       0.0417
     40  CZ        -5.5660    9.0760  -48.4380 C.ar   48  TYR48       0.1957
     41  OH        -6.2170    9.0430  -47.2320 O.3    48  TYR48      -0.2866
     42  N         -2.2890   14.5270  -53.6420 N.3    51  VAL51      -0.1245
     43  CA        -1.8620   14.9280  -52.3030 C.3    51  VAL51       0.1561
     44  C         -0.3650   14.6960  -52.1340 C.2    51  VAL51       0.2260
     45  O          0.3700   15.5810  -51.6790 O.2    51  VAL51      -0.2867
     46  CB        -2.6750   14.1790  -51.2320 C.3    51  VAL51       0.0252
     47  CG1       -2.1070   14.4400  -49.8420 C.3    51  VAL51       0.0019
     48  CG2       -4.1360   14.5950  -51.2860 C.3    51  VAL51       0.0019
     49  N          4.0320   17.1000  -52.4160 N.3    55  ARG55      -0.1245
     50  CA         5.1780   16.9450  -51.5260 C.3    55  ARG55       0.1563
     51  C          6.3980   16.4120  -52.2660 C.2    55  ARG55       0.2260
     52  O          7.5270   16.8310  -51.9820 O.2    55  ARG55      -0.2867
     53  CB         4.8240   16.0220  -50.3580 C.3    55  ARG55       0.0307
     54  CG         4.0920   16.7090  -49.2150 C.3    55  ARG55       0.0489
     55  CD         2.6460   17.0160  -49.5620 C.3    55  ARG55       0.2205
     56  NE         1.9710   17.7470  -48.4930 N.pl3  55  ARG55      -0.0865
     57  CZ         0.6720   18.0330  -48.4870 C.cat  55  ARG55       0.5346
     58  NH1       -0.1030   17.6420  -49.4900 N.pl3  55  ARG55       0.1354
     59  NH2        0.1450   18.7090  -47.4760 N.pl3  55  ARG55       0.1354
     60  N          5.8890   15.1640  -43.9610 N.3    89  GLU89      -0.1245
     61  CA         4.5500   15.1330  -44.5440 C.3    89  GLU89       0.1567
     62  C          4.4190   14.0170  -45.5730 C.2    89  GLU89       0.2260
     63  O          3.3860   13.3400  -45.6420 O.2    89  GLU89      -0.2867
     64  CB         4.2220   16.4770  -45.1940 C.3    89  GLU89       0.0388
     65  CG         4.1740   17.6500  -44.2390 C.3    89  GLU89       0.1160
     66  CD         3.7560   18.9330  -44.9330 C.2    89  GLU89       0.3649
     67  OE1        3.4300   18.8760  -46.1390 O.co2  89  GLU89      -0.2457
     68  OE2        3.7550   19.9960  -44.2750 O.co2  89  GLU89      -0.2457
     69  N          4.2360   10.6800  -43.8570 N.3    92  SER92      -0.1202
     70  CA         2.9190   10.5760  -43.2350 C.3    92  SER92       0.2020
     71  C          1.8590   10.1850  -44.2590 C.2    92  SER92       0.2618
     72  O          1.0370    9.2930  -44.0150 O.2    92  SER92      -0.2717
     73  CB         2.5620   11.9060  -42.5670 C.3    92  SER92       0.2103
     74  OG         1.1850   11.9590  -42.2410 O.3    92  SER92      -0.2182
     75  N          1.8510   10.8620  -45.4070 N.am   93  ILE93      -0.1979
     76  CA         0.9000   10.5410  -46.4700 C.3    93  ILE93       0.1595
     77  C          1.0720    9.0950  -46.9230 C.2    93  ILE93       0.2287
     78  O          0.1040    8.3280  -46.9970 O.2    93  ILE93      -0.2864
     79  CB         1.0680   11.5210  -47.6440 C.3    93  ILE93       0.0276
     80  CG1        0.6870   12.9370  -47.2050 C.3    93  ILE93       0.0022
     81  CG2        0.2120   11.0880  -48.8240 C.3    93  ILE93       0.0022
     82  CD1        1.2180   14.0290  -48.1130 C.3    93  ILE93       0.0001
     83  N         -0.1760    6.5790  -44.3690 N.3    96  THR96      -0.1218
     84  CA        -1.6320    6.4910  -44.4180 C.3    96  THR96       0.1862
     85  C         -2.0960    5.5770  -45.5490 C.2    96  THR96       0.2287
     86  O         -2.9180    4.6770  -45.3410 O.2    96  THR96      -0.2866
     87  CB        -2.2280    7.8890  -44.5900 C.3    96  THR96       0.1770
     88  OG1       -1.7960    8.7310  -43.5140 O.3    96  THR96      -0.2211
     89  CG2       -3.7520    7.8270  -44.6070 C.3    96  THR96       0.0375
@<TRIPOS>BOND
     1    32    33    2
     2    32    31    1
     3    42    43    1
     4    30    31    1
     5    31    34    1
     6    49    50    1
     7    43    44    1
     8    43    46    1
     9    51    52    2
    10    51    50    1
    11    34    35    1
    12    44    45    2
    13    50    53    1
    14    48    46    1
    15    46    47    1
    16     1     2    1
    17     9    10    1
    18    35    37   ar
    19    35    36   ar
    20    37    39   ar
    21    53    54    1
    22    10    13    1
    23    10    11    1
    24    36    38   ar
    25     2     3    1
    26     2     5    1
    27    55    54    1
    28    55    56    1
    29    39    40   ar
    30    58    57    1
    31     7     6   ar
    32     3     4    2
    33    11    12    2
    34    11    14   am
    35     6     5    1
    36     6     8   ar
    37    81    79    1
    38    38    40   ar
    39    56    57    2
    40    57    59    1
    41    40    41    1
    42    21    22    1
    43    14    15    1
    44    82    80    1
    45    79    80    1
    46    79    76    1
    47    16    15    1
    48    16    17    2
    49    22    25    1
    50    22    23    1
    51    15    18    1
    52    78    77    2
    53    77    76    1
    54    76    75    1
    55    18    19    1
    56    18    20    1
    57    25    26    1
    58    23    24    2
    59    67    66   ar
    60    63    62    2
    61    62    61    1
    62    85    86    2
    63    85    84    1
    64    75    71   am
    65    64    61    1
    66    64    65    1
    67    66    68   ar
    68    66    65    1
    69    26    27    1
    70    89    87    1
    71    87    84    1
    72    87    88    1
    73    61    60    1
    74    84    83    1
    75    27    28    1
    76    71    72    2
    77    71    70    1
    78    69    70    1
    79    70    73    1
    80    28    29    1
    81    73    74    1
