@<TRIPOS>MOLECULE
tmp/6bczA01.pdb
 177 171 0 0 0
SMALL
GASTEIGER

@<TRIPOS>ATOM
      1  N        -22.1150  -41.1120   -7.3700 N.3    79  ARG79      -0.1231
      2  CA       -21.0840  -40.9100   -8.3950 C.3    79  ARG79       0.1694
      3  C        -19.9280  -41.8100   -8.0470 C.2    79  ARG79       0.2591
      4  O        -19.9310  -42.4590   -6.9930 O.2    79  ARG79      -0.2718
      5  CB       -20.6290  -39.4580   -8.4790 C.3    79  ARG79       0.0321
      6  CG       -21.7080  -38.5070   -8.9420 C.3    79  ARG79       0.0489
      7  CD       -21.2000  -37.0790   -9.2130 C.3    79  ARG79       0.2205
      8  NE       -22.3280  -36.2570   -9.6530 N.pl3  79  ARG79      -0.0865
      9  CZ       -23.0660  -35.5020   -8.8450 C.cat  79  ARG79       0.5346
     10  NH1      -22.7750  -35.4290   -7.5610 N.pl3  79  ARG79       0.1354
     11  NH2      -24.0790  -34.8140   -9.3220 N.pl3  79  ARG79       0.1354
     12  N        -18.9240  -41.8520   -8.9220 N.am   80  ARG80      -0.1980
     13  CA       -17.8330  -42.8070   -8.7580 C.3    80  ARG80       0.1597
     14  C        -17.0720  -42.4920   -7.4900 C.2    80  ARG80       0.2287
     15  O        -16.7120  -41.3360   -7.2680 O.2    80  ARG80      -0.2864
     16  CB       -16.8890  -42.7880   -9.9660 C.3    80  ARG80       0.0334
     17  CG       -16.0130  -44.0360  -10.0630 C.3    80  ARG80       0.0492
     18  CD       -14.8760  -43.9130  -11.0640 C.3    80  ARG80       0.2205
     19  NE       -15.3090  -43.3700  -12.3370 N.pl3  80  ARG80      -0.0865
     20  CZ       -14.6210  -43.4670  -13.4720 C.cat  80  ARG80       0.5346
     21  NH1      -13.4560  -44.1120  -13.5120 N.pl3  80  ARG80       0.1354
     22  NH2      -15.1050  -42.9170  -14.5800 N.pl3  80  ARG80       0.1354
     23  N        -14.9350  -41.3420   -4.7850 N.3    82  PHE82      -0.1241
     24  CA       -13.8880  -40.3520   -4.9060 C.3    82  PHE82       0.1605
     25  C        -13.0590  -40.2860   -3.6310 C.2    82  PHE82       0.2264
     26  O        -13.6090  -40.2330   -2.5290 O.2    82  PHE82      -0.2867
     27  CB       -14.4950  -38.9890   -5.2350 C.3    82  PHE82       0.0534
     28  CG       -13.4780  -37.9170   -5.4570 C.ar   82  PHE82      -0.0203
     29  CD1      -12.6120  -37.9780   -6.5310 C.ar   82  PHE82      -0.0042
     30  CD2      -13.3850  -36.8460   -4.5890 C.ar   82  PHE82      -0.0042
     31  CE1      -11.6710  -36.9920   -6.7280 C.ar   82  PHE82      -0.0003
     32  CE2      -12.4430  -35.8560   -4.7810 C.ar   82  PHE82      -0.0003
     33  CZ       -11.5880  -35.9280   -5.8560 C.ar   82  PHE82      -0.0000
     34  N        -21.8910  -33.2260   -2.7730 N.3    93  SER93      -0.1202
     35  CA       -21.5910  -33.7540   -4.1060 C.3    93  SER93       0.2020
     36  C        -20.8220  -35.0680   -3.9870 C.2    93  SER93       0.2618
     37  O        -20.8450  -35.8860   -4.8900 O.2    93  SER93      -0.2717
     38  CB       -20.8050  -32.7360   -4.9390 C.3    93  SER93       0.2103
     39  OG       -19.5130  -32.5310   -4.4130 O.3    93  SER93      -0.2182
     40  N        -20.1910  -35.2960   -2.8420 N.am   94  ILE94      -0.1979
     41  CA       -19.4680  -36.5450   -2.6190 C.3    94  ILE94       0.1595
     42  C        -20.2850  -37.6230   -1.8830 C.2    94  ILE94       0.2287
     43  O        -19.9730  -38.8090   -1.9810 O.2    94  ILE94      -0.2864
     44  CB       -18.1550  -36.2590   -1.8370 C.3    94  ILE94       0.0276
     45  CG1      -17.2150  -35.4240   -2.6980 C.3    94  ILE94       0.0022
     46  CG2      -17.4200  -37.5170   -1.4750 C.3    94  ILE94       0.0022
     47  CD1      -16.2270  -34.6300   -1.8810 C.3    94  ILE94       0.0001
     48  N        -10.2130  -26.7370   -9.5890 N.3   186  ARG186     -0.1231
     49  CA       -10.7420  -27.9740  -10.1450 C.3   186  ARG186      0.1694
     50  C         -9.6820  -29.0620  -10.1720 C.2   186  ARG186      0.2592
     51  O         -8.4990  -28.7950  -10.3820 O.2   186  ARG186     -0.2718
     52  CB       -11.2860  -27.7500  -11.5600 C.3   186  ARG186      0.0321
     53  CG       -12.4450  -26.7710  -11.6540 C.3   186  ARG186      0.0489
     54  CD       -13.6610  -27.2810  -10.9140 C.3   186  ARG186      0.2205
     55  NE       -14.1460  -28.5440  -11.4600 N.pl3 186  ARG186     -0.0865
     56  CZ       -14.9280  -28.6280  -12.5300 C.cat 186  ARG186      0.5346
     57  NH1      -15.2960  -27.5170  -13.1500 N.pl3 186  ARG186      0.1354
     58  NH2      -15.3380  -29.8090  -12.9750 N.pl3 186  ARG186      0.1354
     59  N        -10.1240  -30.2910   -9.9470 N.am  187  PHE187     -0.1976
     60  CA        -9.2370  -31.4400   -9.9570 C.3   187  PHE187      0.1639
     61  C         -8.9770  -31.9480  -11.3720 C.2   187  PHE187      0.2290
     62  O         -9.9180  -32.2070  -12.1310 O.2   187  PHE187     -0.2864
     63  CB        -9.8270  -32.5540   -9.0940 C.3   187  PHE187      0.0560
     64  CG        -9.9010  -32.2060   -7.6330 C.ar  187  PHE187     -0.0200
     65  CD1      -10.9910  -32.5880   -6.8720 C.ar  187  PHE187     -0.0042
     66  CD2       -8.8710  -31.5010   -7.0200 C.ar  187  PHE187     -0.0042
     67  CE1      -11.0550  -32.2710   -5.5180 C.ar  187  PHE187     -0.0003
     68  CE2       -8.9260  -31.1840   -5.6760 C.ar  187  PHE187     -0.0003
     69  CZ       -10.0220  -31.5700   -4.9220 C.ar  187  PHE187     -0.0000
     70  N         -8.2180  -34.7530  -13.4410 N.3   189  PHE189     -0.1241
     71  CA        -8.3170  -36.2000  -13.2760 C.3   189  PHE189      0.1605
     72  C         -7.3820  -36.9650  -14.2150 C.2   189  PHE189      0.2264
     73  O         -7.3180  -38.1960  -14.1610 O.2   189  PHE189     -0.2867
     74  CB        -9.7660  -36.6640  -13.4590 C.3   189  PHE189      0.0534
     75  CG       -10.6060  -36.5200  -12.2120 C.ar  189  PHE189     -0.0203
     76  CD1      -10.3040  -37.2460  -11.0760 C.ar  189  PHE189     -0.0042
     77  CD2      -11.6940  -35.6640  -12.1790 C.ar  189  PHE189     -0.0042
     78  CE1      -11.0640  -37.1120   -9.9300 C.ar  189  PHE189     -0.0003
     79  CE2      -12.4580  -35.5330  -11.0360 C.ar  189  PHE189     -0.0003
     80  CZ       -12.1450  -36.2540   -9.9140 C.ar  189  PHE189     -0.0000
     81  N         -8.2800  -32.5280   -0.9760 N.3   215  PHE215     -0.1241
     82  CA        -8.4550  -31.1820   -0.4760 C.3   215  PHE215      0.1605
     83  C         -7.3610  -30.9250    0.5540 C.2   215  PHE215      0.2264
     84  O         -7.3930  -31.5140    1.6400 O.2   215  PHE215     -0.2867
     85  CB        -9.8460  -31.0020    0.1310 C.3   215  PHE215      0.0534
     86  CG       -10.9600  -31.2240   -0.8450 C.ar  215  PHE215     -0.0203
     87  CD1      -11.6500  -32.4210   -0.8680 C.ar  215  PHE215     -0.0042
     88  CD2      -11.3070  -30.2400   -1.7590 C.ar  215  PHE215     -0.0042
     89  CE1      -12.6780  -32.6340   -1.7780 C.ar  215  PHE215     -0.0003
     90  CE2      -12.3400  -30.4450   -2.6750 C.ar  215  PHE215     -0.0003
     91  CZ       -13.0240  -31.6450   -2.6820 C.ar  215  PHE215     -0.0000
     92  N        -17.4600  -27.0700   -0.3850 N.3   266  ILE266     -0.1245
     93  CA       -17.8140  -27.6320   -1.6680 C.3   266  ILE266      0.1561
     94  C        -18.4590  -26.5800   -2.5430 C.2   266  ILE266      0.2260
     95  O        -18.4210  -26.6890   -3.7680 O.2   266  ILE266     -0.2867
     96  CB       -18.7500  -28.8590   -1.5230 C.3   266  ILE266      0.0252
     97  CG1      -18.4660  -29.9020   -2.6100 C.3   266  ILE266      0.0019
     98  CG2      -20.1990  -28.4430   -1.5670 C.3   266  ILE266      0.0019
     99  CD1      -17.0940  -30.5250   -2.5090 C.3   266  ILE266      0.0001
    100  N        -15.4430  -24.4500   -4.1110 N.3   269  PHE269     -0.1227
    101  CA       -14.9690  -25.3980   -5.1230 C.3   269  PHE269      0.1736
    102  C        -15.8900  -25.5430   -6.3440 C.2   269  PHE269      0.2595
    103  O        -15.4180  -25.5800   -7.4780 O.2   269  PHE269     -0.2718
    104  CB       -14.7890  -26.7500   -4.4210 C.3   269  PHE269      0.0547
    105  CG       -14.3890  -27.8980   -5.3160 C.ar  269  PHE269     -0.0202
    106  CD1      -13.1260  -27.9550   -5.8850 C.ar  269  PHE269     -0.0042
    107  CD2      -15.2560  -28.9720   -5.5090 C.ar  269  PHE269     -0.0042
    108  CE1      -12.7540  -29.0360   -6.6740 C.ar  269  PHE269     -0.0003
    109  CE2      -14.8860  -30.0560   -6.2850 C.ar  269  PHE269     -0.0003
    110  CZ       -13.6340  -30.0890   -6.8670 C.ar  269  PHE269     -0.0000
    111  N        -17.1980  -25.6420   -6.1100 N.am  270  ALA270     -0.1980
    112  CA       -18.1740  -25.7200   -7.2050 C.3   270  ALA270      0.1597
    113  C        -18.2710  -24.4120   -7.9840 C.2   270  ALA270      0.2287
    114  O        -18.2160  -24.4010   -9.2030 O.2   270  ALA270     -0.2864
    115  CB       -19.5400  -26.0950   -6.6740 C.3   270  ALA270      0.0319
    116  N        -15.6340  -22.5870  -11.9230 N.3   274  THR274     -0.1218
    117  CA       -16.6840  -22.8190  -12.9110 C.3   274  THR274      0.1862
    118  C        -17.2520  -21.5180  -13.4360 C.2   274  THR274      0.2287
    119  O        -17.3150  -21.3270  -14.6390 O.2   274  THR274     -0.2866
    120  CB       -17.8590  -23.6410  -12.3510 C.3   274  THR274      0.1770
    121  OG1      -18.4600  -22.9510  -11.2480 O.3   274  THR274     -0.2211
    122  CG2      -17.4030  -25.0230  -11.9460 C.3   274  THR274      0.0375
    123  N        -18.6620  -27.7490  -18.7280 N.3   334  ILE334     -0.1231
    124  CA       -17.4110  -27.8830  -18.0180 C.3   334  ILE334      0.1692
    125  C        -17.3280  -29.1490  -17.1940 C.2   334  ILE334      0.2592
    126  O        -16.2570  -29.5090  -16.7780 O.2   334  ILE334     -0.2718
    127  CB       -17.1990  -26.6980  -17.1240 C.3   334  ILE334      0.0266
    128  CG1      -18.4580  -26.4980  -16.2900 C.3   334  ILE334      0.0019
    129  CG2      -16.9230  -25.4480  -17.9770 C.3   334  ILE334      0.0020
    130  CD1      -18.3000  -25.3870  -15.3430 C.3   334  ILE334      0.0001
    131  N        -18.4390  -29.8350  -16.9720 N.am  335  ALA335     -0.1966
    132  CA       -18.4030  -31.1550  -16.3430 C.3   335  ALA335      0.1728
    133  C        -17.9420  -32.2560  -17.2940 C.2   335  ALA335      0.2616
    134  O        -17.4980  -33.3000  -16.8350 O.2   335  ALA335     -0.2715
    135  CB       -19.7570  -31.5380  -15.8040 C.3   335  ALA335      0.0334
    136  N        -18.1440  -32.0440  -18.5970 N.am  336  MET336     -0.1963
    137  CA       -17.7190  -32.9710  -19.6520 C.3   336  MET336      0.1736
    138  C        -18.4690  -34.2880  -19.6950 C.2   336  MET336      0.2616
    139  O        -18.9870  -34.6540  -20.7530 O.2   336  MET336     -0.2715
    140  CB       -16.2380  -33.2390  -19.5450 C.3   336  MET336      0.0427
    141  CG       -15.4330  -31.9930  -19.7840 C.3   336  MET336      0.0599
    142  SD       -13.7280  -32.4410  -19.5640 S.3   336  MET336     -0.1393
    143  CE       -13.6800  -32.5050  -17.7730 C.3   336  MET336      0.0692
    144  N        -18.5590  -34.9830  -18.5660 N.am  337  ARG337     -0.1963
    145  CA       -19.3620  -36.2000  -18.4840 C.3   337  ARG337      0.1729
    146  C        -20.2640  -36.1330  -17.2650 C.2   337  ARG337      0.2616
    147  O        -19.9580  -35.4700  -16.2930 O.2   337  ARG337     -0.2715
    148  CB       -18.4750  -37.4640  -18.3820 C.3   337  ARG337      0.0348
    149  CG       -17.1930  -37.4620  -19.1790 C.3   337  ARG337      0.0492
    150  CD       -16.3200  -38.6550  -18.7870 C.3   337  ARG337      0.2205
    151  NE       -15.7010  -39.2680  -19.9480 N.pl3 337  ARG337     -0.0865
    152  CZ       -14.7200  -40.1630  -19.9150 C.cat 337  ARG337      0.5346
    153  NH1      -14.2260  -40.5810  -18.7550 N.pl3 337  ARG337      0.1354
    154  NH2      -14.2370  -40.6510  -21.0570 N.pl3 337  ARG337      0.1354
    155  N        -21.3590  -36.8690  -17.2950 N.am  338  LEU338     -0.1963
    156  CA       -22.1070  -37.1840  -16.0840 C.3   338  LEU338      0.1728
    157  C        -21.9140  -38.6770  -15.7900 C.2   338  LEU338      0.2616
    158  O        -21.7670  -39.4570  -16.7220 O.2   338  LEU338     -0.2715
    159  CB       -23.5890  -36.8540  -16.2770 C.3   338  LEU338      0.0311
    160  CG       -23.8860  -35.4580  -16.8550 C.3   338  LEU338      0.0022
    161  CD1      -25.3780  -35.3680  -17.2420 C.3   338  LEU338      0.0001
    162  CD2      -23.4940  -34.3210  -15.9040 C.3   338  LEU338      0.0001
    163  N        -21.9240  -39.0750  -14.5190 N.am  339  GLU339     -0.1977
    164  CA       -21.6530  -40.4540  -14.1260 C.3   339  GLU339      0.1602
    165  C        -22.5150  -40.9190  -12.9610 C.2   339  GLU339      0.2287
    166  O        -22.8280  -40.1460  -12.0730 O.2   339  GLU339     -0.2864
    167  CB       -20.1810  -40.6170  -13.7240 C.3   339  GLU339      0.0415
    168  CG       -19.1790  -40.1570  -14.8170 C.3   339  GLU339      0.1163
    169  CD       -17.7390  -40.5520  -14.4990 C.2   339  GLU339      0.3649
    170  OE1      -17.4450  -40.8790  -13.3270 O.co2 339  GLU339     -0.2457
    171  OE2      -16.9000  -40.5260  -15.4220 O.co2 339  GLU339     -0.2457
    172  N        -27.1950  -30.3400  -10.8800 N.3   407  CYS407     -0.1235
    173  CA       -26.5320  -29.2310  -10.2000 C.3   407  CYS407      0.1677
    174  C        -27.4500  -28.4370   -9.2990 C.2   407  CYS407      0.2270
    175  O        -28.3280  -27.7360   -9.7830 O.2   407  CYS407     -0.2867
    176  CB       -25.9360  -28.2630  -11.2120 C.3   407  CYS407      0.0956
    177  SG       -25.0920  -26.7800  -10.4420 S.3   407  CYS407     -0.0801
@<TRIPOS>BOND
     1   154   152    1
     2   139   138    2
     3   151   152    2
     4   151   150    1
     5   152   153    1
     6   141   142    1
     7   141   140    1
     8   138   137    1
     9   138   144   am
    10   137   140    1
    11   137   136    1
    12   142   143    1
    13   149   150    1
    14   149   148    1
    15   123   124    1
    16   136   133   am
    17   144   145    1
    18   145   148    1
    19   145   146    1
    20   124   125    1
    21   124   127    1
    22   129   127    1
    23   155   146   am
    24   155   156    1
    25   133   134    2
    26   133   132    1
    27   146   147    2
    28   161   160    1
    29   125   131   am
    30   125   126    2
    31   127   128    1
    32   131   132    1
    33   160   159    1
    34   160   162    1
    35   158   157    2
    36   132   135    1
    37   128   130    1
    38   159   156    1
    39   156   157    1
    40   157   163   am
    41   171   169   ar
    42   168   169    1
    43   168   167    1
    44   119   118    2
    45    22    20    1
    46   163   164    1
    47   169   170   ar
    48    72    73    2
    49    72    71    1
    50   164   167    1
    51   164   165    1
    52    21    20    1
    53    20    19    2
    54    74    71    1
    55    74    75    1
    56    70    71    1
    57   118   117    1
    58    57    56    1
    59    58    56    1
    60   165   166    2
    61   117   120    1
    62   117   116    1
    63    56    55    2
    64   120   122    1
    65   120   121    1
    66    19    18    1
    67    75    77   ar
    68    75    76   ar
    69    77    79   ar
    70    62    61    2
    71    53    52    1
    72    53    54    1
    73    52    49    1
    74    55    54    1
    75    61    60    1
    76   176   177    1
    77   176   173    1
    78    76    78   ar
    79    18    17    1
    80    79    80   ar
    81   172   173    1
    82    51    50    2
    83   173   174    1
    84    50    49    1
    85    50    59   am
    86    49    48    1
    87    17    16    1
    88    16    13    1
    89    60    59    1
    90    60    63    1
    91    78    80   ar
    92   175   174    2
    93     8     7    1
    94     8     9    2
    95    11     9    1
    96     7     6    1
    97   114   113    2
    98    63    64    1
    99     6     5    1
   100    12    13    1
   101    12     3   am
   102     9    10    1
   103    13    14    1
   104     5     2    1
   105     2     3    1
   106     2     1    1
   107     3     4    2
   108   113   112    1
   109    64    66   ar
   110    64    65   ar
   111    14    15    2
   112   103   102    2
   113   112   115    1
   114   112   111    1
   115    66    68   ar
   116    65    67   ar
   117   110   108   ar
   118   110   109   ar
   119    31    29   ar
   120    31    33   ar
   121   108   106   ar
   122    29    28   ar
   123   102   111   am
   124   102   101    1
   125   109   107   ar
   126   106   105   ar
   127    33    32   ar
   128    68    69   ar
   129    67    69   ar
   130   107   105   ar
   131    28    27    1
   132    28    30   ar
   133   105   104    1
   134    27    24    1
   135   101   104    1
   136   101   100    1
   137    38    39    1
   138    38    35    1
   139    24    23    1
   140    24    25    1
   141    37    36    2
   142    32    30   ar
   143    35    36    1
   144    35    34    1
   145    36    40   am
   146    95    94    2
   147    25    26    2
   148    40    41    1
   149    45    47    1
   150    45    44    1
   151    91    90   ar
   152    91    89   ar
   153    90    88   ar
   154    41    42    1
   155    41    44    1
   156    97    99    1
   157    97    96    1
   158    94    93    1
   159    43    42    2
   160    44    46    1
   161    89    87   ar
   162    88    86   ar
   163    93    96    1
   164    93    92    1
   165    98    96    1
   166    81    82    1
   167    87    86   ar
   168    86    85    1
   169    82    85    1
   170    82    83    1
   171    83    84    2
