@<TRIPOS>MOLECULE
tmp/6bd2B01.pdb
 79 71 0 0 0
SMALL
GASTEIGER

@<TRIPOS>ATOM
      1  N         10.0250    4.0000  -32.1330 N.3   102  ASP102     -0.1239
      2  CA        11.2300    3.6040  -32.8540 C.3   102  ASP102      0.1674
      3  C         10.9870    3.5490  -34.3560 C.2   102  ASP102      0.2266
      4  O         11.8520    3.9460  -35.1450 O.2   102  ASP102     -0.2867
      5  CB        11.7230    2.2500  -32.3450 C.3   102  ASP102      0.1410
      6  CG        12.1640    2.2970  -30.8930 C.2   102  ASP102      0.3668
      7  OD1       12.7340    3.3270  -30.4740 O.co2 102  ASP102     -0.2456
      8  OD2       11.9380    1.3040  -30.1690 O.co2 102  ASP102     -0.2456
      9  N         10.5410    8.6960  -33.5640 N.3   106  ILE106     -0.1245
     10  CA        11.9440    9.0170  -33.3080 C.3   106  ILE106      0.1561
     11  C         12.7330    9.0210  -34.6090 C.2   106  ILE106      0.2260
     12  O         13.6190    9.8590  -34.8150 O.2   106  ILE106     -0.2867
     13  CB        12.5550    8.0300  -32.2950 C.3   106  ILE106      0.0252
     14  CG1       11.8230    8.1060  -30.9560 C.3   106  ILE106      0.0019
     15  CG2       14.0410    8.3360  -32.0850 C.3   106  ILE106      0.0019
     16  CD1       12.2210    7.0170  -29.9730 C.3   106  ILE106      0.0001
     17  N         12.6000   15.4190  -31.1880 N.3   115  LYS115     -0.1245
     18  CA        13.5520   14.4050  -30.7470 C.3   115  LYS115      0.1561
     19  C         13.4880   14.2190  -29.2350 C.2   115  LYS115      0.2260
     20  O         13.4220   13.0860  -28.7430 O.2   115  LYS115     -0.2867
     21  CB        14.9580   14.8030  -31.2030 C.3   115  LYS115      0.0271
     22  CG        15.9430   13.6550  -31.3620 C.3   115  LYS115      0.0035
     23  CD        16.9250   13.9350  -32.4950 C.3   115  LYS115      0.0206
     24  CE        18.2210   13.1620  -32.3090 C.3   115  LYS115      0.1093
     25  NZ        18.0000   11.6920  -32.2790 N.3   115  LYS115     -0.1314
     26  N         12.0990   10.8630  -27.3360 N.3   119  LEU119     -0.1245
     27  CA        13.0140   10.1360  -26.4630 C.3   119  LEU119      0.1561
     28  C         12.4860   10.0970  -25.0350 C.2   119  LEU119      0.2260
     29  O         12.5250    9.0500  -24.3790 O.2   119  LEU119     -0.2867
     30  CB        14.4030   10.7710  -26.5190 C.3   119  LEU119      0.0270
     31  CG        15.1540   10.5830  -27.8430 C.3   119  LEU119      0.0019
     32  CD1       16.4170   11.4270  -27.8700 C.3   119  LEU119      0.0001
     33  CD2       15.4920    9.1200  -28.0830 C.3   119  LEU119      0.0001
     34  N          9.7710    7.5700  -24.8560 N.3   122  LYS122     -0.1245
     35  CA        10.3840    6.2480  -24.7960 C.3   122  LYS122      0.1561
     36  C         10.8170    5.9120  -23.3750 C.2   122  LYS122      0.2260
     37  O         10.4890    4.8420  -22.8480 O.2   122  LYS122     -0.2867
     38  CB        11.5740    6.1940  -25.7520 C.3   122  LYS122      0.0271
     39  CG        12.2200    4.8290  -25.8830 C.3   122  LYS122      0.0035
     40  CD        13.3460    4.8560  -26.8980 C.3   122  LYS122      0.0206
     41  CE        13.8230    3.4590  -27.2390 C.3   122  LYS122      0.1093
     42  NZ        14.8840    3.4830  -28.2810 N.3   122  LYS122     -0.1314
     43  N          9.2280    2.7180  -21.2840 N.3   126  PHE126     -0.1241
     44  CA        10.1730    1.7310  -20.7710 C.3   126  PHE126      0.1605
     45  C         10.2170    1.7460  -19.2460 C.2   126  PHE126      0.2264
     46  O         10.4790    0.7100  -18.6250 O.2   126  PHE126     -0.2867
     47  CB        11.5710    1.9780  -21.3440 C.3   126  PHE126      0.0534
     48  CG        11.8870    1.1700  -22.5740 C.ar  126  PHE126     -0.0203
     49  CD1       11.6820   -0.1990  -22.5920 C.ar  126  PHE126     -0.0042
     50  CD2       12.4190    1.7770  -23.7010 C.ar  126  PHE126     -0.0042
     51  CE1       11.9820   -0.9460  -23.7120 C.ar  126  PHE126     -0.0003
     52  CE2       12.7210    1.0350  -24.8250 C.ar  126  PHE126     -0.0003
     53  CZ        12.5030   -0.3290  -24.8310 C.ar  126  PHE126     -0.0000
     54  N         17.1920    0.5270  -20.9310 N.3   144  ASN144     -0.1240
     55  CA        16.6290    1.2050  -22.0940 C.3   144  ASN144      0.1653
     56  C         15.9380    2.5050  -21.6920 C.2   144  ASN144      0.2266
     57  O         16.1870    3.5630  -22.2870 O.2   144  ASN144     -0.2867
     58  CB        15.6640    0.2680  -22.8210 C.3   144  ASN144      0.1155
     59  CG        16.3830   -0.8510  -23.5560 C.2   144  ASN144      0.2627
     60  OD1       17.6100   -0.9460  -23.5130 O.2   144  ASN144     -0.2716
     61  ND2       15.6220   -1.7060  -24.2330 N.am  144  ASN144     -0.0877
     62  N         18.5240    4.9830  -20.8270 N.3   147  GLY147     -0.1210
     63  CA        19.2360    5.4450  -22.0100 C.3   147  GLY147      0.1956
     64  C         18.4650    6.5040  -22.7720 C.2   147  GLY147      0.2611
     65  O         18.9890    7.5830  -23.0750 O.2   147  GLY147     -0.2717
     66  N         17.2000    6.2130  -23.0870 N.am  148  ALA148     -0.1979
     67  CA        16.3770    7.1850  -23.8000 C.3   148  ALA148      0.1597
     68  C         16.2910    8.4910  -23.0200 C.2   148  ALA148      0.2287
     69  O         16.5350    9.5780  -23.5640 O.2   148  ALA148     -0.2864
     70  CB        14.9840    6.6070  -24.0460 C.3   148  ALA148      0.0319
     71  N         19.5760   10.4840  -23.3350 N.3   151  GLU151     -0.1245
     72  CA        19.7370   11.1590  -24.6210 C.3   151  GLU151      0.1567
     73  C         18.8480   12.3960  -24.7000 C.2   151  GLU151      0.2260
     74  O         19.3000   13.4800  -25.0980 O.2   151  GLU151     -0.2867
     75  CB        19.4300   10.1920  -25.7650 C.3   151  GLU151      0.0388
     76  CG        19.7690   10.7430  -27.1380 C.3   151  GLU151      0.1160
     77  CD        19.4960    9.7510  -28.2490 C.2   151  GLU151      0.3649
     78  OE1       19.1570    8.5890  -27.9400 O.co2 151  GLU151     -0.2457
     79  OE2       19.6180   10.1320  -29.4340 O.co2 151  GLU151     -0.2457
@<TRIPOS>BOND
     1     4     3    2
     2    12    11    2
     3    11    10    1
     4     3     2    1
     5     9    10    1
     6    10    13    1
     7     2     5    1
     8     2     1    1
     9    23    24    1
    10    23    22    1
    11     5     6    1
    12    24    25    1
    13    13    15    1
    14    13    14    1
    15    22    21    1
    16    21    18    1
    17    17    18    1
    18    14    16    1
    19     6     7   ar
    20     6     8   ar
    21    18    19    1
    22    79    77   ar
    23    19    20    2
    24    42    41    1
    25    77    78   ar
    26    77    76    1
    27    33    31    1
    28    32    31    1
    29    31    30    1
    30    26    27    1
    31    41    40    1
    32    76    75    1
    33    40    39    1
    34    30    27    1
    35    27    28    1
    36    39    38    1
    37    75    72    1
    38    38    35    1
    39    74    73    2
    40    28    29    2
    41    34    35    1
    42    53    52   ar
    43    53    51   ar
    44    52    50   ar
    45    35    36    1
    46    73    72    1
    47    72    71    1
    48    61    59   am
    49    70    67    1
    50    67    66    1
    51    67    68    1
    52    51    49   ar
    53    50    48   ar
    54    69    68    2
    55    59    60    2
    56    59    58    1
    57    36    37    2
    58    66    64   am
    59    65    64    2
    60    58    55    1
    61    64    63    1
    62    49    48   ar
    63    48    47    1
    64    57    56    2
    65    55    56    1
    66    55    54    1
    67    63    62    1
    68    47    44    1
    69    43    44    1
    70    44    45    1
    71    45    46    2
