@<TRIPOS>MOLECULE
tmp/6bd3A02.pdb
 82 80 0 0 0
SMALL
GASTEIGER

@<TRIPOS>ATOM
      1  N        207.6900  127.9350  192.4830 N.3    31  TYR31      -0.1228
      2  CA       207.2260  128.7270  191.3580 C.3    31  TYR31       0.1721
      3  C        207.8780  130.1000  191.4410 C.2    31  TYR31       0.2437
      4  O        207.9210  130.7110  192.5110 O.2    31  TYR31      -0.2733
      5  CB       205.7020  128.8500  191.4130 C.3    31  TYR31       0.0547
      6  CG       205.0630  129.1620  190.0820 C.ar   31  TYR31      -0.0200
      7  CD1      204.9650  130.4690  189.6290 C.ar   31  TYR31      -0.0009
      8  CD2      204.5520  128.1480  189.2820 C.ar   31  TYR31      -0.0009
      9  CE1      204.3830  130.7610  188.4140 C.ar   31  TYR31       0.0417
     10  CE2      203.9600  128.4300  188.0590 C.ar   31  TYR31       0.0417
     11  CZ       203.8820  129.7410  187.6340 C.ar   31  TYR31       0.1957
     12  OH       203.2980  130.0390  186.4260 O.3    31  TYR31      -0.2866
     13  N        208.4040  130.5890  190.3120 N.am   32  PRO32      -0.2718
     14  CA       209.1880  131.8280  190.3390 C.3    32  PRO32       0.1535
     15  C        208.3510  133.0940  190.4870 C.2    32  PRO32       0.2599
     16  O        207.1390  133.0940  190.2550 O.2    32  PRO32      -0.2715
     17  CB       209.8810  131.8290  188.9720 C.3    32  PRO32       0.0310
     18  CG       208.9500  131.0570  188.0810 C.3    32  PRO32       0.0237
     19  CD       208.3620  129.9810  188.9690 C.3    32  PRO32       0.0939
     20  N        209.0300  134.1690  190.8750 N.am   33  GLY33      -0.1941
     21  CA       208.4500  135.4950  190.9730 C.3    33  GLY33       0.2014
     22  C        209.5750  136.4590  191.3060 C.2    33  GLY33       0.2639
     23  O        210.6470  136.0270  191.7380 O.2    33  GLY33      -0.2714
     24  N        209.3410  137.7560  191.1210 N.am   34  GLY34      -0.1954
     25  CA       210.3830  138.7580  191.3020 C.3    34  GLY34       0.1869
     26  C        211.0850  138.7510  192.6510 C.2    34  GLY34       0.2309
     27  O        212.3130  138.7880  192.7180 O.2    34  GLY34      -0.2863
     28  N        201.0050  127.3640  192.9080 N.3    57  GLU57      -0.1245
     29  CA       201.8040  127.1680  194.1280 C.3    57  GLU57       0.1567
     30  C        201.2050  126.1650  195.1130 C.2    57  GLU57       0.2260
     31  O        201.9490  125.4850  195.8280 O.2    57  GLU57      -0.2867
     32  CB       202.0670  128.4910  194.8530 C.3    57  GLU57       0.0388
     33  CG       203.0590  129.4120  194.1690 C.3    57  GLU57       0.1160
     34  CD       202.3980  130.3230  193.1670 C.2    57  GLU57       0.3649
     35  OE1      201.1830  130.1570  192.9190 O.co2  57  GLU57      -0.2457
     36  OE2      203.0940  131.2080  192.6300 O.co2  57  GLU57      -0.2457
     37  N        207.1630  132.8980  195.6440 N.3    80  THR80      -0.1218
     38  CA       207.4320  134.3320  195.6760 C.3    80  THR80       0.1862
     39  C        206.5540  135.0650  196.6920 C.2    80  THR80       0.2287
     40  O        205.8360  134.4330  197.4690 O.2    80  THR80      -0.2866
     41  CB       207.2900  134.9570  194.2740 C.3    80  THR80       0.1770
     42  OG1      207.8720  136.2640  194.2660 O.3    80  THR80      -0.2211
     43  CG2      205.8180  135.0320  193.8390 C.3    80  THR80       0.0375
     44  N        200.8500  136.7570  196.4230 N.3    83  PRO83      -0.2102
     45  CA       199.9890  135.6500  195.9890 C.3    83  PRO83       0.1504
     46  C        200.7310  134.3170  195.9580 C.2    83  PRO83       0.2576
     47  O        200.1120  133.2760  196.1830 O.2    83  PRO83      -0.2718
     48  CB       199.5720  136.0620  194.5730 C.3    83  PRO83       0.0282
     49  CG       200.6760  136.9820  194.1010 C.3    83  PRO83       0.0208
     50  CD       201.1070  137.7270  195.3390 C.3    83  PRO83       0.0893
     51  N        202.0320  134.3450  195.6800 N.am   84  GLY84      -0.1957
     52  CA       202.8350  133.1360  195.7580 C.3    84  GLY84       0.1869
     53  C        202.7730  132.5410  197.1540 C.2    84  GLY84       0.2309
     54  O        202.5450  131.3440  197.3260 O.2    84  GLY84      -0.2863
     55  N        199.1360  131.4610  198.2530 N.3    87  ASN87      -0.1240
     56  CA       198.7350  130.2260  197.5770 C.3    87  ASN87       0.1653
     57  C        199.2380  128.9400  198.2460 C.2    87  ASN87       0.2266
     58  O        198.7970  127.8500  197.8840 O.2    87  ASN87      -0.2867
     59  CB       199.1490  130.2420  196.0930 C.3    87  ASN87       0.1155
     60  CG       198.1910  131.0480  195.2200 C.2    87  ASN87       0.2627
     61  OD1      197.0830  131.3840  195.6370 O.2    87  ASN87      -0.2716
     62  ND2      198.6140  131.3470  193.9970 N.am   87  ASN87      -0.0877
     63  N        204.0800  146.7000  196.0970 N.3   119  PHE119     -0.1227
     64  CA       203.5380  145.7430  195.1370 C.3   119  PHE119      0.1736
     65  C        203.7590  144.3250  195.6370 C.2   119  PHE119      0.2595
     66  O        204.8230  144.0140  196.1760 O.2   119  PHE119     -0.2718
     67  CB       204.1620  145.9120  193.7550 C.3   119  PHE119      0.0547
     68  CG       203.7060  144.8780  192.7650 C.ar  119  PHE119     -0.0202
     69  CD1      202.3580  144.7350  192.4670 C.ar  119  PHE119     -0.0042
     70  CD2      204.6190  144.0450  192.1370 C.ar  119  PHE119     -0.0042
     71  CE1      201.9290  143.7810  191.5630 C.ar  119  PHE119     -0.0003
     72  CE2      204.1990  143.0900  191.2250 C.ar  119  PHE119     -0.0003
     73  CZ       202.8510  142.9590  190.9370 C.ar  119  PHE119     -0.0000
     74  N        202.7580  143.4720  195.4320 N.am  120  GLN120     -0.1979
     75  CA       202.6620  142.2020  196.1410 C.3   120  GLN120      0.1601
     76  C        202.7230  142.5280  197.6310 C.2   120  GLN120      0.2287
     77  O        201.9130  143.3160  198.1160 O.2   120  GLN120     -0.2864
     78  CB       203.7570  141.2150  195.7100 C.3   120  GLN120      0.0394
     79  CG       204.0810  141.2770  194.2140 C.3   120  GLN120      0.0908
     80  CD       203.8790  139.9590  193.4830 C.2   120  GLN120      0.2608
     81  OE1      204.6300  139.0040  193.6800 O.2   120  GLN120     -0.2717
     82  NE2      202.8680  139.9080  192.6210 N.am  120  GLN120     -0.0878
@<TRIPOS>BOND
     1    12    11    1
     2    11    10   ar
     3    11     9   ar
     4    10     8   ar
     5    18    19    1
     6    18    17    1
     7     9     7   ar
     8    19    13    1
     9    17    14    1
    10     8     6   ar
    11     7     6   ar
    12     6     5    1
    13    16    15    2
    14    13    14    1
    15    13     3   am
    16    14    15    1
    17    15    20   am
    18    20    21    1
    19    73    72   ar
    20    73    71   ar
    21    21    22    1
    22    24    25    1
    23    24    22   am
    24    72    70   ar
    25    25    26    1
    26    22    23    2
    27     2     5    1
    28     2     3    1
    29     2     1    1
    30     3     4    2
    31    71    69   ar
    32    70    68   ar
    33    69    68   ar
    34    82    80   am
    35    36    34   ar
    36    26    27    2
    37    68    67    1
    38    28    29    1
    39    35    34   ar
    40    34    33    1
    41    80    81    2
    42    80    79    1
    43    67    64    1
    44    43    41    1
    45    62    60   am
    46    49    48    1
    47    49    50    1
    48    29    32    1
    49    29    30    1
    50    33    32    1
    51    79    78    1
    52    42    41    1
    53    41    38    1
    54    48    45    1
    55    30    31    2
    56    64    65    1
    57    64    63    1
    58    60    61    2
    59    60    59    1
    60    50    44    1
    61    74    65   am
    62    74    75    1
    63    65    66    2
    64    37    38    1
    65    38    39    1
    66    51    52    1
    67    51    46   am
    68    78    75    1
    69    52    53    1
    70    46    45    1
    71    46    47    2
    72    45    44    1
    73    59    56    1
    74    75    76    1
    75    39    40    2
    76    53    54    2
    77    56    57    1
    78    56    55    1
    79    76    77    2
    80    58    57    2
