@<TRIPOS>MOLECULE
tmp/6bd6A01.pdb
 184 177 0 0 0
SMALL
GASTEIGER

@<TRIPOS>ATOM
      1  N        -22.0690  -41.2260   -7.2820 N.3    78  ARG78      -0.1231
      2  CA       -21.0780  -41.0220   -8.3110 C.3    78  ARG78       0.1694
      3  C        -19.8910  -41.9230   -8.0610 C.2    78  ARG78       0.2591
      4  O        -19.7740  -42.5780   -7.0180 O.2    78  ARG78      -0.2718
      5  CB       -20.6300  -39.5630   -8.3780 C.3    78  ARG78       0.0321
      6  CG       -21.7360  -38.5730   -8.7690 C.3    78  ARG78       0.0489
      7  CD       -21.1570  -37.1810   -8.9960 C.3    78  ARG78       0.2205
      8  NE       -22.2140  -36.3670   -9.5700 N.pl3  78  ARG78      -0.0865
      9  CZ       -22.9940  -35.5970   -8.8240 C.cat  78  ARG78       0.5346
     10  NH1      -22.7520  -35.5280   -7.5320 N.pl3  78  ARG78       0.1354
     11  NH2      -23.9810  -34.8910   -9.3520 N.pl3  78  ARG78       0.1354
     12  N        -19.0020  -41.9490   -9.0450 N.am   79  ARG79      -0.1980
     13  CA       -17.8430  -42.8200   -8.9780 C.3    79  ARG79       0.1597
     14  C        -17.0610  -42.5350   -7.7020 C.2    79  ARG79       0.2287
     15  O        -16.7440  -41.3650   -7.4200 O.2    79  ARG79      -0.2864
     16  CB       -16.9640  -42.5990  -10.2000 C.3    79  ARG79       0.0334
     17  CG       -15.8810  -43.6290  -10.3450 C.3    79  ARG79       0.0492
     18  CD       -14.7670  -43.0010  -11.0870 C.3    79  ARG79       0.2205
     19  NE       -15.1810  -42.6000  -12.4190 N.pl3  79  ARG79      -0.0865
     20  CZ       -14.8090  -43.2500  -13.5180 C.cat  79  ARG79       0.5346
     21  NH1      -14.0210  -44.2990  -13.4020 N.pl3  79  ARG79       0.1354
     22  NH2      -15.2090  -42.8460  -14.7150 N.pl3  79  ARG79       0.1354
     23  N        -14.4590  -41.6140   -5.0260 N.3    81  PHE81      -0.1241
     24  CA       -13.4530  -40.5910   -5.2490 C.3    81  PHE81       0.1605
     25  C        -12.7400  -40.3770   -3.9200 C.2    81  PHE81       0.2264
     26  O        -13.3930  -40.1020   -2.9090 O.2    81  PHE81      -0.2867
     27  CB       -14.1340  -39.3180   -5.7640 C.3    81  PHE81       0.0534
     28  CG       -13.2630  -38.1090   -5.7650 C.ar   81  PHE81      -0.0203
     29  CD1      -12.1770  -38.0390   -6.5980 C.ar   81  PHE81      -0.0042
     30  CD2      -13.5600  -37.0330   -4.9440 C.ar   81  PHE81      -0.0042
     31  CE1      -11.3890  -36.9240   -6.6010 C.ar   81  PHE81      -0.0003
     32  CE2      -12.7760  -35.9280   -4.9390 C.ar   81  PHE81      -0.0003
     33  CZ       -11.6900  -35.8620   -5.7690 C.ar   81  PHE81      -0.0000
     34  N        -21.8340  -33.2180   -2.6990 N.3    92  SER92      -0.1202
     35  CA       -21.4830  -33.7000   -4.0330 C.3    92  SER92       0.2020
     36  C        -20.7490  -35.0210   -3.9660 C.2    92  SER92       0.2618
     37  O        -20.7310  -35.7630   -4.9490 O.2    92  SER92      -0.2717
     38  CB       -20.6170  -32.6830   -4.7920 C.3    92  SER92       0.2103
     39  OG       -19.4250  -32.4140   -4.0820 O.3    92  SER92      -0.2182
     40  N        -20.1890  -35.3450   -2.8050 N.am   93  ILE93      -0.1979
     41  CA       -19.3850  -36.5440   -2.6110 C.3    93  ILE93       0.1595
     42  C        -20.1210  -37.6170   -1.8290 C.2    93  ILE93       0.2287
     43  O        -19.6810  -38.7770   -1.8350 O.2    93  ILE93      -0.2864
     44  CB       -18.0450  -36.1620   -1.9350 C.3    93  ILE93       0.0276
     45  CG1      -17.1580  -35.4530   -2.9690 C.3    93  ILE93       0.0022
     46  CG2      -17.3040  -37.3320   -1.2820 C.3    93  ILE93       0.0022
     47  CD1      -16.1800  -34.4390   -2.3960 C.3    93  ILE93       0.0001
     48  N         -7.8420  -23.5070   -3.7810 N.3   183  LEU183     -0.1231
     49  CA        -8.6130  -24.5720   -4.3980 C.3   183  LEU183      0.1693
     50  C         -8.1090  -24.8010   -5.8160 C.2   183  LEU183      0.2592
     51  O         -7.7150  -23.8610   -6.5120 O.2   183  LEU183     -0.2718
     52  CB       -10.1030  -24.2220   -4.4070 C.3   183  LEU183      0.0284
     53  CG       -10.5630  -22.9350   -5.1100 C.3   183  LEU183      0.0019
     54  CD1      -10.8260  -23.1510   -6.5970 C.3   183  LEU183      0.0001
     55  CD2      -11.8010  -22.3640   -4.4360 C.3   183  LEU183      0.0001
     56  N         -8.1070  -26.0600   -6.2430 N.am  184  LEU184     -0.1966
     57  CA        -7.7060  -26.4100   -7.6000 C.3   184  LEU184      0.1728
     58  C         -8.6730  -27.4650   -8.1120 C.2   184  LEU184      0.2616
     59  O         -8.7490  -28.5520   -7.5320 O.2   184  LEU184     -0.2715
     60  CB        -6.2610  -26.9380   -7.6390 C.3   184  LEU184      0.0311
     61  CG        -5.0800  -26.0210   -7.2740 C.3   184  LEU184      0.0022
     62  CD1       -3.7700  -26.8150   -7.2460 C.3   184  LEU184      0.0001
     63  CD2       -4.9740  -24.8340   -8.2290 C.3   184  LEU184      0.0001
     64  N         -9.4250  -27.1520   -9.1730 N.am  185  ARG185     -0.1963
     65  CA       -10.2150  -28.2010   -9.8060 C.3   185  ARG185      0.1729
     66  C         -9.2670  -29.3030  -10.2360 C.2   185  ARG185      0.2616
     67  O         -8.2190  -29.0430  -10.8330 O.2   185  ARG185     -0.2715
     68  CB       -11.0210  -27.6960  -11.0090 C.3   185  ARG185      0.0348
     69  CG       -12.1460  -28.6760  -11.4010 C.3   185  ARG185      0.0492
     70  CD       -12.7270  -28.4610  -12.7980 C.3   185  ARG185      0.2205
     71  NE       -13.4880  -29.6430  -13.1970 N.pl3 185  ARG185     -0.0865
     72  CZ       -13.7790  -29.9860  -14.4480 C.cat 185  ARG185      0.5346
     73  NH1      -13.3810  -29.2370  -15.4710 N.pl3 185  ARG185      0.1354
     74  NH2      -14.4720  -31.0950  -14.6700 N.pl3 185  ARG185      0.1354
     75  N         -9.6170  -30.5290   -9.9000 N.am  186  PHE186     -0.1974
     76  CA        -8.6560  -31.6130   -9.9660 C.3   186  PHE186      0.1639
     77  C         -8.4750  -32.0720  -11.4080 C.2   186  PHE186      0.2290
     78  O         -9.4500  -32.4500  -12.0680 O.2   186  PHE186     -0.2864
     79  CB        -9.1340  -32.7470   -9.0710 C.3   186  PHE186      0.0560
     80  CG        -9.4370  -32.3190   -7.6590 C.ar  186  PHE186     -0.0200
     81  CD1      -10.7380  -32.3280   -7.1820 C.ar  186  PHE186     -0.0042
     82  CD2       -8.4160  -31.9250   -6.8010 C.ar  186  PHE186     -0.0042
     83  CE1      -11.0180  -31.9580   -5.8790 C.ar  186  PHE186     -0.0003
     84  CE2       -8.6850  -31.5490   -5.4950 C.ar  186  PHE186     -0.0003
     85  CZ        -9.9890  -31.5670   -5.0330 C.ar  186  PHE186     -0.0000
     86  N         -8.0360  -34.7100  -13.5050 N.3   188  PHE188     -0.1241
     87  CA        -8.1060  -36.1580  -13.3940 C.3   188  PHE188      0.1605
     88  C         -7.1690  -36.8670  -14.3690 C.2   188  PHE188      0.2264
     89  O         -7.0190  -38.0910  -14.2670 O.2   188  PHE188     -0.2867
     90  CB        -9.5480  -36.6250  -13.5850 C.3   188  PHE188      0.0534
     91  CG       -10.4040  -36.4550  -12.3630 C.ar  188  PHE188     -0.0203
     92  CD1       -9.8900  -36.6990  -11.1010 C.ar  188  PHE188     -0.0042
     93  CD2      -11.7220  -36.0400  -12.4730 C.ar  188  PHE188     -0.0042
     94  CE1      -10.6820  -36.5420   -9.9710 C.ar  188  PHE188     -0.0003
     95  CE2      -12.5100  -35.8810  -11.3460 C.ar  188  PHE188     -0.0003
     96  CZ       -11.9840  -36.1350  -10.0940 C.ar  188  PHE188     -0.0000
     97  N         -8.0250  -32.5460   -0.7320 N.3   214  PHE214     -0.1241
     98  CA        -8.2210  -31.1720   -0.3030 C.3   214  PHE214      0.1605
     99  C         -7.1150  -30.8350    0.6870 C.2   214  PHE214      0.2264
    100  O         -7.0570  -31.4510    1.7610 O.2   214  PHE214     -0.2867
    101  CB        -9.6020  -30.9980    0.3170 C.3   214  PHE214      0.0534
    102  CG       -10.7230  -31.5030   -0.5710 C.ar  214  PHE214     -0.0203
    103  CD1      -11.2520  -32.7750   -0.3930 C.ar  214  PHE214     -0.0042
    104  CD2      -11.2130  -30.7260   -1.6190 C.ar  214  PHE214     -0.0042
    105  CE1      -12.2790  -33.2520   -1.2220 C.ar  214  PHE214     -0.0003
    106  CE2      -12.2360  -31.1990   -2.4540 C.ar  214  PHE214     -0.0003
    107  CZ       -12.7670  -32.4590   -2.2540 C.ar  214  PHE214     -0.0000
    108  N        -17.0150  -25.7090    1.8890 N.3   261  ILE261     -0.1231
    109  CA       -15.8890  -25.8660    0.9870 C.3   261  ILE261      0.1692
    110  C        -16.3710  -26.1890   -0.4220 C.2   261  ILE261      0.2591
    111  O        -15.8870  -25.6090   -1.3960 O.2   261  ILE261     -0.2718
    112  CB       -14.9330  -26.9290    1.5350 C.3   261  ILE261      0.0266
    113  CG1      -14.4200  -26.4670    2.9120 C.3   261  ILE261      0.0019
    114  CG2      -13.8480  -27.2270    0.4960 C.3   261  ILE261      0.0020
    115  CD1      -13.7080  -27.5320    3.7390 C.3   261  ILE261      0.0001
    116  N        -17.3370  -27.1050   -0.5500 N.am  262  ILE262     -0.1980
    117  CA       -17.8590  -27.4560   -1.8680 C.3   262  ILE262      0.1595
    118  C        -18.4530  -26.2200   -2.5340 C.2   262  ILE262      0.2287
    119  O        -18.1680  -25.9370   -3.6960 O.2   262  ILE262     -0.2864
    120  CB       -18.9170  -28.5710   -1.7610 C.3   262  ILE262      0.0276
    121  CG1      -18.3270  -29.8010   -1.0690 C.3   262  ILE262      0.0022
    122  CG2      -19.4510  -28.9330   -3.1380 C.3   262  ILE262      0.0022
    123  CD1      -17.1240  -30.3820   -1.7790 C.3   262  ILE262      0.0001
    124  N        -15.5270  -23.6270   -3.8650 N.3   265  PHE265     -0.1227
    125  CA       -14.9570  -23.9560   -5.1600 C.3   265  PHE265      0.1736
    126  C        -16.0160  -23.8450   -6.2300 C.2   265  PHE265      0.2595
    127  O        -15.8280  -23.1510   -7.2380 O.2   265  PHE265     -0.2718
    128  CB       -14.3780  -25.3590   -5.1880 C.3   265  PHE265      0.0547
    129  CG       -14.1920  -25.8980   -6.5910 C.ar  265  PHE265     -0.0202
    130  CD1      -13.0120  -25.6610   -7.2890 C.ar  265  PHE265     -0.0042
    131  CD2      -15.2040  -26.6250   -7.2240 C.ar  265  PHE265     -0.0042
    132  CE1      -12.8440  -26.1430   -8.5840 C.ar  265  PHE265     -0.0003
    133  CE2      -15.0350  -27.1040   -8.5200 C.ar  265  PHE265     -0.0003
    134  CZ       -13.8630  -26.8660   -9.1970 C.ar  265  PHE265     -0.0000
    135  N        -17.1350  -24.5450   -6.0070 N.am  266  ALA266     -0.1980
    136  CA       -18.2010  -24.7380   -6.9700 C.3   266  ALA266      0.1597
    137  C        -18.3740  -23.4570   -7.7530 C.2   266  ALA266      0.2287
    138  O        -18.2790  -23.4730   -8.9680 O.2   266  ALA266     -0.2864
    139  CB       -19.5050  -25.1390   -6.2740 C.3   266  ALA266      0.0319
    140  N        -15.6260  -22.4640  -11.4280 N.3   270  THR270     -0.1218
    141  CA       -16.6600  -22.7510  -12.4160 C.3   270  THR270      0.1862
    142  C        -17.2570  -21.4710  -12.9760 C.2   270  THR270      0.2287
    143  O        -17.1520  -21.2060  -14.1760 O.2   270  THR270     -0.2866
    144  CB       -17.7640  -23.5880  -11.8050 C.3   270  THR270      0.1770
    145  OG1      -17.1690  -24.8130  -11.3740 O.3   270  THR270     -0.2211
    146  CG2      -18.8580  -23.8440  -12.8420 C.3   270  THR270      0.0375
    147  N        -18.5740  -27.6220  -18.4930 N.3   330  ILE330     -0.1231
    148  CA       -17.3840  -27.7830  -17.6680 C.3   330  ILE330      0.1692
    149  C        -17.3030  -29.1180  -16.9430 C.2   330  ILE330      0.2591
    150  O        -16.2080  -29.5110  -16.5440 O.2   330  ILE330     -0.2718
    151  CB       -17.3060  -26.6490  -16.6580 C.3   330  ILE330      0.0266
    152  CG1      -18.6560  -26.5300  -15.9960 C.3   330  ILE330      0.0019
    153  CG2      -16.9380  -25.3550  -17.3420 C.3   330  ILE330      0.0020
    154  CD1      -18.5820  -25.8260  -14.6940 C.3   330  ILE330      0.0001
    155  N        -18.4140  -29.8380  -16.7890 N.am  331  ALA331     -0.1980
    156  CA       -18.3780  -31.1570  -16.1750 C.3   331  ALA331      0.1597
    157  C        -17.9150  -32.2560  -17.1240 C.2   331  ALA331      0.2287
    158  O        -17.5600  -33.3440  -16.6420 O.2   331  ALA331     -0.2864
    159  CB       -19.7690  -31.5360  -15.6520 C.3   331  ALA331      0.0319
    160  N        -18.5500  -34.9320  -18.4220 N.3   333  ARG333     -0.1231
    161  CA       -19.3300  -36.1590  -18.3000 C.3   333  ARG333      0.1694
    162  C        -20.1900  -36.1540  -17.0450 C.2   333  ARG333      0.2591
    163  O        -19.8370  -35.5300  -16.0480 O.2   333  ARG333     -0.2718
    164  CB       -18.3760  -37.3410  -18.1800 C.3   333  ARG333      0.0321
    165  CG       -17.2240  -37.3450  -19.1700 C.3   333  ARG333      0.0489
    166  CD       -16.3700  -38.5050  -18.7620 C.3   333  ARG333      0.2205
    167  NE       -15.6460  -39.1580  -19.8470 N.pl3 333  ARG333     -0.0865
    168  CZ       -14.6690  -40.0580  -19.6950 C.cat 333  ARG333      0.5346
    169  NH1      -14.2950  -40.4170  -18.4720 N.pl3 333  ARG333      0.1354
    170  NH2      -14.0810  -40.6230  -20.7690 N.pl3 333  ARG333      0.1354
    171  N        -21.3170  -36.8580  -17.0930 N.am  334  LEU334     -0.1980
    172  CA       -22.0690  -37.2270  -15.8990 C.3   334  LEU334      0.1596
    173  C        -21.8410  -38.7090  -15.5710 C.2   334  LEU334      0.2287
    174  O        -21.5750  -39.5170  -16.4570 O.2   334  LEU334     -0.2864
    175  CB       -23.5540  -36.9350  -16.1280 C.3   334  LEU334      0.0297
    176  CG       -23.8100  -35.5050  -16.6530 C.3   334  LEU334      0.0022
    177  CD1      -25.2080  -35.4480  -17.1680 C.3   334  LEU334      0.0001
    178  CD2      -23.6020  -34.4010  -15.6010 C.3   334  LEU334      0.0001
    179  N        -27.2670  -30.2640  -10.7720 N.3   403  CYS403     -0.1235
    180  CA       -26.5490  -29.2120  -10.0490 C.3   403  CYS403      0.1677
    181  C        -27.4580  -28.4420   -9.0990 C.2   403  CYS403      0.2270
    182  O        -28.3810  -27.7390   -9.5420 O.2   403  CYS403     -0.2867
    183  CB       -25.9460  -28.2340  -11.0410 C.3   403  CYS403      0.0956
    184  SG       -25.0690  -26.8560  -10.1950 S.3   403  CYS403     -0.0801
@<TRIPOS>BOND
     1   170   168    1
     2   167   168    2
     3   167   166    1
     4   168   169    1
     5   165   166    1
     6   165   164    1
     7   147   148    1
     8   160   161    1
     9   161   164    1
    10   161   162    1
    11   148   149    1
    12   148   151    1
    13   153   151    1
    14   177   176    1
    15   157   158    2
    16   157   156    1
    17   171   162   am
    18   171   172    1
    19   162   163    2
    20   149   155   am
    21   149   150    2
    22   155   156    1
    23   151   152    1
    24   176   175    1
    25   176   178    1
    26   174   173    2
    27   156   159    1
    28   175   172    1
    29   152   154    1
    30   172   173    1
    31    73    72    1
    32    22    20    1
    33    74    72    1
    34    72    71    2
    35    88    89    2
    36    88    87    1
    37   143   142    2
    38    90    87    1
    39    90    91    1
    40    20    21    1
    41    20    19    2
    42    86    87    1
    43    71    70    1
    44   142   141    1
    45   146   144    1
    46    70    69    1
    47    93    91   ar
    48    93    95   ar
    49    19    18    1
    50   141   144    1
    51   141   140    1
    52    91    92   ar
    53    78    77    2
    54   144   145    1
    55    77    76    1
    56    69    68    1
    57    95    96   ar
    58    92    94   ar
    59    18    17    1
    60   183   184    1
    61   183   180    1
    62    68    65    1
    63    67    66    2
    64   179   180    1
    65    17    16    1
    66    66    75   am
    67    66    65    1
    68    16    13    1
    69    96    94   ar
    70   180   181    1
    71    76    75    1
    72    76    79    1
    73    65    64    1
    74     8     7    1
    75     8     9    2
    76   182   181    2
    77    11     9    1
    78   134   132   ar
    79   134   133   ar
    80    64    58   am
    81    79    80    1
    82    12    13    1
    83    12     3   am
    84     7     6    1
    85    13    14    1
    86   138   137    2
    87     9    10    1
    88     6     5    1
    89   132   130   ar
    90   133   131   ar
    91     5     2    1
    92     2     3    1
    93     2     1    1
    94    63    61    1
    95    58    57    1
    96    58    59    2
    97     3     4    2
    98   137   136    1
    99    14    15    2
   100    80    81   ar
   101    80    82   ar
   102    60    57    1
   103    60    61    1
   104    57    56    1
   105   130   129   ar
   106    61    62    1
   107   127   126    2
   108   131   129   ar
   109    81    83   ar
   110   136   139    1
   111   136   135    1
   112    82    84   ar
   113    31    29   ar
   114    31    33   ar
   115    29    28   ar
   116    54    53    1
   117   129   128    1
   118    51    50    2
   119    56    50   am
   120   126   135   am
   121   126   125    1
   122    83    85   ar
   123    50    49    1
   124    33    32   ar
   125    28    27    1
   126    28    30   ar
   127    27    24    1
   128    84    85   ar
   129    24    23    1
   130    24    25    1
   131   128   125    1
   132   125   124    1
   133    53    55    1
   134    53    52    1
   135    37    36    2
   136    30    32   ar
   137    38    39    1
   138    38    35    1
   139    52    49    1
   140    49    48    1
   141    35    36    1
   142    35    34    1
   143    36    40   am
   144    25    26    2
   145   119   118    2
   146   122   120    1
   147    45    47    1
   148    45    44    1
   149    40    41    1
   150    41    44    1
   151    41    42    1
   152   118   117    1
   153   106   107   ar
   154   106   104   ar
   155   107   105   ar
   156    44    46    1
   157   117   120    1
   158   117   116    1
   159    43    42    2
   160   123   121    1
   161   120   121    1
   162   104   102   ar
   163   111   110    2
   164   105   103   ar
   165    97    98    1
   166   102   103   ar
   167   102   101    1
   168   116   110   am
   169   110   109    1
   170    98   101    1
   171    98    99    1
   172   114   112    1
   173    99   100    2
   174   109   112    1
   175   109   108    1
   176   112   113    1
   177   113   115    1
