@<TRIPOS>MOLECULE
tmp/6bd7A01.pdb
 192 185 0 0 0
SMALL
GASTEIGER

@<TRIPOS>ATOM
      1  N        -10.5110  -37.0430  -22.4410 N.3    30  PHE30      -0.1241
      2  CA       -11.8300  -37.6670  -22.4270 C.3    30  PHE30       0.1605
      3  C        -12.6410  -37.2430  -23.6250 C.2    30  PHE30       0.2264
      4  O        -13.3380  -38.0600  -24.2380 O.2    30  PHE30      -0.2867
      5  CB       -12.6070  -37.2940  -21.1600 C.3    30  PHE30       0.0534
      6  CG       -11.9020  -37.6100  -19.9000 C.ar   30  PHE30      -0.0203
      7  CD1      -11.2620  -36.6140  -19.1860 C.ar   30  PHE30      -0.0042
      8  CD2      -11.8750  -38.9060  -19.4200 C.ar   30  PHE30      -0.0042
      9  CE1      -10.6030  -36.9090  -18.0120 C.ar   30  PHE30      -0.0003
     10  CE2      -11.2150  -39.2120  -18.2490 C.ar   30  PHE30      -0.0003
     11  CZ       -10.5790  -38.2110  -17.5420 C.ar   30  PHE30      -0.0000
     12  N        -22.1520  -42.0770   -7.5920 N.3    78  ARG78      -0.1231
     13  CA       -21.0700  -41.8300   -8.5450 C.3    78  ARG78       0.1694
     14  C        -19.8840  -42.7350   -8.2280 C.2    78  ARG78       0.2591
     15  O        -19.8290  -43.3820   -7.1790 O.2    78  ARG78      -0.2718
     16  CB       -20.6350  -40.3530   -8.5040 C.3    78  ARG78       0.0321
     17  CG       -21.7530  -39.3890   -8.9410 C.3    78  ARG78       0.0489
     18  CD       -21.3290  -37.9000   -9.0310 C.3    78  ARG78       0.2205
     19  NE       -22.4310  -37.1020   -9.5800 N.pl3  78  ARG78      -0.0865
     20  CZ       -23.1830  -36.2910   -8.8470 C.cat  78  ARG78       0.5346
     21  NH1      -22.9040  -36.1520   -7.5520 N.pl3  78  ARG78       0.1354
     22  NH2      -24.1870  -35.6160   -9.3930 N.pl3  78  ARG78       0.1354
     23  N        -18.9400  -42.7970   -9.1590 N.am   79  ARG79      -0.1980
     24  CA       -17.8560  -43.7560   -9.0100 C.3    79  ARG79       0.1597
     25  C        -17.1180  -43.4750   -7.7090 C.2    79  ARG79       0.2287
     26  O        -16.7940  -42.3140   -7.4330 O.2    79  ARG79      -0.2864
     27  CB       -16.8850  -43.7050  -10.1900 C.3    79  ARG79       0.0334
     28  CG       -15.9530  -44.9030  -10.2110 C.3    79  ARG79       0.0492
     29  CD       -14.8310  -44.7490  -11.1990 C.3    79  ARG79       0.2205
     30  NE       -15.2850  -44.1110  -12.4170 N.pl3  79  ARG79      -0.0865
     31  CZ       -14.6520  -44.1990  -13.5780 C.cat  79  ARG79       0.5346
     32  NH1      -13.5360  -44.9070  -13.6630 N.pl3  79  ARG79       0.1354
     33  NH2      -15.1450  -43.5960  -14.6560 N.pl3  79  ARG79       0.1354
     34  N        -14.7170  -42.4620   -4.8740 N.3    81  PHE81      -0.1241
     35  CA       -13.7540  -41.3900   -5.0420 C.3    81  PHE81       0.1605
     36  C        -12.9590  -41.2210   -3.7580 C.2    81  PHE81       0.2264
     37  O        -13.5440  -41.0230   -2.6880 O.2    81  PHE81      -0.2867
     38  CB       -14.4670  -40.0880   -5.3960 C.3    81  PHE81       0.0534
     39  CG       -13.5400  -38.9340   -5.5890 C.ar   81  PHE81      -0.0203
     40  CD1      -12.5400  -38.9920   -6.5430 C.ar   81  PHE81      -0.0042
     41  CD2      -13.6680  -37.7890   -4.8200 C.ar   81  PHE81      -0.0042
     42  CE1      -11.6820  -37.9340   -6.7240 C.ar   81  PHE81      -0.0003
     43  CE2      -12.8110  -36.7260   -4.9940 C.ar   81  PHE81      -0.0003
     44  CZ       -11.8150  -36.7970   -5.9480 C.ar   81  PHE81      -0.0000
     45  N        -22.1030  -34.0600   -2.6750 N.3    92  SER92      -0.1202
     46  CA       -21.8010  -34.5800   -4.0000 C.3    92  SER92       0.2020
     47  C        -20.9940  -35.8740   -3.9180 C.2    92  SER92       0.2618
     48  O        -20.9000  -36.6090   -4.9060 O.2    92  SER92      -0.2717
     49  CB       -21.0600  -33.5150   -4.8030 C.3    92  SER92       0.2103
     50  OG       -19.7940  -33.2530   -4.2170 O.3    92  SER92      -0.2182
     51  N        -20.4480  -36.1870   -2.7490 N.am   93  ILE93      -0.1979
     52  CA       -19.6560  -37.3850   -2.6000 C.3    93  ILE93       0.1595
     53  C        -20.4700  -38.4350   -1.8520 C.2    93  ILE93       0.2287
     54  O        -20.2700  -39.6430   -2.0280 O.2    93  ILE93      -0.2864
     55  CB       -18.3290  -37.0480   -1.8740 C.3    93  ILE93       0.0276
     56  CG1      -17.5620  -36.0230   -2.7070 C.3    93  ILE93       0.0022
     57  CG2      -17.4760  -38.2530   -1.7220 C.3    93  ILE93       0.0022
     58  CD1      -16.6880  -35.0470   -1.8690 C.3    93  ILE93       0.0001
     59  N        -10.3160  -27.2840   -9.6400 N.3   185  ARG185     -0.1231
     60  CA       -10.9370  -28.4440  -10.2660 C.3   185  ARG185      0.1694
     61  C         -9.9060  -29.5460  -10.4930 C.2   185  ARG185      0.2592
     62  O         -8.8210  -29.3030  -11.0260 O.2   185  ARG185     -0.2718
     63  CB       -11.5970  -28.0210  -11.5900 C.3   185  ARG185      0.0321
     64  CG       -12.3850  -29.1160  -12.3250 C.3   185  ARG185      0.0489
     65  CD       -13.3850  -28.5630  -13.3660 C.3   185  ARG185      0.2205
     66  NE       -12.7840  -28.0090  -14.5830 N.pl3 185  ARG185     -0.0865
     67  CZ       -12.8980  -26.7360  -14.9610 C.cat 185  ARG185      0.5346
     68  NH1      -13.5920  -25.8800  -14.2200 N.pl3 185  ARG185      0.1354
     69  NH2      -12.3200  -26.3130  -16.0770 N.pl3 185  ARG185      0.1354
     70  N        -10.2540  -30.7590  -10.0700 N.am  186  PHE186     -0.1976
     71  CA        -9.3490  -31.8970  -10.1540 C.3   186  PHE186      0.1639
     72  C         -9.1160  -32.3340  -11.5940 C.2   186  PHE186      0.2290
     73  O        -10.0680  -32.6170  -12.3270 O.2   186  PHE186     -0.2864
     74  CB        -9.9210  -33.0630   -9.3580 C.3   186  PHE186      0.0560
     75  CG       -10.0550  -32.7730   -7.9050 C.ar  186  PHE186     -0.0200
     76  CD1      -11.0860  -33.3070   -7.1650 C.ar  186  PHE186     -0.0042
     77  CD2       -9.1290  -31.9650   -7.2710 C.ar  186  PHE186     -0.0042
     78  CE1      -11.1850  -33.0330   -5.8050 C.ar  186  PHE186     -0.0003
     79  CE2       -9.2260  -31.6960   -5.9310 C.ar  186  PHE186     -0.0003
     80  CZ       -10.2550  -32.2260   -5.1960 C.ar  186  PHE186     -0.0000
     81  N         -8.4110  -35.1960  -13.5470 N.3   188  PHE188     -0.1241
     82  CA        -8.4590  -36.6560  -13.3890 C.3   188  PHE188      0.1605
     83  C         -7.5020  -37.4140  -14.3520 C.2   188  PHE188      0.2264
     84  O         -7.6500  -38.6480  -14.4070 O.2   188  PHE188     -0.2867
     85  CB        -9.8960  -37.1710  -13.5660 C.3   188  PHE188      0.0534
     86  CG       -10.7600  -37.0070  -12.3360 C.ar  188  PHE188     -0.0203
     87  CD1      -10.6090  -37.8550  -11.2500 C.ar  188  PHE188     -0.0042
     88  CD2      -11.7170  -36.0020  -12.2640 C.ar  188  PHE188     -0.0042
     89  CE1      -11.3980  -37.7070  -10.1170 C.ar  188  PHE188     -0.0003
     90  CE2      -12.5020  -35.8530  -11.1290 C.ar  188  PHE188     -0.0003
     91  CZ       -12.3370  -36.7080  -10.0550 C.ar  188  PHE188     -0.0000
     92  N         -8.4060  -33.1020   -0.7160 N.3   214  PHE214     -0.1241
     93  CA        -8.6620  -31.7180   -0.3470 C.3   214  PHE214      0.1605
     94  C         -7.5940  -31.3250    0.6560 C.2   214  PHE214      0.2264
     95  O         -7.6640  -31.7430    1.8260 O.2   214  PHE214     -0.2867
     96  CB       -10.0700  -31.5350    0.2400 C.3   214  PHE214      0.0534
     97  CG       -11.1860  -31.7590   -0.7680 C.ar  214  PHE214     -0.0203
     98  CD1      -11.8610  -32.9720   -0.8310 C.ar  214  PHE214     -0.0042
     99  CD2      -11.5470  -30.7650   -1.6650 C.ar  214  PHE214     -0.0042
    100  CE1      -12.8900  -33.1850   -1.7780 C.ar  214  PHE214     -0.0003
    101  CE2      -12.5730  -30.9710   -2.6090 C.ar  214  PHE214     -0.0003
    102  CZ       -13.2390  -32.1840   -2.6640 C.ar  214  PHE214     -0.0000
    103  N        -17.6370  -27.6500   -0.4120 N.3   266  ILE266     -0.1245
    104  CA       -17.9980  -28.1410   -1.7420 C.3   266  ILE266      0.1561
    105  C        -18.5830  -27.0130   -2.5840 C.2   266  ILE266      0.2260
    106  O        -18.1900  -26.8350   -3.7400 O.2   266  ILE266     -0.2867
    107  CB       -18.9280  -29.3770   -1.6310 C.3   266  ILE266      0.0252
    108  CG1      -18.6330  -30.4140   -2.7180 C.3   266  ILE266      0.0019
    109  CG2      -20.3730  -29.0290   -1.7510 C.3   266  ILE266      0.0019
    110  CD1      -17.3650  -31.1700   -2.5160 C.3   266  ILE266      0.0001
    111  N        -15.6440  -25.0680   -3.8840 N.3   269  PHE269     -0.1227
    112  CA       -15.0050  -25.8590   -4.9380 C.3   269  PHE269      0.1736
    113  C        -15.8300  -25.9010   -6.2210 C.2   269  PHE269      0.2595
    114  O        -15.2860  -25.7460   -7.3130 O.2   269  PHE269     -0.2718
    115  CB       -14.7630  -27.2700   -4.3830 C.3   269  PHE269      0.0547
    116  CG       -14.2770  -28.2820   -5.3840 C.ar  269  PHE269     -0.0202
    117  CD1      -13.1000  -28.0890   -6.0870 C.ar  269  PHE269     -0.0042
    118  CD2      -14.9740  -29.4690   -5.5720 C.ar  269  PHE269     -0.0042
    119  CE1      -12.6510  -29.0500   -6.9880 C.ar  269  PHE269     -0.0003
    120  CE2      -14.5270  -30.4260   -6.4630 C.ar  269  PHE269     -0.0003
    121  CZ       -13.3660  -30.2190   -7.1690 C.ar  269  PHE269     -0.0000
    122  N        -17.1460  -26.1220   -6.1050 N.am  270  ALA270     -0.1980
    123  CA       -18.0000  -26.2260   -7.2780 C.3   270  ALA270      0.1597
    124  C        -18.1170  -24.9010   -8.0100 C.2   270  ALA270      0.2287
    125  O        -18.1550  -24.8850   -9.2400 O.2   270  ALA270     -0.2864
    126  CB       -19.3970  -26.6900   -6.8890 C.3   270  ALA270      0.0319
    127  N        -15.5950  -23.0080  -11.8240 N.3   274  THR274     -0.1218
    128  CA       -16.5710  -23.2520  -12.8680 C.3   274  THR274      0.1862
    129  C        -17.1070  -21.9350  -13.4020 C.2   274  THR274      0.2287
    130  O        -17.0120  -21.6570  -14.6020 O.2   274  THR274     -0.2866
    131  CB       -17.6810  -24.1340  -12.3200 C.3   274  THR274      0.1770
    132  OG1      -18.2890  -23.4800  -11.1890 O.3   274  THR274     -0.2211
    133  CG2      -17.1040  -25.4750  -11.9350 C.3   274  THR274      0.0375
    134  N        -18.5400  -28.2880  -18.9580 N.3   334  ILE334     -0.1231
    135  CA       -17.2470  -28.4390  -18.2940 C.3   334  ILE334      0.1692
    136  C        -17.1320  -29.7030  -17.4560 C.2   334  ILE334      0.2592
    137  O        -16.0130  -30.0750  -17.1000 O.2   334  ILE334     -0.2718
    138  CB       -16.9600  -27.2230  -17.4010 C.3   334  ILE334      0.0266
    139  CG1      -18.1720  -26.9750  -16.5050 C.3   334  ILE334      0.0019
    140  CG2      -16.6350  -26.0040  -18.2490 C.3   334  ILE334      0.0020
    141  CD1      -17.9120  -25.9560  -15.4300 C.3   334  ILE334      0.0001
    142  N        -18.2540  -30.3340  -17.0840 N.am  335  ALA335     -0.1966
    143  CA       -18.2070  -31.6730  -16.4830 C.3   335  ALA335      0.1728
    144  C        -17.7920  -32.7420  -17.4780 C.2   335  ALA335      0.2616
    145  O        -17.3730  -33.8220  -17.0620 O.2   335  ALA335     -0.2715
    146  CB       -19.5720  -32.0840  -15.9190 C.3   335  ALA335      0.0334
    147  N        -18.0390  -32.5170  -18.7700 N.am  336  MET336     -0.1963
    148  CA       -17.6480  -33.4420  -19.8240 C.3   336  MET336      0.1736
    149  C        -18.5240  -34.6920  -19.8370 C.2   336  MET336      0.2616
    150  O        -19.1230  -35.0010  -20.8680 O.2   336  MET336     -0.2715
    151  CB       -16.1640  -33.7380  -19.7000 C.3   336  MET336      0.0427
    152  CG       -15.3620  -32.6430  -20.2970 C.3   336  MET336      0.0599
    153  SD       -13.6440  -33.0500  -20.1700 S.3   336  MET336     -0.1393
    154  CE       -13.3550  -32.9010  -18.3900 C.3   336  MET336      0.0692
    155  N        -18.5810  -35.4300  -18.7220 N.am  337  ARG337     -0.1963
    156  CA       -19.3950  -36.6300  -18.6320 C.3   337  ARG337      0.1729
    157  C        -20.2770  -36.6330  -17.3930 C.2   337  ARG337      0.2616
    158  O        -19.9730  -35.9870  -16.3920 O.2   337  ARG337     -0.2715
    159  CB       -18.5000  -37.8830  -18.5590 C.3   337  ARG337      0.0348
    160  CG       -17.2580  -37.9070  -19.4300 C.3   337  ARG337      0.0492
    161  CD       -16.4130  -39.0960  -18.9990 C.3   337  ARG337      0.2205
    162  NE       -15.7280  -39.7590  -20.1070 N.pl3 337  ARG337     -0.0865
    163  CZ       -14.8200  -40.7220  -19.9610 C.cat 337  ARG337      0.5346
    164  NH1      -14.4870  -41.1480  -18.7430 N.pl3 337  ARG337      0.1354
    165  NH2      -14.2510  -41.2800  -21.0280 N.pl3 337  ARG337      0.1354
    166  N        -21.3510  -37.4070  -17.4660 N.am  338  LEU338     -0.1963
    167  CA       -22.1380  -37.8340  -16.3240 C.3   338  LEU338      0.1728
    168  C        -21.9330  -39.3270  -16.0690 C.2   338  LEU338      0.2616
    169  O        -21.7720  -40.1140  -17.0090 O.2   338  LEU338     -0.2715
    170  CB       -23.6270  -37.5550  -16.5750 C.3   338  LEU338      0.0311
    171  CG       -23.8390  -36.0940  -17.0130 C.3   338  LEU338      0.0022
    172  CD1      -25.2040  -35.9530  -17.6410 C.3   338  LEU338      0.0001
    173  CD2      -23.6320  -35.0710  -15.8720 C.3   338  LEU338      0.0001
    174  N        -21.9800  -39.7210  -14.7900 N.am  339  GLU339     -0.1977
    175  CA       -21.6780  -41.0820  -14.3890 C.3   339  GLU339      0.1602
    176  C        -22.5490  -41.5050  -13.2210 C.2   339  GLU339      0.2287
    177  O        -22.8050  -40.7090  -12.3160 O.2   339  GLU339     -0.2864
    178  CB       -20.2150  -41.2200  -13.9670 C.3   339  GLU339      0.0415
    179  CG       -19.1980  -40.9250  -15.0570 C.3   339  GLU339      0.1163
    180  CD       -17.7740  -41.2550  -14.5900 C.2   339  GLU339      0.3649
    181  OE1      -17.6320  -41.8270  -13.4730 O.co2 339  GLU339     -0.2457
    182  OE2      -16.8080  -40.9270  -15.3310 O.co2 339  GLU339     -0.2457
    183  N        -27.2070  -30.9880  -10.9800 N.3   407  CYS407     -0.1235
    184  CA       -26.5690  -29.8480  -10.3190 C.3   407  CYS407      0.1677
    185  C        -27.5010  -29.0630   -9.3980 C.2   407  CYS407      0.2270
    186  O        -28.4230  -28.3910   -9.8640 O.2   407  CYS407     -0.2867
    187  CB       -26.0140  -28.8750  -11.3490 C.3   407  CYS407      0.0956
    188  SG       -24.9720  -27.5590  -10.5520 S.3   407  CYS407     -0.0801
    189  N         -7.5610  -33.4280  -18.2250 N.3   446  GLY446     -0.1225
    190  CA        -8.7950  -34.0050  -17.7040 C.3   446  GLY446      0.1811
    191  C         -9.7640  -32.9450  -17.2180 C.2   446  GLY446      0.2280
    192  O        -10.6350  -33.1910  -16.3860 O.2   446  GLY446     -0.2866
@<TRIPOS>BOND
     1     4     3    2
     2     3     2    1
     3     1     2    1
     4     2     5    1
     5     5     6    1
     6   165   163    1
     7   150   149    2
     8   152   153    1
     9   152   151    1
    10   153   154    1
    11   162   163    2
    12   162   161    1
    13   163   164    1
    14     6     8   ar
    15     6     7   ar
    16   149   148    1
    17   149   155   am
    18   148   151    1
    19   148   147    1
    20   160   161    1
    21   160   159    1
    22     8    10   ar
    23     7     9   ar
    24   134   135    1
    25   147   144   am
    26   155   156    1
    27   156   159    1
    28   156   157    1
    29   135   136    1
    30   135   138    1
    31   140   138    1
    32    10    11   ar
    33   189   190    1
    34     9    11   ar
    35   190   191    1
    36   172   171    1
    37   144   145    2
    38   144   143    1
    39   166   157   am
    40   166   167    1
    41   136   137    2
    42   136   142   am
    43   138   139    1
    44   157   158    2
    45   191   192    2
    46   142   143    1
    47   171   170    1
    48   171   173    1
    49   169   168    2
    50   170   167    1
    51   139   141    1
    52   143   146    1
    53   167   168    1
    54    69    67    1
    55   168   174   am
    56   182   180   ar
    57   179   180    1
    58   179   178    1
    59    67    66    2
    60    67    68    1
    61   174   175    1
    62    33    31    1
    63   130   129    2
    64   180   181   ar
    65    66    65    1
    66    84    83    2
    67   175   178    1
    68   175   176    1
    69    83    82    1
    70    32    31    1
    71    31    30    2
    72    85    82    1
    73    85    86    1
    74    81    82    1
    75   129   128    1
    76    65    64    1
    77   176   177    2
    78   128   131    1
    79   128   127    1
    80    30    29    1
    81    86    88   ar
    82    86    87   ar
    83    73    72    2
    84    64    63    1
    85   131   133    1
    86   131   132    1
    87    88    90   ar
    88    72    71    1
    89    63    60    1
    90   187   188    1
    91   187   184    1
    92    87    89   ar
    93    29    28    1
    94    90    91   ar
    95    62    61    2
    96   183   184    1
    97    61    60    1
    98    61    70   am
    99   184   185    1
   100    60    59    1
   101    28    27    1
   102    27    24    1
   103    71    70    1
   104    71    74    1
   105    89    91   ar
   106   186   185    2
   107    19    18    1
   108    19    20    2
   109    22    20    1
   110    74    75    1
   111   125   124    2
   112    23    24    1
   113    23    14   am
   114    18    17    1
   115    24    25    1
   116    17    16    1
   117    20    21    1
   118    13    16    1
   119    13    14    1
   120    13    12    1
   121    14    15    2
   122   124   123    1
   123    75    77   ar
   124    75    76   ar
   125    25    26    2
   126   114   113    2
   127   123   126    1
   128   123   122    1
   129    77    79   ar
   130   121   119   ar
   131   121   120   ar
   132    76    78   ar
   133   119   117   ar
   134    42    40   ar
   135    42    44   ar
   136    40    39   ar
   137   120   118   ar
   138   113   122   am
   139   113   112    1
   140   117   116   ar
   141    44    43   ar
   142    79    80   ar
   143    78    80   ar
   144    39    38    1
   145    39    41   ar
   146   118   116   ar
   147    38    35    1
   148   116   115    1
   149    35    34    1
   150    35    36    1
   151    43    41   ar
   152   112   115    1
   153   112   111    1
   154    48    47    2
   155    49    50    1
   156    49    46    1
   157    46    47    1
   158    46    45    1
   159    47    51   am
   160    36    37    2
   161   106   105    2
   162    51    52    1
   163   108   110    1
   164   108   107    1
   165    56    55    1
   166    56    58    1
   167   102   101   ar
   168   102   100   ar
   169   101    99   ar
   170    52    55    1
   171    52    53    1
   172   105   104    1
   173    54    53    2
   174    55    57    1
   175   100    98   ar
   176   109   107    1
   177   104   107    1
   178   104   103    1
   179    99    97   ar
   180    98    97   ar
   181    97    96    1
   182    92    93    1
   183    93    96    1
   184    93    94    1
   185    94    95    2
