@<TRIPOS>MOLECULE
tmp/6bd8A01.pdb
 193 186 0 0 0
SMALL
GASTEIGER

@<TRIPOS>ATOM
      1  N        -16.3270   -9.5340   -6.6770 N.3    77  ARG77      -0.1245
      2  CA       -17.3560   -9.7380   -7.6740 C.3    77  ARG77       0.1563
      3  C        -18.4410   -8.7600   -7.3650 C.2    77  ARG77       0.2260
      4  O        -18.3260   -8.0150   -6.3910 O.2    77  ARG77      -0.2867
      5  CB       -17.8510  -11.1770   -7.6330 C.3    77  ARG77       0.0307
      6  CG       -16.6870  -12.1460   -7.9030 C.3    77  ARG77       0.0489
      7  CD       -17.1420  -13.5830   -8.0470 C.3    77  ARG77       0.2205
      8  NE       -16.0720  -14.4010   -8.6010 N.pl3  77  ARG77      -0.0865
      9  CZ       -15.3040  -15.2160   -7.8920 C.cat  77  ARG77       0.5346
     10  NH1      -15.5030  -15.3400   -6.5880 N.pl3  77  ARG77       0.1354
     11  NH2      -14.3500  -15.9230   -8.4880 N.pl3  77  ARG77       0.1354
     12  N        -23.2370   -9.0440   -4.1420 N.3    80  PHE80      -0.1241
     13  CA       -24.3620   -9.9600   -4.1920 C.3    80  PHE80       0.1605
     14  C        -25.2210   -9.8840   -2.9370 C.2    80  PHE80       0.2264
     15  O        -24.7160   -9.6990   -1.8280 O.2    80  PHE80      -0.2867
     16  CB       -23.8780  -11.3860   -4.4030 C.3    80  PHE80       0.0534
     17  CG       -24.9820  -12.3520   -4.6930 C.ar   80  PHE80      -0.0203
     18  CD1      -26.0220  -11.9990   -5.5400 C.ar   80  PHE80      -0.0042
     19  CD2      -24.9770  -13.6150   -4.1310 C.ar   80  PHE80      -0.0042
     20  CE1      -27.0430  -12.8900   -5.8120 C.ar   80  PHE80      -0.0003
     21  CE2      -25.9900  -14.5120   -4.4010 C.ar   80  PHE80      -0.0003
     22  CZ       -27.0260  -14.1500   -5.2430 C.ar   80  PHE80      -0.0000
     23  N        -16.6410  -17.2510   -1.5940 N.3    91  SER91      -0.1202
     24  CA       -16.8980  -16.8060   -2.9560 C.3    91  SER91       0.2020
     25  C        -17.5800  -15.4550   -2.9510 C.2    91  SER91       0.2618
     26  O        -17.7300  -14.8080   -3.9950 O.2    91  SER91      -0.2717
     27  CB       -17.7610  -17.8210   -3.6890 C.3    91  SER91       0.2103
     28  OG       -18.9350  -18.0660   -2.9310 O.3    91  SER91      -0.2182
     29  N        -17.9890  -15.0170   -1.7690 N.am   92  ILE92      -0.1979
     30  CA       -18.8590  -13.8450   -1.6690 C.3    92  ILE92       0.1595
     31  C        -18.1840  -12.7230   -0.8570 C.2    92  ILE92       0.2287
     32  O        -18.5390  -11.5520   -0.9890 O.2    92  ILE92      -0.2864
     33  CB       -20.2170  -14.2750   -1.0570 C.3    92  ILE92       0.0276
     34  CG1      -20.9550  -15.1550   -2.0490 C.3    92  ILE92       0.0022
     35  CG2      -21.1070  -13.0980   -0.6690 C.3    92  ILE92       0.0022
     36  CD1      -22.2870  -15.6270   -1.5270 C.3    92  ILE92       0.0001
     37  N        -30.3900  -26.1860   -2.7450 N.3   182  LEU182     -0.1231
     38  CA       -29.3110  -25.2990   -3.1080 C.3   182  LEU182      0.1693
     39  C        -29.0110  -25.4650   -4.5960 C.2   182  LEU182      0.2592
     40  O        -28.1330  -26.2370   -4.9810 O.2   182  LEU182     -0.2718
     41  CB       -28.0940  -25.6050   -2.2420 C.3   182  LEU182      0.0284
     42  CG       -28.4950  -25.6580   -0.7640 C.3   182  LEU182      0.0019
     43  CD1      -27.3870  -26.2290    0.1150 C.3   182  LEU182      0.0001
     44  CD2      -28.8990  -24.2620   -0.3110 C.3   182  LEU182      0.0001
     45  N        -29.7600  -24.7470   -5.4300 N.am  183  LEU183     -0.1966
     46  CA       -29.6420  -24.8780   -6.8820 C.3   183  LEU183      0.1728
     47  C        -29.1230  -23.6050   -7.5440 C.2   183  LEU183      0.2616
     48  O        -29.2830  -22.5100   -6.9960 O.2   183  LEU183     -0.2715
     49  CB       -30.9930  -25.2580   -7.4880 C.3   183  LEU183      0.0311
     50  CG       -31.4800  -26.6780   -7.2050 C.3   183  LEU183      0.0022
     51  CD1      -32.8900  -26.8610   -7.7280 C.3   183  LEU183      0.0001
     52  CD2      -30.5380  -27.7060   -7.8230 C.3   183  LEU183      0.0001
     53  N        -28.5070  -23.7650   -8.7200 N.am  184  ARG184     -0.1963
     54  CA       -27.9700  -22.6420   -9.4950 C.3   184  ARG184      0.1729
     55  C        -29.0100  -21.5440   -9.6180 C.2   184  ARG184      0.2616
     56  O        -30.1020  -21.7620  -10.1440 O.2   184  ARG184     -0.2715
     57  CB       -27.5150  -23.0860  -10.8950 C.3   184  ARG184      0.0348
     58  CG       -25.9950  -23.1310  -11.0920 C.3   184  ARG184      0.0492
     59  CD       -25.5440  -22.6990  -12.4930 C.3   184  ARG184      0.2205
     60  NE       -26.1630  -23.4840  -13.5580 N.pl3 184  ARG184     -0.0865
     61  CZ       -25.8230  -24.7330  -13.8640 C.cat 184  ARG184      0.5346
     62  NH1      -24.8710  -25.3530  -13.1790 N.pl3 184  ARG184      0.1354
     63  NH2      -26.4450  -25.3670  -14.8490 N.pl3 184  ARG184      0.1354
     64  N        -28.6730  -20.3680   -9.1050 N.am  185  PHE185     -0.1974
     65  CA       -29.5980  -19.2530   -9.1420 C.3   185  PHE185      0.1639
     66  C        -29.8990  -18.8800  -10.5800 C.2   185  PHE185      0.2290
     67  O        -28.9950  -18.6030  -11.3690 O.2   185  PHE185     -0.2864
     68  CB       -29.0380  -18.0520   -8.3830 C.3   185  PHE185      0.0560
     69  CG       -29.0300  -18.2310   -6.8960 C.ar  185  PHE185     -0.0200
     70  CD1      -28.0250  -17.6750   -6.1260 C.ar  185  PHE185     -0.0042
     71  CD2      -30.0330  -18.9540   -6.2660 C.ar  185  PHE185     -0.0042
     72  CE1      -28.0150  -17.8390   -4.7560 C.ar  185  PHE185     -0.0003
     73  CE2      -30.0310  -19.1210   -4.8960 C.ar  185  PHE185     -0.0003
     74  CZ       -29.0200  -18.5640   -4.1400 C.ar  185  PHE185     -0.0000
     75  N        -30.4020  -16.3350  -12.6320 N.3   187  PHE187     -0.1241
     76  CA       -30.1710  -14.8910  -12.5740 C.3   187  PHE187      0.1605
     77  C        -31.1190  -14.1380  -13.5160 C.2   187  PHE187      0.2264
     78  O        -31.1910  -12.9060  -13.4870 O.2   187  PHE187     -0.2867
     79  CB       -28.7080  -14.5620  -12.9090 C.3   187  PHE187      0.0534
     80  CG       -27.8200  -14.3520  -11.6940 C.ar  187  PHE187     -0.0203
     81  CD1      -28.2610  -13.6160  -10.6000 C.ar  187  PHE187     -0.0042
     82  CD2      -26.5340  -14.8810  -11.6590 C.ar  187  PHE187     -0.0042
     83  CE1      -27.4360  -13.4200   -9.4930 C.ar  187  PHE187     -0.0003
     84  CE2      -25.7090  -14.6900  -10.5560 C.ar  187  PHE187     -0.0003
     85  CZ       -26.1610  -13.9590   -9.4720 C.ar  187  PHE187     -0.0000
     86  N        -30.2490  -18.1390    0.1800 N.3   213  PHE213     -0.1241
     87  CA       -30.0330  -19.4830    0.6790 C.3   213  PHE213      0.1605
     88  C        -31.1340  -19.7880    1.6640 C.2   213  PHE213      0.2264
     89  O        -31.1200  -19.2800    2.7930 O.2   213  PHE213     -0.2867
     90  CB       -28.6580  -19.6060    1.3100 C.3   213  PHE213      0.0534
     91  CG       -27.5540  -19.3320    0.3480 C.ar  213  PHE213     -0.0203
     92  CD1      -27.0520  -18.0520    0.1960 C.ar  213  PHE213     -0.0042
     93  CD2      -27.0450  -20.3450   -0.4410 C.ar  213  PHE213     -0.0042
     94  CE1      -26.0390  -17.7930   -0.7090 C.ar  213  PHE213     -0.0003
     95  CE2      -26.0330  -20.0940   -1.3480 C.ar  213  PHE213     -0.0003
     96  CZ       -25.5290  -18.8160   -1.4840 C.ar  213  PHE213     -0.0000
     97  N        -21.4200  -24.9410    3.0310 N.3   261  ILE261     -0.1231
     98  CA       -22.5880  -24.7570    2.1890 C.3   261  ILE261      0.1692
     99  C        -22.1690  -24.4300    0.7430 C.2   261  ILE261      0.2591
    100  O        -22.7390  -24.9900   -0.1940 O.2   261  ILE261     -0.2718
    101  CB       -23.5130  -23.6720    2.7640 C.3   261  ILE261      0.0266
    102  CG1      -24.1060  -24.1600    4.0760 C.3   261  ILE261      0.0019
    103  CG2      -24.6280  -23.3190    1.7860 C.3   261  ILE261      0.0020
    104  CD1      -25.1670  -23.2640    4.6570 C.3   261  ILE261      0.0001
    105  N        -21.1470  -23.5870    0.5640 N.am  262  ILE262     -0.1980
    106  CA       -20.6150  -23.2980   -0.7800 C.3   262  ILE262      0.1595
    107  C        -20.1380  -24.5610   -1.4620 C.2   262  ILE262      0.2287
    108  O        -20.5320  -24.8610   -2.5900 O.2   262  ILE262     -0.2864
    109  CB       -19.4150  -22.3230   -0.7780 C.3   262  ILE262      0.0276
    110  CG1      -19.8660  -20.9000   -0.5090 C.3   262  ILE262      0.0022
    111  CG2      -18.7520  -22.3440   -2.1360 C.3   262  ILE262      0.0022
    112  CD1      -20.7380  -20.3040   -1.6230 C.3   262  ILE262      0.0001
    113  N        -22.9380  -26.6510   -2.6540 N.3   265  PHE265     -0.1227
    114  CA       -23.5530  -26.3000   -3.9200 C.3   265  PHE265      0.1736
    115  C        -22.6490  -26.6590   -5.0680 C.2   265  PHE265      0.2595
    116  O        -23.0070  -27.4740   -5.9140 O.2   265  PHE265     -0.2718
    117  CB       -23.8630  -24.8280   -4.0760 C.3   265  PHE265      0.0547
    118  CG       -24.1120  -24.4640   -5.5130 C.ar  265  PHE265     -0.0202
    119  CD1      -25.1910  -25.0120   -6.1950 C.ar  265  PHE265     -0.0042
    120  CD2      -23.2410  -23.6420   -6.2100 C.ar  265  PHE265     -0.0042
    121  CE1      -25.4160  -24.7060   -7.5270 C.ar  265  PHE265     -0.0003
    122  CE2      -23.4730  -23.3340   -7.5460 C.ar  265  PHE265     -0.0003
    123  CZ       -24.5500  -23.8600   -8.1960 C.ar  265  PHE265     -0.0000
    124  N        -21.4900  -26.0050   -5.0840 N.am  266  ALA266     -0.1980
    125  CA       -20.5530  -26.0540   -6.1930 C.3   266  ALA266      0.1597
    126  C        -20.4620  -27.4410   -6.7980 C.2   266  ALA266      0.2287
    127  O        -20.8180  -27.6380   -7.9470 O.2   266  ALA266     -0.2864
    128  CB       -19.1890  -25.5850   -5.7310 C.3   266  ALA266      0.0319
    129  N        -23.0890  -28.1670  -10.5430 N.3   270  THR270     -0.1218
    130  CA       -22.0530  -27.9010  -11.5320 C.3   270  THR270      0.1862
    131  C        -21.5050  -29.2160  -12.0640 C.2   270  THR270      0.2287
    132  O        -21.5180  -29.4580  -13.2730 O.2   270  THR270     -0.2866
    133  CB       -20.8840  -27.0790  -10.9750 C.3   270  THR270      0.1770
    134  OG1      -20.1540  -27.8780  -10.0390 O.3   270  THR270     -0.2211
    135  CG2      -21.3730  -25.7970  -10.3100 C.3   270  THR270      0.0375
    136  N        -19.8750  -23.2070  -17.7040 N.3   330  ILE330     -0.1231
    137  CA       -21.1360  -23.0140  -16.9780 C.3   330  ILE330      0.1692
    138  C        -21.2140  -21.7190  -16.1850 C.2   330  ILE330      0.2592
    139  O        -22.2880  -21.3510  -15.7100 O.2   330  ILE330     -0.2718
    140  CB       -21.3980  -24.1680  -16.0450 C.3   330  ILE330      0.0266
    141  CG1      -20.1600  -24.4160  -15.2030 C.3   330  ILE330      0.0019
    142  CG2      -21.7710  -25.4260  -16.8550 C.3   330  ILE330      0.0020
    143  CD1      -20.4720  -25.1060  -13.9130 C.3   330  ILE330      0.0001
    144  N        -20.0900  -21.0160  -16.0470 N.am  331  ALA331     -0.1966
    145  CA       -20.1310  -19.6710  -15.4490 C.3   331  ALA331      0.1728
    146  C        -20.6090  -18.6230  -16.4430 C.2   331  ALA331      0.2616
    147  O        -21.1540  -17.6080  -16.0320 O.2   331  ALA331     -0.2715
    148  CB       -18.7870  -19.2700  -14.9420 C.3   331  ALA331      0.0334
    149  N        -20.3290  -18.8470  -17.7300 N.am  332  MET332     -0.1963
    150  CA       -20.7250  -17.9640  -18.8310 C.3   332  MET332      0.1736
    151  C        -19.8330  -16.7250  -18.8050 C.2   332  MET332      0.2616
    152  O        -19.1080  -16.4580  -19.7740 O.2   332  MET332     -0.2715
    153  CB       -22.1960  -17.6480  -18.7630 C.3   332  MET332      0.0427
    154  CG       -23.1190  -18.7930  -19.2050 C.3   332  MET332      0.0599
    155  SD       -24.8440  -18.4480  -18.8670 S.3   332  MET332     -0.1393
    156  CE       -24.8430  -18.7070  -17.1000 C.3   332  MET332      0.0692
    157  N        -19.8090  -16.0380  -17.6650 N.am  333  ARG333     -0.1963
    158  CA       -19.0710  -14.7930  -17.4830 C.3   333  ARG333      0.1729
    159  C        -18.1970  -14.7700  -16.2400 C.2   333  ARG333      0.2616
    160  O        -18.5940  -15.3070  -15.1970 O.2   333  ARG333     -0.2715
    161  CB       -20.1080  -13.6720  -17.3540 C.3   333  ARG333      0.0348
    162  CG       -20.9150  -13.3670  -18.6060 C.3   333  ARG333      0.0492
    163  CD       -21.9970  -12.4110  -18.2100 C.3   333  ARG333      0.2205
    164  NE       -22.5600  -11.5970  -19.2890 N.pl3 333  ARG333     -0.0865
    165  CZ       -23.4860  -10.6620  -19.0690 C.cat 333  ARG333      0.5346
    166  NH1      -23.9190  -10.4720  -17.8360 N.pl3 333  ARG333      0.1354
    167  NH2      -23.9820   -9.9290  -20.0660 N.pl3 333  ARG333      0.1354
    168  N        -17.0460  -14.1140  -16.3200 N.am  334  LEU334     -0.1977
    169  CA       -16.3000  -13.7110  -15.1040 C.3   334  LEU334      0.1596
    170  C        -16.5280  -12.2190  -14.8950 C.2   334  LEU334      0.2287
    171  O        -16.6810  -11.4840  -15.8900 O.2   334  LEU334     -0.2864
    172  CB       -14.8030  -13.9840  -15.2490 C.3   334  LEU334      0.0297
    173  CG       -14.5620  -15.3630  -15.8750 C.3   334  LEU334      0.0022
    174  CD1      -13.1410  -15.5890  -16.1690 C.3   334  LEU334      0.0001
    175  CD2      -15.0700  -16.4300  -14.8950 C.3   334  LEU334      0.0001
    176  N        -11.2460  -20.7090   -9.7580 N.3   403  CYS403     -0.1235
    177  CA       -12.0050  -21.7220   -9.0410 C.3   403  CYS403      0.1677
    178  C        -11.1230  -22.5640   -8.1270 C.2   403  CYS403      0.2270
    179  O        -10.4670  -23.5080   -8.5600 O.2   403  CYS403     -0.2867
    180  CB       -12.7520  -22.6530  -10.0020 C.3   403  CYS403      0.0956
    181  SG       -13.4540  -24.0600   -9.1500 S.3   403  CYS403     -0.0801
    182  N        -31.0180  -17.9530  -17.2060 N.3   442  GLY442     -0.1210
    183  CA       -29.8180  -17.3330  -16.6680 C.3   442  GLY442      0.1956
    184  C        -28.8440  -18.3850  -16.1950 C.2   442  GLY442      0.2611
    185  O        -27.8620  -18.1230  -15.4880 O.2   442  GLY442     -0.2717
    186  N        -29.1520  -19.6070  -16.5850 N.am  443  LEU443     -0.1979
    187  CA       -28.3080  -20.7270  -16.2770 C.3   443  LEU443      0.1596
    188  C        -27.6750  -21.2010  -17.5420 C.2   443  LEU443      0.2287
    189  O        -28.2870  -21.1480  -18.6130 O.2   443  LEU443     -0.2864
    190  CB       -29.1140  -21.8540  -15.6460 C.3   443  LEU443      0.0297
    191  CG       -29.6800  -21.4660  -14.2970 C.3   443  LEU443      0.0022
    192  CD1      -30.3070  -22.6660  -13.6190 C.3   443  LEU443      0.0001
    193  CD2      -28.5350  -20.8900  -13.4780 C.3   443  LEU443      0.0001
@<TRIPOS>BOND
     1   167   165    1
     2   152   151    2
     3   164   165    2
     4   164   163    1
     5   154   155    1
     6   154   153    1
     7   165   166    1
     8   155   156    1
     9   150   151    1
    10   150   153    1
    11   150   149    1
    12   151   157   am
    13   189   188    2
    14   162   163    1
    15   162   161    1
    16   149   146   am
    17   136   137    1
    18   157   158    1
    19   188   187    1
    20   158   161    1
    21   158   159    1
    22   182   183    1
    23   137   138    1
    24   137   140    1
    25   142   140    1
    26   183   184    1
    27   186   187    1
    28   186   184   am
    29   146   147    2
    30   146   145    1
    31   168   159   am
    32   168   169    1
    33   187   190    1
    34   159   160    2
    35   184   185    2
    36   138   144   am
    37   138   139    2
    38   174   173    1
    39   144   145    1
    40   140   141    1
    41   171   170    2
    42   173   172    1
    43   173   175    1
    44   190   191    1
    45   145   148    1
    46   172   169    1
    47   141   143    1
    48   169   170    1
    49    63    61    1
    50   191   192    1
    51   191   193    1
    52    61    60    2
    53    61    62    1
    54    60    59    1
    55    77    78    2
    56    77    76    1
    57   132   131    2
    58    79    76    1
    59    79    80    1
    60    75    76    1
    61    59    58    1
    62   131   130    1
    63    80    82   ar
    64    80    81   ar
    65    82    84   ar
    66   130   133    1
    67   130   129    1
    68    67    66    2
    69    58    57    1
    70   133   135    1
    71   133   134    1
    72    57    54    1
    73    81    83   ar
    74    66    65    1
    75    84    85   ar
    76    56    55    2
    77   180   181    1
    78   180   177    1
    79   176   177    1
    80    55    54    1
    81    55    64   am
    82    54    53    1
    83    83    85   ar
    84    65    64    1
    85    65    68    1
    86   177   178    1
    87    53    47   am
    88     8     7    1
    89     8     9    2
    90   179   178    2
    91    11     9    1
    92    68    69    1
    93   123   122   ar
    94   123   121   ar
    95     7     6    1
    96   127   126    2
    97     6     5    1
    98     9    10    1
    99    52    50    1
   100    51    50    1
   101     2     5    1
   102     2     3    1
   103     2     1    1
   104   122   120   ar
   105    47    48    2
   106    47    46    1
   107   121   119   ar
   108    49    50    1
   109    49    46    1
   110     3     4    2
   111    69    71   ar
   112    69    70   ar
   113    46    45    1
   114   126   125    1
   115    71    73   ar
   116   120   118   ar
   117   119   118   ar
   118   125   128    1
   119   125   124    1
   120    70    72   ar
   121   116   115    2
   122    20    18   ar
   123    20    22   ar
   124    18    17   ar
   125   118   117    1
   126    45    39   am
   127    22    21   ar
   128   124   115   am
   129   115   114    1
   130    40    39    2
   131    73    74   ar
   132    72    74   ar
   133    17    16    1
   134    17    19   ar
   135    39    38    1
   136    16    13    1
   137    21    19   ar
   138    13    12    1
   139    13    14    1
   140   117   114    1
   141    26    25    2
   142   114   113    1
   143    27    24    1
   144    27    28    1
   145    38    37    1
   146    38    41    1
   147    24    25    1
   148    24    23    1
   149    25    29   am
   150    14    15    2
   151   108   107    2
   152    41    42    1
   153   111   109    1
   154    34    36    1
   155    34    33    1
   156    29    30    1
   157    30    33    1
   158    30    31    1
   159   112   110    1
   160    96    95   ar
   161    96    94   ar
   162   107   106    1
   163    95    93   ar
   164    33    35    1
   165    32    31    2
   166   106   109    1
   167   106   105    1
   168   109   110    1
   169    42    44    1
   170    42    43    1
   171    94    92   ar
   172    93    91   ar
   173   100    99    2
   174    86    87    1
   175    92    91   ar
   176    91    90    1
   177   105    99   am
   178    87    90    1
   179    87    88    1
   180    99    98    1
   181    88    89    2
   182   103   101    1
   183    98   101    1
   184    98    97    1
   185   101   102    1
   186   102   104    1
