@<TRIPOS>MOLECULE
tmp/6bdhA01.pdb
 164 157 0 0 0
SMALL
GASTEIGER

@<TRIPOS>ATOM
      1  N        -16.0990   -9.2230   -6.9480 N.3    78  ARG78      -0.1245
      2  CA       -17.1420   -9.4190   -7.9380 C.3    78  ARG78       0.1563
      3  C        -18.3360   -8.5460   -7.5960 C.2    78  ARG78       0.2260
      4  O        -18.3930   -7.8970   -6.5460 O.2    78  ARG78      -0.2867
      5  CB       -17.5630  -10.8930   -8.0180 C.3    78  ARG78       0.0307
      6  CG       -16.4040  -11.9040   -8.1880 C.3    78  ARG78       0.0489
      7  CD       -16.9260  -13.3370   -8.3910 C.3    78  ARG78       0.2205
      8  NE       -15.8950  -14.1740   -8.9950 N.pl3  78  ARG78      -0.0865
      9  CZ       -15.1880  -15.0660   -8.3170 C.cat  78  ARG78       0.5346
     10  NH1      -15.4520  -15.2510   -7.0350 N.pl3  78  ARG78       0.1354
     11  NH2      -14.2310  -15.7710   -8.9130 N.pl3  78  ARG78       0.1354
     12  N        -23.7700   -8.9900   -4.4540 N.3    81  PHE81      -0.1241
     13  CA       -24.7530  -10.0480   -4.5850 C.3    81  PHE81       0.1605
     14  C        -25.6130  -10.0230   -3.3360 C.2    81  PHE81       0.2264
     15  O        -25.0850  -10.0430   -2.2190 O.2    81  PHE81      -0.2867
     16  CB       -24.0570  -11.4000   -4.7520 C.3    81  PHE81       0.0534
     17  CG       -24.9250  -12.4620   -5.3330 C.ar   81  PHE81      -0.0203
     18  CD1      -25.7890  -12.1640   -6.3760 C.ar   81  PHE81      -0.0042
     19  CD2      -24.8640  -13.7630   -4.8540 C.ar   81  PHE81      -0.0042
     20  CE1      -26.5910  -13.1460   -6.9300 C.ar   81  PHE81      -0.0003
     21  CE2      -25.6580  -14.7460   -5.3970 C.ar   81  PHE81      -0.0003
     22  CZ       -26.5250  -14.4410   -6.4410 C.ar   81  PHE81      -0.0000
     23  N        -24.4130  -15.6850    4.2220 N.3    87  MET87      -0.1245
     24  CA       -23.6380  -16.1380    3.0820 C.3    87  MET87       0.1570
     25  C        -22.7120  -15.0700    2.5340 C.2    87  MET87       0.2261
     26  O        -22.0190  -15.3340    1.5440 O.2    87  MET87      -0.2867
     27  CB       -24.5620  -16.6360    1.9650 C.3    87  MET87       0.0387
     28  CG       -25.1890  -18.0060    2.2410 C.3    87  MET87       0.0595
     29  SD       -24.0600  -19.4340    2.3300 S.3    87  MET87      -0.1393
     30  CE       -23.2760  -19.3750    0.7190 C.3    87  MET87       0.0692
     31  N        -16.6080  -17.1400   -2.4660 N.3    92  SER92      -0.1202
     32  CA       -16.9100  -16.6160   -3.7940 C.3    92  SER92       0.2020
     33  C        -17.5880  -15.2530   -3.7170 C.2    92  SER92       0.2618
     34  O        -17.5660  -14.4940   -4.6890 O.2    92  SER92      -0.2717
     35  CB       -17.7930  -17.6050   -4.5590 C.3    92  SER92       0.2103
     36  OG       -18.9060  -17.9900   -3.7800 O.3    92  SER92      -0.2182
     37  N        -18.1370  -14.9170   -2.5620 N.am   93  ILE93      -0.1979
     38  CA       -18.9100  -13.7040   -2.3860 C.3    93  ILE93       0.1595
     39  C        -18.1870  -12.6690   -1.5310 C.2    93  ILE93       0.2287
     40  O        -18.4560  -11.4700   -1.6870 O.2    93  ILE93      -0.2864
     41  CB       -20.2930  -14.0740   -1.7980 C.3    93  ILE93       0.0276
     42  CG1      -21.1200  -14.7480   -2.9050 C.3    93  ILE93       0.0022
     43  CG2      -21.0360  -12.9140   -1.1730 C.3    93  ILE93       0.0022
     44  CD1      -22.3530  -15.4970   -2.4190 C.3    93  ILE93       0.0001
     45  N        -31.0550  -28.9240   -2.4290 N.3   175  PRO175     -0.2102
     46  CA       -31.7020  -27.6310   -2.1790 C.3   175  PRO175      0.1504
     47  C        -32.6020  -27.2120   -3.3360 C.2   175  PRO175      0.2575
     48  O        -33.8250  -27.3230   -3.2520 O.2   175  PRO175     -0.2718
     49  CB       -30.5180  -26.6710   -2.0600 C.3   175  PRO175      0.0282
     50  CG       -29.4510  -27.2940   -2.8930 C.3   175  PRO175      0.0208
     51  CD       -29.6210  -28.7780   -2.7340 C.3   175  PRO175      0.0893
     52  N        -31.9820  -26.7310   -4.4060 N.am  176  PHE176     -0.1977
     53  CA       -32.6940  -26.2750   -5.5940 C.3   176  PHE176      0.1639
     54  C        -31.7530  -26.1510   -6.7880 C.2   176  PHE176      0.2290
     55  O        -30.5500  -25.9490   -6.6230 O.2   176  PHE176     -0.2864
     56  CB       -33.3820  -24.9360   -5.3250 C.3   176  PHE176      0.0560
     57  CG       -32.4690  -23.8890   -4.7530 C.ar  176  PHE176     -0.0200
     58  CD1      -31.6370  -23.1510   -5.5780 C.ar  176  PHE176     -0.0042
     59  CD2      -32.4430  -23.6440   -3.3900 C.ar  176  PHE176     -0.0042
     60  CE1      -30.7960  -22.1870   -5.0540 C.ar  176  PHE176     -0.0003
     61  CE2      -31.6040  -22.6820   -2.8600 C.ar  176  PHE176     -0.0003
     62  CZ       -30.7790  -21.9530   -3.6930 C.ar  176  PHE176     -0.0000
     63  N        -31.4540  -17.5360   -1.0720 N.3   201  PHE201     -0.1241
     64  CA       -31.3400  -18.9020   -0.5960 C.3   201  PHE201      0.1605
     65  C        -32.4560  -19.1430    0.4130 C.2   201  PHE201      0.2264
     66  O        -32.3800  -18.6410    1.5500 O.2   201  PHE201     -0.2867
     67  CB       -29.9630  -19.1180    0.0400 C.3   201  PHE201      0.0534
     68  CG       -28.8300  -18.5250   -0.7730 C.ar  201  PHE201     -0.0203
     69  CD1      -27.9060  -17.6670   -0.1900 C.ar  201  PHE201     -0.0042
     70  CD2      -28.7010  -18.8170   -2.1290 C.ar  201  PHE201     -0.0042
     71  CE1      -26.8660  -17.1140   -0.9460 C.ar  201  PHE201     -0.0003
     72  CE2      -27.6660  -18.2660   -2.8870 C.ar  201  PHE201     -0.0003
     73  CZ       -26.7480  -17.4150   -2.2940 C.ar  201  PHE201     -0.0000
     74  N        -21.6570  -24.6720    2.2460 N.3   243  ILE243     -0.1231
     75  CA       -22.7430  -24.5020    1.2890 C.3   243  ILE243      0.1692
     76  C        -22.1910  -24.2450   -0.1070 C.2   243  ILE243      0.2591
     77  O        -22.6060  -24.8840   -1.0820 O.2   243  ILE243     -0.2718
     78  CB       -23.6860  -23.3840    1.7500 C.3   243  ILE243      0.0266
     79  CG1      -24.2740  -23.7750    3.1100 C.3   243  ILE243      0.0019
     80  CG2      -24.7440  -23.1460    0.6920 C.3   243  ILE243      0.0020
     81  CD1      -25.4010  -22.9010    3.5920 C.3   243  ILE243      0.0001
     82  N        -21.2230  -23.3290   -0.2240 N.am  244  ILE244     -0.1980
     83  CA       -20.5900  -23.0880   -1.5220 C.3   244  ILE244      0.1595
     84  C        -20.0540  -24.3850   -2.0990 C.2   244  ILE244      0.2287
     85  O        -20.2850  -24.7140   -3.2670 O.2   244  ILE244     -0.2864
     86  CB       -19.4650  -22.0490   -1.3910 C.3   244  ILE244      0.0276
     87  CG1      -20.0500  -20.6860   -1.0490 C.3   244  ILE244      0.0022
     88  CG2      -18.6970  -21.9560   -2.6920 C.3   244  ILE244      0.0022
     89  CD1      -20.9170  -20.1160   -2.1480 C.3   244  ILE244      0.0001
     90  N        -22.7340  -26.9960   -3.3030 N.3   247  PHE247     -0.1227
     91  CA       -23.3620  -26.6050   -4.5570 C.3   247  PHE247      0.1736
     92  C        -22.4270  -26.8520   -5.7230 C.2   247  PHE247      0.2595
     93  O        -22.7190  -27.6560   -6.6180 O.2   247  PHE247     -0.2718
     94  CB       -23.7670  -25.1310   -4.5400 C.3   247  PHE247      0.0547
     95  CG       -24.0910  -24.5900   -5.9170 C.ar  247  PHE247     -0.0202
     96  CD1      -25.3390  -24.8120   -6.4870 C.ar  247  PHE247     -0.0042
     97  CD2      -23.1430  -23.8780   -6.6530 C.ar  247  PHE247     -0.0042
     98  CE1      -25.6440  -24.3280   -7.7590 C.ar  247  PHE247     -0.0003
     99  CE2      -23.4480  -23.3920   -7.9300 C.ar  247  PHE247     -0.0003
    100  CZ       -24.6990  -23.6160   -8.4780 C.ar  247  PHE247     -0.0000
    101  N        -21.2990  -26.1370   -5.7240 N.am  248  ALA248     -0.1980
    102  CA       -20.3590  -26.1910   -6.8290 C.3   248  ALA248      0.1597
    103  C        -20.0730  -27.6310   -7.2490 C.2   248  ALA248      0.2287
    104  O        -20.2240  -27.9890   -8.4230 O.2   248  ALA248     -0.2864
    105  CB       -19.0810  -25.4570   -6.4250 C.3   248  ALA248      0.0319
    106  N        -23.6570  -29.1750   -8.6520 N.3   251  GLU251     -0.1231
    107  CA       -24.3290  -28.7110   -9.8570 C.3   251  GLU251      0.1699
    108  C        -23.3760  -28.6110  -11.0430 C.2   251  GLU251      0.2592
    109  O        -23.6910  -29.0870  -12.1350 O.2   251  GLU251     -0.2718
    110  CB       -25.0120  -27.3700   -9.6000 C.3   251  GLU251      0.0402
    111  CG       -26.3130  -27.2230  -10.3860 C.3   251  GLU251      0.1161
    112  CD       -26.1030  -26.8570  -11.8520 C.2   251  GLU251      0.3649
    113  OE1      -24.9620  -26.5080  -12.2410 O.co2 251  GLU251     -0.2457
    114  OE2      -27.0950  -26.8990  -12.6120 O.co2 251  GLU251     -0.2457
    115  N        -22.2220  -27.9710  -10.8640 N.am  252  THR252     -0.1953
    116  CA       -21.3040  -27.8400  -11.9880 C.3   252  THR252      0.1897
    117  C        -20.8550  -29.2060  -12.4930 C.2   252  THR252      0.2313
    118  O        -20.8670  -29.4630  -13.7040 O.2   252  THR252     -0.2863
    119  CB       -20.1020  -26.9880  -11.5930 C.3   252  THR252      0.1794
    120  OG1      -19.2400  -27.7390  -10.7290 O.3   252  THR252     -0.2208
    121  CG2      -20.5670  -25.7330  -10.9020 C.3   252  THR252      0.0378
    122  N        -19.7380  -22.7840  -18.1470 N.3   312  ILE312     -0.1231
    123  CA       -20.9470  -22.6790  -17.3220 C.3   312  ILE312      0.1692
    124  C        -20.9780  -21.4460  -16.4410 C.2   312  ILE312      0.2592
    125  O        -22.0440  -21.0940  -15.9350 O.2   312  ILE312     -0.2718
    126  CB       -21.1140  -23.9300  -16.4480 C.3   312  ILE312      0.0266
    127  CG1      -19.8120  -24.1920  -15.7110 C.3   312  ILE312      0.0019
    128  CG2      -21.5470  -25.1450  -17.3020 C.3   312  ILE312      0.0020
    129  CD1      -19.9330  -25.2620  -14.6730 C.3   312  ILE312      0.0001
    130  N        -19.8450  -20.7810  -16.2300 N.am  313  ALA313     -0.1966
    131  CA       -19.8820  -19.4650  -15.5950 C.3   313  ALA313      0.1728
    132  C        -20.3990  -18.3740  -16.5330 C.2   313  ALA313      0.2616
    133  O        -20.9670  -17.3920  -16.0460 O.2   313  ALA313     -0.2715
    134  CB       -18.4970  -19.0700  -15.0980 C.3   313  ALA313      0.0334
    135  N        -20.1620  -18.5650  -17.8340 N.am  314  MET314     -0.1977
    136  CA       -20.5740  -17.6500  -18.9040 C.3   314  MET314      0.1605
    137  C        -19.7210  -16.3840  -19.0310 C.2   314  MET314      0.2287
    138  O        -19.1210  -16.1100  -20.0710 O.2   314  MET314     -0.2864
    139  CB       -22.0470  -17.2680  -18.7360 C.3   314  MET314      0.0413
    140  CG       -23.0210  -18.3750  -19.1040 C.3   314  MET314      0.0598
    141  SD       -24.7380  -17.9250  -18.7870 S.3   314  MET314     -0.1393
    142  CE       -24.8780  -18.3280  -17.0470 C.3   314  MET314      0.0692
    143  N        -10.9790  -20.2870  -10.3400 N.3   385  CYS385     -0.1235
    144  CA       -11.7840  -21.3020   -9.6780 C.3   385  CYS385      0.1677
    145  C        -10.9320  -22.1380   -8.7390 C.2   385  CYS385      0.2270
    146  O        -10.0610  -22.8920   -9.1870 O.2   385  CYS385     -0.2867
    147  CB       -12.4340  -22.2120  -10.7080 C.3   385  CYS385      0.0956
    148  SG       -13.2190  -23.6120   -9.9030 S.3   385  CYS385     -0.0801
    149  N        -29.2140  -19.2910  -16.5920 N.3   425  LEU425     -0.1231
    150  CA       -27.9750  -20.0280  -16.4410 C.3   425  LEU425      0.1693
    151  C        -27.6900  -20.8720  -17.6760 C.2   425  LEU425      0.2591
    152  O        -28.5020  -20.9730  -18.6020 O.2   425  LEU425     -0.2718
    153  CB       -28.0320  -20.8890  -15.1840 C.3   425  LEU425      0.0284
    154  CG       -29.2620  -21.7700  -15.0200 C.3   425  LEU425      0.0019
    155  CD1      -28.7870  -23.1670  -14.6530 C.3   425  LEU425      0.0001
    156  CD2      -30.1940  -21.2130  -13.9560 C.3   425  LEU425      0.0001
    157  N        -26.5040  -21.4810  -17.6810 N.am  426  LEU426     -0.1980
    158  CA       -26.0400  -22.2110  -18.8580 C.3   426  LEU426      0.1596
    159  C        -26.3810  -23.6870  -18.7040 C.2   426  LEU426      0.2287
    160  O        -25.5740  -24.5170  -18.2760 O.2   426  LEU426     -0.2864
    161  CB       -24.5530  -22.0160  -19.0740 C.3   426  LEU426      0.0297
    162  CG       -24.2000  -22.4940  -20.4640 C.3   426  LEU426      0.0022
    163  CD1      -25.0080  -21.6880  -21.4370 C.3   426  LEU426      0.0001
    164  CD2      -22.7210  -22.3060  -20.7070 C.3   426  LEU426      0.0001
@<TRIPOS>BOND
     1   163   162    1
     2   164   162    1
     3   162   161    1
     4   138   137    2
     5   140   141    1
     6   140   139    1
     7   161   158    1
     8   137   136    1
     9   136   139    1
    10   136   135    1
    11   158   159    1
    12   158   157    1
    13   141   142    1
    14   159   160    2
    15   152   151    2
    16   122   123    1
    17   135   132   am
    18   157   151   am
    19   151   150    1
    20   123   126    1
    21   123   124    1
    22   128   126    1
    23   149   150    1
    24   132   133    2
    25   132   131    1
    26   126   127    1
    27   150   153    1
    28   124   130   am
    29   124   125    2
    30   130   131    1
    31   127   129    1
    32   131   134    1
    33   153   154    1
    34   154   155    1
    35   154   156    1
    36   118   117    2
    37   114   112   ar
    38   117   116    1
    39   113   112   ar
    40   109   108    2
    41   116   119    1
    42   116   115    1
    43   112   111    1
    44   119   121    1
    45   119   120    1
    46   108   115   am
    47   108   107    1
    48   147   148    1
    49   147   144    1
    50   111   110    1
    51   143   144    1
    52   107   110    1
    53   107   106    1
    54   144   145    1
    55   146   145    2
    56     8     7    1
    57     8     9    2
    58    11     9    1
    59   100    99   ar
    60   100    98   ar
    61   104   103    2
    62     7     6    1
    63     9    10    1
    64     6     5    1
    65     5     2    1
    66     2     3    1
    67     2     1    1
    68    99    97   ar
    69    98    96   ar
    70     3     4    2
    71   103   102    1
    72    20    22   ar
    73    20    18   ar
    74   102   105    1
    75   102   101    1
    76    54    55    2
    77    54    53    1
    78    97    95   ar
    79    93    92    2
    80    96    95   ar
    81    22    21   ar
    82    18    17   ar
    83    95    94    1
    84   101    92   am
    85    92    91    1
    86    53    56    1
    87    53    52    1
    88    58    60   ar
    89    58    57   ar
    90    21    19   ar
    91    17    19   ar
    92    17    16    1
    93    56    57    1
    94    60    62   ar
    95    57    59   ar
    96    16    13    1
    97    34    33    2
    98    13    12    1
    99    13    14    1
   100    35    32    1
   101    35    36    1
   102    91    94    1
   103    91    90    1
   104    52    47   am
   105    32    33    1
   106    32    31    1
   107    33    37   am
   108    62    61   ar
   109    59    61   ar
   110    47    48    2
   111    47    46    1
   112    14    15    2
   113    85    84    2
   114    42    44    1
   115    42    41    1
   116    50    51    1
   117    50    49    1
   118    72    73   ar
   119    72    70   ar
   120    51    45    1
   121    88    86    1
   122    37    38    1
   123    45    46    1
   124    38    41    1
   125    38    39    1
   126    73    71   ar
   127    46    49    1
   128    89    87    1
   129    70    68   ar
   130    84    83    1
   131    41    43    1
   132    40    39    2
   133    83    86    1
   134    83    82    1
   135    86    87    1
   136    77    76    2
   137    63    64    1
   138    71    69   ar
   139    68    69   ar
   140    68    67    1
   141    64    67    1
   142    64    65    1
   143    82    76   am
   144    76    75    1
   145    65    66    2
   146    80    78    1
   147    30    29    1
   148    75    78    1
   149    75    74    1
   150    26    25    2
   151    78    79    1
   152    27    28    1
   153    27    24    1
   154    28    29    1
   155    25    24    1
   156    24    23    1
   157    79    81    1
