@<TRIPOS>MOLECULE
tmp/6bdiA01.pdb
 188 182 0 0 0
SMALL
GASTEIGER

@<TRIPOS>ATOM
      1  N        -28.4390  -14.4500  -22.1680 N.3    31  PHE31      -0.1241
      2  CA       -27.1490  -13.7700  -22.1270 C.3    31  PHE31       0.1605
      3  C        -26.3020  -14.1400  -23.3280 C.2    31  PHE31       0.2264
      4  O        -25.5680  -13.3040  -23.8720 O.2    31  PHE31      -0.2867
      5  CB       -26.3800  -14.1270  -20.8550 C.3    31  PHE31       0.0534
      6  CG       -27.0600  -13.7210  -19.5970 C.ar   31  PHE31      -0.0203
      7  CD1      -27.6960  -14.6600  -18.8070 C.ar   31  PHE31      -0.0042
      8  CD2      -27.0650  -12.3970  -19.1980 C.ar   31  PHE31      -0.0042
      9  CE1      -28.3270  -14.2820  -17.6410 C.ar   31  PHE31      -0.0003
     10  CE2      -27.6950  -12.0120  -18.0380 C.ar   31  PHE31      -0.0003
     11  CZ       -28.3270  -12.9570  -17.2570 C.ar   31  PHE31      -0.0000
     12  N        -16.6900   -9.5320   -7.3860 N.3    79  ARG79      -0.1231
     13  CA       -17.7360   -9.7600   -8.3670 C.3    79  ARG79       0.1694
     14  C        -18.9090   -8.8310   -8.0740 C.2    79  ARG79       0.2591
     15  O        -18.9500   -8.1380   -7.0530 O.2    79  ARG79      -0.2718
     16  CB       -18.1300  -11.2300   -8.3770 C.3    79  ARG79       0.0321
     17  CG       -17.0020  -12.1220   -8.8580 C.3    79  ARG79       0.0489
     18  CD       -17.4430  -13.5600   -9.0430 C.3    79  ARG79       0.2205
     19  NE       -16.3710  -14.3720   -9.6120 N.pl3  79  ARG79      -0.0865
     20  CZ       -15.5610  -15.1130   -8.8770 C.cat  79  ARG79       0.5346
     21  NH1      -15.7270  -15.1120   -7.5640 N.pl3  79  ARG79       0.1354
     22  NH2      -14.6060  -15.8410   -9.4410 N.pl3  79  ARG79       0.1354
     23  N        -19.8420   -8.7730   -9.0090 N.am   80  ARG80      -0.1980
     24  CA       -20.9200   -7.8090   -8.8740 C.3    80  ARG80       0.1597
     25  C        -21.6710   -8.0530   -7.5700 C.2    80  ARG80       0.2287
     26  O        -22.0210   -9.2020   -7.2750 O.2    80  ARG80      -0.2864
     27  CB       -21.8700   -7.8950  -10.0610 C.3    80  ARG80       0.0334
     28  CG       -22.8020   -6.7180  -10.1500 C.3    80  ARG80       0.0492
     29  CD       -23.9250   -6.9610  -11.1230 C.3    80  ARG80       0.2205
     30  NE       -23.4350   -7.4370  -12.4080 N.pl3  80  ARG80      -0.0865
     31  CZ       -24.0610   -7.2400  -13.5630 C.cat  80  ARG80       0.5346
     32  NH1      -25.2030   -6.5630  -13.5900 N.pl3  80  ARG80       0.1354
     33  NH2      -23.5360   -7.7130  -14.6900 N.pl3  80  ARG80       0.1354
     34  N        -23.8560   -9.1540   -4.8240 N.3    82  PHE82      -0.1241
     35  CA       -24.8920  -10.1630   -4.9650 C.3    82  PHE82       0.1605
     36  C        -25.7240  -10.2130   -3.6930 C.2    82  PHE82       0.2264
     37  O        -25.1740  -10.2220   -2.5870 O.2    82  PHE82      -0.2867
     38  CB       -24.2600  -11.5210   -5.2650 C.3    82  PHE82       0.0534
     39  CG       -25.2560  -12.6130   -5.5000 C.ar   82  PHE82      -0.0203
     40  CD1      -26.2620  -12.4580   -6.4360 C.ar   82  PHE82      -0.0042
     41  CD2      -25.1830  -13.8000   -4.7880 C.ar   82  PHE82      -0.0042
     42  CE1      -27.1820  -13.4630   -6.6500 C.ar   82  PHE82      -0.0003
     43  CE2      -26.1010  -14.8110   -4.9990 C.ar   82  PHE82      -0.0003
     44  CZ       -27.1020  -14.6430   -5.9300 C.ar   82  PHE82      -0.0000
     45  N        -16.7140  -17.2250   -2.6630 N.3    93  SER93      -0.1202
     46  CA       -17.0240  -16.7120   -3.9890 C.3    93  SER93       0.2020
     47  C        -17.8530  -15.4400   -3.9030 C.2    93  SER93       0.2618
     48  O        -17.9110  -14.6630   -4.8600 O.2    93  SER93      -0.2717
     49  CB       -17.7340  -17.7800   -4.8190 C.3    93  SER93       0.2103
     50  OG       -18.9640  -18.1570   -4.2200 O.3    93  SER93      -0.2182
     51  N        -18.4560  -15.1980   -2.7490 N.am   94  ILE94      -0.1979
     52  CA       -19.2190  -13.9880   -2.4800 C.3    94  ILE94       0.1595
     53  C        -18.3450  -12.9170   -1.8440 C.2    94  ILE94       0.2287
     54  O        -18.5470  -11.7350   -2.0940 O.2    94  ILE94      -0.2864
     55  CB       -20.4430  -14.3350   -1.5970 C.3    94  ILE94       0.0276
     56  CG1      -21.4200  -15.2210   -2.3640 C.3    94  ILE94       0.0022
     57  CG2      -21.1590  -13.0940   -1.2020 C.3    94  ILE94       0.0022
     58  CD1      -22.2030  -16.2190   -1.5580 C.3    94  ILE94       0.0001
     59  N        -28.6150  -23.9100   -9.4550 N.3   186  ARG186     -0.1231
     60  CA       -28.0500  -22.7170  -10.0670 C.3   186  ARG186      0.1694
     61  C        -29.1080  -21.6270  -10.1870 C.2   186  ARG186      0.2592
     62  O        -30.2450  -21.8810  -10.5840 O.2   186  ARG186     -0.2718
     63  CB       -27.4580  -23.0770  -11.4340 C.3   186  ARG186      0.0321
     64  CG       -27.4250  -21.9770  -12.4750 C.3   186  ARG186      0.0489
     65  CD       -26.9630  -22.5100  -13.8490 C.3   186  ARG186      0.2205
     66  NE       -26.3920  -21.4640  -14.6790 N.pl3 186  ARG186     -0.0865
     67  CZ       -25.6750  -21.6480  -15.7860 C.cat 186  ARG186      0.5346
     68  NH1      -25.4100  -22.8640  -16.2220 N.pl3 186  ARG186      0.1354
     69  NH2      -25.2120  -20.6040  -16.4480 N.pl3 186  ARG186      0.1354
     70  N        -28.7270  -20.4140   -9.7980 N.am  187  PHE187     -0.1976
     71  CA       -29.6060  -19.2520   -9.8390 C.3   187  PHE187      0.1639
     72  C        -29.9180  -18.8610  -11.2830 C.2   187  PHE187      0.2290
     73  O        -29.0040  -18.7370  -12.1050 O.2   187  PHE187     -0.2864
     74  CB       -28.9400  -18.0900   -9.1100 C.3   187  PHE187      0.0560
     75  CG       -28.6900  -18.3570   -7.6540 C.ar  187  PHE187     -0.0200
     76  CD1      -27.4770  -18.0070   -7.0630 C.ar  187  PHE187     -0.0042
     77  CD2      -29.6690  -18.9330   -6.8660 C.ar  187  PHE187     -0.0042
     78  CE1      -27.2700  -18.2420   -5.7200 C.ar  187  PHE187     -0.0003
     79  CE2      -29.4680  -19.1610   -5.5340 C.ar  187  PHE187     -0.0003
     80  CZ       -28.2720  -18.8210   -4.9610 C.ar  187  PHE187     -0.0000
     81  N        -30.5860  -15.9970  -13.3450 N.3   189  PHE189     -0.1241
     82  CA       -30.4710  -14.5420  -13.2520 C.3   189  PHE189      0.1605
     83  C        -31.3870  -13.7930  -14.2280 C.2   189  PHE189      0.2264
     84  O        -31.3180  -12.5620  -14.2810 O.2   189  PHE189     -0.2867
     85  CB       -29.0090  -14.1180  -13.4560 C.3   189  PHE189      0.0534
     86  CG       -28.1490  -14.2390  -12.2140 C.ar  189  PHE189     -0.0203
     87  CD1      -28.4890  -13.5690  -11.0460 C.ar  189  PHE189     -0.0042
     88  CD2      -26.9900  -14.9950  -12.2250 C.ar  189  PHE189     -0.0042
     89  CE1      -27.6960  -13.6720   -9.9100 C.ar  189  PHE189     -0.0003
     90  CE2      -26.2030  -15.0900  -11.0940 C.ar  189  PHE189     -0.0003
     91  CZ       -26.5570  -14.4330   -9.9330 C.ar  189  PHE189     -0.0000
     92  N        -30.4110  -18.0070   -0.7970 N.3   215  PHE215     -0.1241
     93  CA       -30.1620  -19.3720   -0.3860 C.3   215  PHE215      0.1605
     94  C        -31.2750  -19.7560    0.5740 C.2   215  PHE215      0.2264
     95  O        -31.3100  -19.2440    1.7100 O.2   215  PHE215     -0.2867
     96  CB       -28.7950  -19.5040    0.2800 C.3   215  PHE215      0.0534
     97  CG       -27.6490  -19.3010   -0.6710 C.ar  215  PHE215     -0.0203
     98  CD1      -27.0110  -18.0750   -0.7650 C.ar  215  PHE215     -0.0042
     99  CD2      -27.2310  -20.3240   -1.5030 C.ar  215  PHE215     -0.0042
    100  CE1      -25.9640  -17.8770   -1.6590 C.ar  215  PHE215     -0.0003
    101  CE2      -26.1790  -20.1320   -2.4010 C.ar  215  PHE215     -0.0003
    102  CZ       -25.5500  -18.9040   -2.4790 C.ar  215  PHE215     -0.0000
    103  N        -21.1660  -23.4790   -0.2910 N.3   266  ILE266     -0.1245
    104  CA       -20.7940  -23.0140   -1.6260 C.3   266  ILE266      0.1561
    105  C        -20.1310  -24.1310   -2.4380 C.2   266  ILE266      0.2260
    106  O        -20.2650  -24.1610   -3.6560 O.2   266  ILE266     -0.2867
    107  CB       -19.9220  -21.7190   -1.5210 C.3   266  ILE266      0.0252
    108  CG1      -20.2500  -20.7280   -2.6430 C.3   266  ILE266      0.0019
    109  CG2      -18.4500  -21.9820   -1.6830 C.3   266  ILE266      0.0019
    110  CD1      -21.6390  -20.1870   -2.5950 C.3   266  ILE266      0.0001
    111  N        -23.1040  -26.2290   -3.7560 N.3   269  PHE269     -0.1227
    112  CA       -23.7460  -25.3640   -4.7410 C.3   269  PHE269      0.1736
    113  C        -22.9610  -25.3860   -6.0410 C.2   269  PHE269      0.2595
    114  O        -23.5060  -25.6680   -7.1150 O.2   269  PHE269     -0.2718
    115  CB       -23.8510  -23.9460   -4.1430 C.3   269  PHE269      0.0547
    116  CG       -24.3400  -22.8560   -5.1000 C.ar  269  PHE269     -0.0202
    117  CD1      -25.5930  -22.9150   -5.6930 C.ar  269  PHE269     -0.0042
    118  CD2      -23.5520  -21.7210   -5.3360 C.ar  269  PHE269     -0.0042
    119  CE1      -26.0360  -21.8930   -6.5400 C.ar  269  PHE269     -0.0003
    120  CE2      -23.9930  -20.7020   -6.1640 C.ar  269  PHE269     -0.0003
    121  CZ       -25.2310  -20.7880   -6.7690 C.ar  269  PHE269     -0.0000
    122  N        -21.6520  -25.1410   -5.9260 N.am  270  ALA270     -0.1980
    123  CA       -20.7580  -25.0970   -7.0760 C.3   270  ALA270      0.1597
    124  C        -20.6980  -26.4340   -7.7960 C.2   270  ALA270      0.2287
    125  O        -20.7060  -26.4740   -9.0340 O.2   270  ALA270     -0.2864
    126  CB       -19.3460  -24.7080   -6.6310 C.3   270  ALA270      0.0319
    127  N        -23.1510  -28.2140  -11.8400 N.3   274  THR274     -0.1218
    128  CA       -22.1450  -28.0210  -12.8820 C.3   274  THR274      0.1862
    129  C        -21.6330  -29.3650  -13.4010 C.2   274  THR274      0.2287
    130  O        -21.6860  -29.6550  -14.6040 O.2   274  THR274     -0.2866
    131  CB       -20.9960  -27.1900  -12.3210 C.3   274  THR274      0.1770
    132  OG1      -20.5230  -27.8170  -11.1150 O.3   274  THR274     -0.2211
    133  CG2      -21.4520  -25.7350  -12.0070 C.3   274  THR274      0.0375
    134  N        -20.2500  -23.0130  -18.9370 N.3   334  ILE334     -0.1231
    135  CA       -21.4960  -22.7840  -18.2250 C.3   334  ILE334      0.1692
    136  C        -21.4830  -21.5270  -17.3750 C.2   334  ILE334      0.2592
    137  O        -22.5490  -21.0620  -16.9600 O.2   334  ILE334     -0.2718
    138  CB       -21.8370  -23.9760  -17.3320 C.3   334  ILE334      0.0266
    139  CG1      -20.5780  -24.3720  -16.5580 C.3   334  ILE334      0.0019
    140  CG2      -22.4290  -25.1290  -18.1650 C.3   334  ILE334      0.0020
    141  CD1      -20.8450  -25.3890  -15.4770 C.3   334  ILE334      0.0001
    142  N        -20.3200  -20.9520  -17.0910 N.am  335  ALA335     -0.1966
    143  CA       -20.3650  -19.6330  -16.4510 C.3   335  ALA335      0.1728
    144  C        -20.8820  -18.5720  -17.4100 C.2   335  ALA335      0.2616
    145  O        -21.5460  -17.6260  -16.9750 O.2   335  ALA335     -0.2715
    146  CB       -18.9910  -19.2310  -15.9240 C.3   335  ALA335      0.0334
    147  N        -20.5500  -18.7040  -18.7000 N.am  336  MET336     -0.1963
    148  CA       -21.0160  -17.8390  -19.7780 C.3   336  MET336      0.1736
    149  C        -20.2870  -16.5000  -19.8750 C.2   336  MET336      0.2616
    150  O        -19.9080  -16.0970  -20.9770 O.2   336  MET336     -0.2715
    151  CB       -22.5120  -17.5890  -19.6330 C.3   336  MET336      0.0427
    152  CG       -23.3240  -18.8040  -19.8920 C.3   336  MET336      0.0599
    153  SD       -25.0310  -18.3230  -20.0160 S.3   336  MET336     -0.1393
    154  CE       -25.4470  -18.1600  -18.2960 C.3   336  MET336      0.0692
    155  N        -20.1700  -15.7790  -18.7490 N.am  337  ARG337     -0.1963
    156  CA       -19.3620  -14.5770  -18.6290 C.3   337  ARG337      0.1729
    157  C        -18.4760  -14.6540  -17.3920 C.2   337  ARG337      0.2616
    158  O        -18.7540  -15.3820  -16.4440 O.2   337  ARG337     -0.2715
    159  CB       -20.2260  -13.3170  -18.5220 C.3   337  ARG337      0.0348
    160  CG       -21.4580  -13.3360  -19.3580 C.3   337  ARG337      0.0492
    161  CD       -22.3790  -12.2340  -18.9410 C.3   337  ARG337      0.2205
    162  NE       -23.0930  -11.6380  -20.0700 N.pl3 337  ARG337     -0.0865
    163  CZ       -24.0330  -10.7040  -19.9640 C.cat 337  ARG337      0.5346
    164  NH1      -24.3830  -10.2450  -18.7680 N.pl3 337  ARG337      0.1354
    165  NH2      -24.6150  -10.2200  -21.0640 N.pl3 337  ARG337      0.1354
    166  N        -17.4060  -13.8780  -17.4080 N.am  338  LEU338     -0.1963
    167  CA       -16.7140  -13.5000  -16.1900 C.3   338  LEU338      0.1728
    168  C        -16.9160  -12.0070  -15.9510 C.2   338  LEU338      0.2616
    169  O        -17.1110  -11.2210  -16.8890 O.2   338  LEU338     -0.2715
    170  CB       -15.2240  -13.8160  -16.2710 C.3   338  LEU338      0.0311
    171  CG       -14.9670  -15.2030  -16.8460 C.3   338  LEU338      0.0022
    172  CD1      -13.5600  -15.1690  -17.3820 C.3   338  LEU338      0.0001
    173  CD2      -15.1890  -16.3560  -15.8360 C.3   338  LEU338      0.0001
    174  N        -16.8220  -11.6160  -14.6930 N.am  339  GLU339     -0.1977
    175  CA       -17.2050  -10.2820  -14.2800 C.3   339  GLU339      0.1602
    176  C        -16.2890   -9.8240  -13.1550 C.2   339  GLU339      0.2287
    177  O        -15.9100  -10.6260  -12.2920 O.2   339  GLU339     -0.2864
    178  CB       -18.6730  -10.2680  -13.8500 C.3   339  GLU339      0.0415
    179  CG       -19.6980  -10.1360  -15.0050 C.3   339  GLU339      0.1163
    180  CD       -21.1270   -9.9470  -14.4760 C.2   339  GLU339      0.3649
    181  OE1      -21.2670   -9.5800  -13.2660 O.co2 339  GLU339     -0.2457
    182  OE2      -22.0980  -10.1790  -15.2630 O.co2 339  GLU339     -0.2457
    183  N        -11.6760  -20.3750  -10.8750 N.3   407  CYS407     -0.1235
    184  CA       -12.3250  -21.4400  -10.1230 C.3   407  CYS407      0.1677
    185  C        -11.2970  -22.2220   -9.3240 C.2   407  CYS407      0.2270
    186  O        -10.4220  -22.8720   -9.8950 O.2   407  CYS407     -0.2867
    187  CB       -13.0890  -22.3750  -11.0590 C.3   407  CYS407      0.0956
    188  SG       -13.7720  -23.8500  -10.2600 S.3   407  CYS407     -0.0801
@<TRIPOS>BOND
     1     4     3    2
     2     3     2    1
     3     1     2    1
     4     2     5    1
     5   165   163    1
     6   150   149    2
     7     5     6    1
     8   162   163    2
     9   162   161    1
    10   153   152    1
    11   153   154    1
    12   163   164    1
    13   152   151    1
    14   149   148    1
    15   149   155   am
    16   148   151    1
    17   148   147    1
    18     6     8   ar
    19     6     7   ar
    20   160   161    1
    21   160   159    1
    22     8    10   ar
    23   134   135    1
    24     7     9   ar
    25   155   156    1
    26   147   144   am
    27   156   159    1
    28   156   157    1
    29   135   136    1
    30   135   138    1
    31   140   138    1
    32    10    11   ar
    33     9    11   ar
    34   144   145    2
    35   144   143    1
    36   166   157   am
    37   166   167    1
    38   157   158    2
    39   172   171    1
    40   136   142   am
    41   136   137    2
    42   138   139    1
    43   142   143    1
    44   169   168    2
    45   171   170    1
    46   171   173    1
    47   139   141    1
    48   143   146    1
    49    69    67    1
    50   170   167    1
    51    68    67    1
    52   167   168    1
    53   168   174   am
    54    67    66    2
    55   182   180   ar
    56   179   180    1
    57   179   178    1
    58   174   175    1
    59    33    31    1
    60    66    65    1
    61   130   129    2
    62   180   181   ar
    63    84    83    2
    64   175   178    1
    65   175   176    1
    66    83    82    1
    67    65    64    1
    68    32    31    1
    69    31    30    2
    70    85    82    1
    71    85    86    1
    72   129   128    1
    73    81    82    1
    74   176   177    2
    75   128   131    1
    76   128   127    1
    77    64    63    1
    78    30    29    1
    79   131   133    1
    80   131   132    1
    81    88    86   ar
    82    88    90   ar
    83    86    87   ar
    84    73    72    2
    85    63    60    1
    86    72    71    1
    87    29    28    1
    88    90    91   ar
    89   187   188    1
    90   187   184    1
    91    87    89   ar
    92   183   184    1
    93    62    61    2
    94    61    60    1
    95    61    70   am
    96    28    27    1
    97   184   185    1
    98    60    59    1
    99    27    24    1
   100    91    89   ar
   101   186   185    2
   102    71    70    1
   103    71    74    1
   104    19    18    1
   105    19    20    2
   106    22    20    1
   107    74    75    1
   108    18    17    1
   109   125   124    2
   110    23    24    1
   111    23    14   am
   112    20    21    1
   113    24    25    1
   114    17    16    1
   115    16    13    1
   116    13    14    1
   117    13    12    1
   118    14    15    2
   119   124   123    1
   120    75    76   ar
   121    75    77   ar
   122    25    26    2
   123   114   113    2
   124   123   126    1
   125   123   122    1
   126    76    78   ar
   127    77    79   ar
   128   121   119   ar
   129   121   120   ar
   130    42    40   ar
   131    42    44   ar
   132   119   117   ar
   133    40    39   ar
   134   120   118   ar
   135   113   122   am
   136   113   112    1
   137    44    43   ar
   138    78    80   ar
   139   117   116   ar
   140    79    80   ar
   141    39    38    1
   142    39    41   ar
   143   118   116   ar
   144    38    35    1
   145   116   115    1
   146    43    41   ar
   147    35    34    1
   148    35    36    1
   149    48    47    2
   150    49    50    1
   151    49    46    1
   152   112   115    1
   153   112   111    1
   154    46    47    1
   155    46    45    1
   156    47    51   am
   157    36    37    2
   158   106   105    2
   159    51    52    1
   160   108   110    1
   161   108   107    1
   162    52    53    1
   163    52    55    1
   164   102   101   ar
   165   102   100   ar
   166   105   104    1
   167   101    99   ar
   168    56    55    1
   169    56    58    1
   170    54    53    2
   171   109   107    1
   172   100    98   ar
   173   104   107    1
   174   104   103    1
   175    55    57    1
   176    99    97   ar
   177    92    93    1
   178    98    97   ar
   179    97    96    1
   180    93    96    1
   181    93    94    1
   182    94    95    2
