@<TRIPOS>MOLECULE
tmp/6bdkA01.pdb
 188 182 0 0 0
SMALL
GASTEIGER

@<TRIPOS>ATOM
      1  N        -10.4880  -36.9050  -22.2220 N.3    31  PHE31      -0.1241
      2  CA       -11.7910  -37.5720  -22.2030 C.3    31  PHE31       0.1605
      3  C        -12.6360  -37.1850  -23.4070 C.2    31  PHE31       0.2264
      4  O        -13.3620  -38.0180  -23.9640 O.2    31  PHE31      -0.2867
      5  CB       -12.5430  -37.2230  -20.9170 C.3    31  PHE31       0.0534
      6  CG       -11.8210  -37.6060  -19.6730 C.ar   31  PHE31      -0.0203
      7  CD1      -11.1450  -36.6610  -18.9250 C.ar   31  PHE31      -0.0042
      8  CD2      -11.8030  -38.9250  -19.2550 C.ar   31  PHE31      -0.0042
      9  CE1      -10.4710  -37.0300  -17.7690 C.ar   31  PHE31      -0.0003
     10  CE2      -11.1330  -39.3020  -18.1040 C.ar   31  PHE31      -0.0003
     11  CZ       -10.4680  -38.3540  -17.3610 C.ar   31  PHE31      -0.0000
     12  N        -22.0910  -41.7760   -7.4620 N.3    79  ARG79      -0.1231
     13  CA       -21.0610  -41.5770   -8.4700 C.3    79  ARG79       0.1694
     14  C        -19.8970  -42.5210   -8.1880 C.2    79  ARG79       0.2591
     15  O        -19.9080  -43.2860   -7.2190 O.2    79  ARG79      -0.2718
     16  CB       -20.6060  -40.1270   -8.4950 C.3    79  ARG79       0.0321
     17  CG       -21.7360  -39.1490   -8.3310 C.3    79  ARG79       0.0489
     18  CD       -21.2630  -37.7070   -8.5300 C.3    79  ARG79       0.2205
     19  NE       -22.2790  -36.9430   -9.2440 N.pl3  79  ARG79      -0.0865
     20  CZ       -23.1830  -36.1710   -8.6590 C.cat  79  ARG79       0.5346
     21  NH1      -23.1880  -36.0410   -7.3470 N.pl3  79  ARG79       0.1354
     22  NH2      -24.0590  -35.5050   -9.3890 N.pl3  79  ARG79       0.1354
     23  N        -18.8920  -42.5140   -9.0500 N.am   80  ARG80      -0.1980
     24  CA       -17.8120  -43.4730   -8.8760 C.3    80  ARG80       0.1597
     25  C        -17.1320  -43.2310   -7.5310 C.2    80  ARG80       0.2287
     26  O        -16.8300  -42.0770   -7.1990 O.2    80  ARG80      -0.2864
     27  CB       -16.7910  -43.3760  -10.0070 C.3    80  ARG80       0.0334
     28  CG       -15.8220  -44.5400  -10.0310 C.3    80  ARG80       0.0492
     29  CD       -14.7500  -44.3860  -11.1020 C.3    80  ARG80       0.2205
     30  NE       -15.2870  -43.8200  -12.3400 N.pl3  80  ARG80      -0.0865
     31  CZ       -14.7110  -43.9330  -13.5350 C.cat  80  ARG80       0.5346
     32  NH1      -13.5800  -44.6070  -13.6820 N.pl3  80  ARG80       0.1354
     33  NH2      -15.2810  -43.3800  -14.5920 N.pl3  80  ARG80       0.1354
     34  N        -14.9450  -42.1280   -4.7490 N.3    82  PHE82      -0.1241
     35  CA       -13.9230  -41.1060   -4.9000 C.3    82  PHE82       0.1605
     36  C        -13.1120  -40.9960   -3.6220 C.2    82  PHE82       0.2264
     37  O        -13.6770  -40.7870   -2.5430 O.2    82  PHE82      -0.2867
     38  CB       -14.5450  -39.7550   -5.2380 C.3    82  PHE82       0.0534
     39  CG       -13.5350  -38.6700   -5.4510 C.ar   82  PHE82      -0.0203
     40  CD1      -12.5320  -38.8250   -6.3910 C.ar   82  PHE82      -0.0042
     41  CD2      -13.5860  -37.4960   -4.7130 C.ar   82  PHE82      -0.0042
     42  CE1      -11.5970  -37.8330   -6.5870 C.ar   82  PHE82      -0.0003
     43  CE2      -12.6520  -36.5030   -4.9030 C.ar   82  PHE82      -0.0003
     44  CZ       -11.6580  -36.6680   -5.8420 C.ar   82  PHE82      -0.0000
     45  N        -22.1260  -33.9560   -2.7070 N.3    93  SER93      -0.1202
     46  CA       -21.6900  -34.4070   -4.0170 C.3    93  SER93       0.2020
     47  C        -20.9240  -35.7220   -3.9400 C.2    93  SER93       0.2618
     48  O        -20.8440  -36.4450   -4.9460 O.2    93  SER93      -0.2717
     49  CB       -20.8220  -33.3250   -4.6430 C.3    93  SER93       0.2103
     50  OG       -19.6830  -33.1150   -3.8190 O.3    93  SER93      -0.2182
     51  N        -20.4000  -36.0660   -2.7700 N.am   94  ILE94      -0.1979
     52  CA       -19.6660  -37.3120   -2.5960 C.3    94  ILE94       0.1595
     53  C        -20.4500  -38.3600   -1.8090 C.2    94  ILE94       0.2287
     54  O        -20.2190  -39.5590   -2.0130 O.2    94  ILE94      -0.2864
     55  CB       -18.3000  -37.0300   -1.9360 C.3    94  ILE94       0.0276
     56  CG1      -17.4340  -36.1930   -2.9000 C.3    94  ILE94       0.0022
     57  CG2      -17.5840  -38.2850   -1.5850 C.3    94  ILE94       0.0022
     58  CD1      -16.6660  -35.0730   -2.2380 C.3    94  ILE94       0.0001
     59  N        -10.1710  -27.3040   -9.6520 N.3   186  ARG186     -0.1231
     60  CA       -10.7670  -28.5080  -10.2100 C.3   186  ARG186      0.1694
     61  C         -9.7100  -29.5930  -10.3620 C.2   186  ARG186      0.2592
     62  O         -8.5650  -29.3320  -10.7550 O.2   186  ARG186     -0.2718
     63  CB       -11.4210  -28.1940  -11.5570 C.3   186  ARG186      0.0321
     64  CG       -12.4490  -29.1950  -12.0430 C.3   186  ARG186      0.0489
     65  CD       -12.8620  -28.8290  -13.4700 C.3   186  ARG186      0.2205
     66  NE       -13.1830  -30.0430  -14.2460 N.pl3 186  ARG186     -0.0865
     67  CZ       -13.4040  -30.0560  -15.5580 C.cat 186  ARG186      0.5346
     68  NH1      -13.3590  -28.9290  -16.2530 N.pl3 186  ARG186      0.1354
     69  NH2      -13.6780  -31.1910  -16.1690 N.pl3 186  ARG186      0.1354
     70  N        -10.1030  -30.8130  -10.0200 N.am  187  PHE187     -0.1976
     71  CA        -9.2010  -31.9490  -10.0310 C.3   187  PHE187      0.1639
     72  C         -8.8780  -32.3690  -11.4600 C.2   187  PHE187      0.2290
     73  O         -9.7870  -32.5820  -12.2670 O.2   187  PHE187     -0.2864
     74  CB        -9.8440  -33.0960   -9.2540 C.3   187  PHE187      0.0560
     75  CG       -10.0300  -32.7910   -7.7980 C.ar  187  PHE187     -0.0200
     76  CD1      -11.1320  -33.2530   -7.0970 C.ar  187  PHE187     -0.0042
     77  CD2       -9.0740  -32.0370   -7.1260 C.ar  187  PHE187     -0.0042
     78  CE1      -11.2710  -32.9610   -5.7330 C.ar  187  PHE187     -0.0003
     79  CE2       -9.1920  -31.7530   -5.7910 C.ar  187  PHE187     -0.0003
     80  CZ       -10.2980  -32.2140   -5.0850 C.ar  187  PHE187     -0.0000
     81  N         -8.2230  -35.1940  -13.3350 N.3   189  PHE189     -0.1298
     82  CA        -8.3180  -36.6580  -13.2370 C.3   189  PHE189      0.1290
     83  C         -7.3990  -37.4060  -14.2540 C.3   189  PHE189      0.2013
     84  O         -7.6220  -38.6170  -14.3510 O.3   189  PHE189     -0.2188
     85  CB        -9.7700  -37.1350  -13.4030 C.3   189  PHE189      0.0480
     86  CG       -10.6410  -36.8930  -12.1900 C.ar  189  PHE189     -0.0206
     87  CD1      -10.4320  -37.6060  -11.0150 C.ar  189  PHE189     -0.0042
     88  CD2      -11.6750  -35.9560  -12.2280 C.ar  189  PHE189     -0.0042
     89  CE1      -11.2270  -37.3920   -9.8980 C.ar  189  PHE189     -0.0003
     90  CE2      -12.4740  -35.7310  -11.1070 C.ar  189  PHE189     -0.0003
     91  CZ       -12.2430  -36.4580   -9.9380 C.ar  189  PHE189     -0.0000
     92  N         -8.4220  -33.1390   -0.8320 N.3   215  PHE215     -0.1241
     93  CA        -8.6950  -31.7930   -0.3510 C.3   215  PHE215      0.1605
     94  C         -7.6090  -31.4190    0.6520 C.2   215  PHE215      0.2264
     95  O         -7.6310  -31.9200    1.7920 O.2   215  PHE215     -0.2867
     96  CB       -10.0880  -31.7130    0.2820 C.3   215  PHE215      0.0534
     97  CG       -11.2120  -31.9610   -0.7050 C.ar  215  PHE215     -0.0203
     98  CD1      -11.8890  -33.1660   -0.7310 C.ar  215  PHE215     -0.0042
     99  CD2      -11.5610  -30.9960   -1.6360 C.ar  215  PHE215     -0.0042
    100  CE1      -12.9100  -33.4010   -1.6620 C.ar  215  PHE215     -0.0003
    101  CE2      -12.5740  -31.2210   -2.5660 C.ar  215  PHE215     -0.0003
    102  CZ       -13.2470  -32.4270   -2.5800 C.ar  215  PHE215     -0.0000
    103  N        -17.7540  -27.5590   -0.3020 N.3   265  ILE265     -0.1245
    104  CA       -18.0440  -28.1080   -1.6220 C.3   265  ILE265      0.1561
    105  C        -18.6490  -27.0360   -2.5130 C.2   265  ILE265      0.2260
    106  O        -18.4560  -27.0590   -3.7280 O.2   265  ILE265     -0.2867
    107  CB       -18.9490  -29.3700   -1.4930 C.3   265  ILE265      0.0252
    108  CG1      -18.7340  -30.3790   -2.6370 C.3   265  ILE265      0.0019
    109  CG2      -20.4040  -28.9900   -1.4540 C.3   265  ILE265      0.0019
    110  CD1      -17.4370  -31.1420   -2.5590 C.3   265  ILE265      0.0001
    111  N        -15.5170  -24.8450   -3.8960 N.3   268  PHE268     -0.1227
    112  CA       -14.9710  -25.7750   -4.8860 C.3   268  PHE268      0.1736
    113  C        -15.8460  -25.7830   -6.1370 C.2   268  PHE268      0.2595
    114  O        -15.3460  -25.6060   -7.2530 O.2   268  PHE268     -0.2718
    115  CB       -14.8490  -27.1690   -4.2220 C.3   268  PHE268      0.0547
    116  CG       -14.4120  -28.3190   -5.1450 C.ar  268  PHE268     -0.0202
    117  CD1      -13.1230  -28.3710   -5.6550 C.ar  268  PHE268     -0.0042
    118  CD2      -15.2790  -29.3800   -5.4430 C.ar  268  PHE268     -0.0042
    119  CE1      -12.7210  -29.4270   -6.4840 C.ar  268  PHE268     -0.0003
    120  CE2      -14.8680  -30.4180   -6.2540 C.ar  268  PHE268     -0.0003
    121  CZ       -13.5890  -30.4370   -6.7740 C.ar  268  PHE268     -0.0000
    122  N        -17.1630  -25.9100   -5.9400 N.am  269  ALA269     -0.1980
    123  CA       -18.1230  -26.0220   -7.0330 C.3   269  ALA269      0.1597
    124  C        -18.2790  -24.7320   -7.8120 C.2   269  ALA269      0.2287
    125  O        -18.5290  -24.7850   -9.0190 O.2   269  ALA269     -0.2864
    126  CB       -19.5060  -26.4210   -6.5020 C.3   269  ALA269      0.0319
    127  N        -15.5080  -23.1760  -11.8290 N.3   273  THR273     -0.1218
    128  CA       -16.5740  -23.3360  -12.8120 C.3   273  THR273      0.1862
    129  C        -17.0430  -21.9800  -13.3230 C.2   273  THR273      0.2287
    130  O        -16.9640  -21.6970  -14.5260 O.2   273  THR273     -0.2866
    131  CB       -17.7450  -24.1200  -12.2110 C.3   273  THR273      0.1770
    132  OG1      -18.4020  -23.3220  -11.2160 O.3   273  THR273     -0.2211
    133  CG2      -17.2560  -25.4210  -11.6040 C.3   273  THR273      0.0375
    134  N        -18.5210  -28.1330  -18.8440 N.3   333  ILE333     -0.1231
    135  CA       -17.2630  -28.2890  -18.1310 C.3   333  ILE333      0.1692
    136  C        -17.1570  -29.5960  -17.3630 C.2   333  ILE333      0.2592
    137  O        -16.0460  -29.9740  -17.0050 O.2   333  ILE333     -0.2718
    138  CB       -17.0430  -27.1000  -17.1920 C.3   333  ILE333      0.0266
    139  CG1      -18.3590  -26.7530  -16.5000 C.3   333  ILE333      0.0019
    140  CG2      -16.5680  -25.9100  -17.9920 C.3   333  ILE333      0.0020
    141  CD1      -18.1860  -25.6490  -15.4870 C.3   333  ILE333      0.0001
    142  N        -18.2700  -30.2920  -17.0820 N.am  334  ALA334     -0.1966
    143  CA       -18.1490  -31.6110  -16.4430 C.3   334  ALA334      0.1728
    144  C        -17.7320  -32.6920  -17.4250 C.2   334  ALA334      0.2616
    145  O        -17.0900  -33.6620  -17.0110 O.2   334  ALA334     -0.2715
    146  CB       -19.4630  -32.0360  -15.7480 C.3   334  ALA334      0.0334
    147  N        -18.1380  -32.5700  -18.6900 N.am  335  MET335     -0.1963
    148  CA       -17.7300  -33.4060  -19.8110 C.3   335  MET335      0.1736
    149  C        -18.5130  -34.7010  -19.8420 C.2   335  MET335      0.2616
    150  O        -18.9760  -35.1190  -20.9100 O.2   335  MET335     -0.2715
    151  CB       -16.2400  -33.6740  -19.7660 C.3   335  MET335      0.0427
    152  CG       -15.4580  -32.4070  -19.8380 C.3   335  MET335      0.0599
    153  SD       -13.7650  -32.8890  -20.0190 S.3   335  MET335     -0.1393
    154  CE       -13.3530  -33.3880  -18.3530 C.3   335  MET335      0.0692
    155  N        -18.6630  -35.3350  -18.6720 N.am  336  ARG336     -0.1963
    156  CA       -19.4640  -36.5420  -18.5460 C.3   336  ARG336      0.1729
    157  C        -20.2870  -36.5020  -17.2720 C.2   336  ARG336      0.2616
    158  O        -19.9320  -35.8550  -16.2970 O.2   336  ARG336     -0.2715
    159  CB       -18.6040  -37.8180  -18.5240 C.3   336  ARG336      0.0348
    160  CG       -17.3660  -37.7740  -19.4140 C.3   336  ARG336      0.0492
    161  CD       -16.2810  -38.7860  -18.9720 C.3   336  ARG336      0.2205
    162  NE       -15.6000  -39.4910  -20.0740 N.pl3 336  ARG336     -0.0865
    163  CZ       -14.6710  -40.4390  -19.9090 C.cat 336  ARG336      0.5346
    164  NH1      -14.3120  -40.8190  -18.6880 N.pl3 336  ARG336      0.1354
    165  NH2      -14.1160  -41.0390  -20.9640 N.pl3 336  ARG336      0.1354
    166  N        -21.3830  -37.2270  -17.2920 N.am  337  LEU337     -0.1963
    167  CA       -22.0790  -37.6400  -16.0900 C.3   337  LEU337      0.1728
    168  C        -21.8540  -39.1330  -15.8870 C.2   337  LEU337      0.2616
    169  O        -21.5820  -39.8670  -16.8370 O.2   337  LEU337     -0.2715
    170  CB       -23.5630  -37.3200  -16.2020 C.3   337  LEU337      0.0311
    171  CG       -23.7580  -35.9480  -16.8320 C.3   337  LEU337      0.0022
    172  CD1      -25.1310  -35.9290  -17.4770 C.3   337  LEU337      0.0001
    173  CD2      -23.6290  -34.8740  -15.7910 C.3   337  LEU337      0.0001
    174  N        -21.9810  -39.5760  -14.6350 N.am  338  GLU338     -0.1977
    175  CA       -21.6070  -40.9240  -14.2410 C.3   338  GLU338      0.1602
    176  C        -22.4390  -41.3640  -13.0450 C.2   338  GLU338      0.2287
    177  O        -22.5980  -40.5910  -12.0970 O.2   338  GLU338     -0.2864
    178  CB       -20.1200  -40.9870  -13.8730 C.3   338  GLU338      0.0415
    179  CG       -19.0900  -40.9120  -15.0230 C.3   338  GLU338      0.1163
    180  CD       -17.6810  -41.2780  -14.5070 C.2   338  GLU338      0.3649
    181  OE1      -17.5570  -41.6160  -13.2890 O.co2 338  GLU338     -0.2457
    182  OE2      -16.7040  -41.2150  -15.3050 O.co2 338  GLU338     -0.2457
    183  N        -27.2320  -30.7500  -10.8730 N.3   406  CYS406     -0.1235
    184  CA       -26.4340  -29.7380  -10.1900 C.3   406  CYS406      0.1677
    185  C        -27.3520  -28.8850   -9.3390 C.2   406  CYS406      0.2270
    186  O        -28.0820  -28.0510   -9.8700 O.2   406  CYS406     -0.2867
    187  CB       -25.6840  -28.8530  -11.1780 C.3   406  CYS406      0.0956
    188  SG       -24.9650  -27.3460  -10.3720 S.3   406  CYS406     -0.0801
@<TRIPOS>BOND
     1     4     3    2
     2     3     2    1
     3     1     2    1
     4     2     5    1
     5   165   163    1
     6     5     6    1
     7   150   149    2
     8   162   163    2
     9   162   161    1
    10   153   152    1
    11   153   154    1
    12   163   164    1
    13   149   148    1
    14   149   155   am
    15   152   151    1
    16   148   151    1
    17   148   147    1
    18     6     8   ar
    19     6     7   ar
    20   160   161    1
    21   160   159    1
    22     8    10   ar
    23     7     9   ar
    24   134   135    1
    25   147   144   am
    26   155   156    1
    27   156   159    1
    28   156   157    1
    29   135   136    1
    30   135   138    1
    31    10    11   ar
    32   140   138    1
    33     9    11   ar
    34   172   171    1
    35   144   145    2
    36   144   143    1
    37   136   142   am
    38   136   137    2
    39   166   157   am
    40   166   167    1
    41   157   158    2
    42   138   139    1
    43   142   143    1
    44   169   168    2
    45   171   170    1
    46   171   173    1
    47   139   141    1
    48   143   146    1
    49    68    67    1
    50   170   167    1
    51    69    67    1
    52   167   168    1
    53   168   174   am
    54    67    66    2
    55   182   180   ar
    56   179   180    1
    57   179   178    1
    58   174   175    1
    59    33    31    1
    60   130   129    2
    61   180   181   ar
    62    84    83    1
    63    83    82    1
    64    66    65    1
    65   175   178    1
    66   175   176    1
    67    32    31    1
    68    31    30    2
    69    65    64    1
    70    85    82    1
    71    85    86    1
    72    81    82    1
    73   129   128    1
    74   176   177    2
    75   128   131    1
    76   128   127    1
    77    30    29    1
    78    73    72    2
    79    88    86   ar
    80    88    90   ar
    81   131   133    1
    82   131   132    1
    83    86    87   ar
    84    64    63    1
    85    63    60    1
    86    72    71    1
    87   187   188    1
    88   187   184    1
    89    90    91   ar
    90    29    28    1
    91    87    89   ar
    92   183   184    1
    93    62    61    2
    94    61    60    1
    95    61    70   am
    96    60    59    1
    97   184   185    1
    98    28    27    1
    99    71    70    1
   100    71    74    1
   101    27    24    1
   102    91    89   ar
   103   186   185    2
   104    22    20    1
   105    74    75    1
   106    19    20    2
   107    19    18    1
   108    23    24    1
   109    23    14   am
   110   125   124    2
   111    24    25    1
   112    20    21    1
   113    18    17    1
   114    16    13    1
   115    16    17    1
   116    13    14    1
   117    13    12    1
   118    14    15    2
   119   124   123    1
   120    75    77   ar
   121    75    76   ar
   122    25    26    2
   123   114   113    2
   124    77    79   ar
   125    76    78   ar
   126   123   126    1
   127   123   122    1
   128   121   119   ar
   129   121   120   ar
   130    42    40   ar
   131    42    44   ar
   132   119   117   ar
   133    40    39   ar
   134   120   118   ar
   135   113   122   am
   136   113   112    1
   137    44    43   ar
   138    79    80   ar
   139    78    80   ar
   140   117   116   ar
   141    39    38    1
   142    39    41   ar
   143   118   116   ar
   144    38    35    1
   145   116   115    1
   146    48    47    2
   147    43    41   ar
   148    35    34    1
   149    35    36    1
   150   112   115    1
   151   112   111    1
   152    49    46    1
   153    49    50    1
   154    46    47    1
   155    46    45    1
   156    47    51   am
   157   106   105    2
   158    36    37    2
   159    56    58    1
   160    56    55    1
   161    51    52    1
   162   108   110    1
   163   108   107    1
   164    52    55    1
   165    52    53    1
   166   102   101   ar
   167   102   100   ar
   168   101    99   ar
   169   105   104    1
   170    54    53    2
   171    55    57    1
   172   100    98   ar
   173    99    97   ar
   174   104   107    1
   175   104   103    1
   176   107   109    1
   177    92    93    1
   178    98    97   ar
   179    97    96    1
   180    93    96    1
   181    93    94    1
   182    94    95    2
