@<TRIPOS>MOLECULE
tmp/6bdoD01.pdb
 141 134 0 0 0
SMALL
GASTEIGER

@<TRIPOS>ATOM
      1  N        -21.1200   28.0920   -6.6630 N.3    11  TYR11      -0.1241
      2  CA       -21.2790   26.6520   -6.7690 C.3    11  TYR11       0.1605
      3  C        -20.7600   26.1540   -8.1140 C.2    11  TYR11       0.2264
      4  O        -19.9140   25.2580   -8.1730 O.2    11  TYR11      -0.2867
      5  CB       -22.7460   26.2720   -6.5820 C.3    11  TYR11       0.0534
      6  CG       -23.2010   26.4070   -5.1510 C.ar   11  TYR11      -0.0201
      7  CD1      -23.6560   27.6230   -4.6580 C.ar   11  TYR11      -0.0009
      8  CD2      -23.1400   25.3290   -4.2810 C.ar   11  TYR11      -0.0009
      9  CE1      -24.0620   27.7530   -3.3440 C.ar   11  TYR11       0.0417
     10  CE2      -23.5390   25.4490   -2.9670 C.ar   11  TYR11       0.0417
     11  CZ       -23.9990   26.6610   -2.5030 C.ar   11  TYR11       0.1957
     12  OH       -24.3960   26.7810   -1.1930 O.3    11  TYR11      -0.2866
     13  N        -26.8630   28.9160    0.2120 N.3    44  THR44      -0.1218
     14  CA       -28.0390   28.1860    0.6600 C.3    44  THR44       0.1862
     15  C        -28.2680   28.2980    2.1620 C.2    44  THR44       0.2287
     16  O        -29.2960   27.8470    2.6710 O.2    44  THR44      -0.2866
     17  CB       -27.9460   26.6970    0.2760 C.3    44  THR44       0.1770
     18  OG1      -26.8560   26.0860    0.9800 O.3    44  THR44      -0.2211
     19  CG2      -27.7080   26.5520   -1.2170 C.3    44  THR44       0.0375
     20  N        -31.0350   26.8230   -8.9730 N.3   313  THR313     -0.1203
     21  CA       -30.6980   26.2020   -7.7050 C.3   313  THR313      0.1994
     22  C        -29.2150   25.8620   -7.6510 C.2   313  THR313      0.2618
     23  O        -28.5500   25.7720   -8.6840 O.2   313  THR313     -0.2717
     24  CB       -31.5410   24.9300   -7.4590 C.3   313  THR313      0.1784
     25  OG1      -30.8330   24.0480   -6.5830 O.3   313  THR313     -0.2211
     26  CG2      -31.8170   24.2000   -8.7560 C.3   313  THR313      0.0376
     27  N        -28.6970   25.7150   -6.4370 N.am  314  ALA314     -0.1965
     28  CA       -27.3140   25.3080   -6.2290 C.3   314  ALA314      0.1728
     29  C        -27.1200   23.8510   -6.6600 C.2   314  ALA314      0.2616
     30  O        -26.0450   23.4600   -7.1370 O.2   314  ALA314     -0.2715
     31  CB       -26.9180   25.4970   -4.7720 C.3   314  ALA314      0.0334
     32  N        -28.1700   23.0550   -6.4780 N.am  315  GLN315     -0.1977
     33  CA       -28.1410   21.6370   -6.8100 C.3   315  GLN315      0.1601
     34  C        -27.8020   21.4230   -8.2810 C.2   315  GLN315      0.2287
     35  O        -26.9160   20.6320   -8.6130 O.2   315  GLN315     -0.2864
     36  CB       -29.4860   20.9860   -6.4830 C.3   315  GLN315      0.0394
     37  CG       -29.4740   19.4650   -6.5030 C.3   315  GLN315      0.0908
     38  CD       -30.8710   18.8750   -6.4340 C.2   315  GLN315      0.2608
     39  OE1      -31.0830   17.7140   -6.7800 O.2   315  GLN315     -0.2717
     40  NE2      -31.8330   19.6780   -5.9940 N.am  315  GLN315     -0.0878
     41  N        -24.1180   22.7640   -9.2900 N.3   318  ILE318     -0.1245
     42  CA       -23.0340   21.8180   -9.0420 C.3   318  ILE318      0.1561
     43  C        -22.8830   20.8760  -10.2310 C.2   318  ILE318      0.2260
     44  O        -21.7690   20.5870  -10.6940 O.2   318  ILE318     -0.2867
     45  CB       -23.2850   21.0030   -7.7610 C.3   318  ILE318      0.0252
     46  CG1      -23.3040   21.9300   -6.5440 C.3   318  ILE318      0.0019
     47  CG2      -22.2280   19.9210   -7.5990 C.3   318  ILE318      0.0019
     48  CD1      -23.8950   21.3060   -5.3120 C.3   318  ILE318      0.0001
     49  N        -32.8420   15.5600   -7.4960 N.3   345  ARG345     -0.1231
     50  CA       -33.2460   14.6420   -6.4430 C.3   345  ARG345      0.1694
     51  C        -34.2520   15.3230   -5.5200 C.2   345  ARG345      0.2593
     52  O        -35.4080   15.5380   -5.8940 O.2   345  ARG345     -0.2718
     53  CB       -32.0300   14.1560   -5.6520 C.3   345  ARG345      0.0321
     54  CG       -30.9420   13.5510   -6.5360 C.3   345  ARG345      0.0489
     55  CD       -29.7510   13.0520   -5.7260 C.3   345  ARG345      0.2205
     56  NE       -29.0180   14.1260   -5.0520 N.pl3 345  ARG345     -0.0865
     57  CZ       -28.0430   14.8370   -5.6070 C.cat 345  ARG345      0.5346
     58  NH1      -27.6760   14.6090   -6.8640 N.pl3 345  ARG345      0.1354
     59  NH2      -27.3590   15.7200   -4.8740 N.pl3 345  ARG345      0.1354
     60  N        -33.8120   15.6740   -4.3190 N.am  346  GLY346     -0.1942
     61  CA       -34.7000   16.3210   -3.3760 C.3   346  GLY346      0.2014
     62  C        -34.0600   17.4750   -2.6400 C.2   346  GLY346      0.2639
     63  O        -32.8370   17.5620   -2.5180 O.2   346  GLY346     -0.2714
     64  N        -34.9030   18.3540   -2.1190 N.am  347  THR347     -0.1950
     65  CA       -34.4320   19.4950   -1.3590 C.3   347  THR347      0.1897
     66  C        -35.3760   19.7920   -0.2010 C.2   347  THR347      0.2313
     67  O        -36.5880   19.5990   -0.3020 O.2   347  THR347     -0.2863
     68  CB       -34.2670   20.7400   -2.2530 C.3   347  THR347      0.1794
     69  OG1      -33.6550   21.7930   -1.4980 O.3   347  THR347     -0.2208
     70  CG2      -35.6100   21.2060   -2.7940 C.3   347  THR347      0.0378
     71  N        -38.1430   14.0140   -0.3970 N.3   360  VAL360     -0.1245
     72  CA       -36.9470   13.2280   -0.6820 C.3   360  VAL360      0.1561
     73  C        -37.3100   11.9420   -1.4190 C.2   360  VAL360      0.2260
     74  O        -37.9860   11.0670   -0.8720 O.2   360  VAL360     -0.2867
     75  CB       -36.1780   12.8800    0.6050 C.3   360  VAL360      0.0252
     76  CG1      -34.9320   12.0500    0.3140 C.3   360  VAL360      0.0019
     77  CG2      -35.7400   14.1820    1.2790 C.3   360  VAL360      0.0019
     78  N        -32.0130   16.0220    7.9550 N.3   373  LEU373     -0.1231
     79  CA       -31.6710   15.7220    6.5630 C.3   373  LEU373      0.1693
     80  C        -31.0280   16.9150    5.8630 C.2   373  LEU373      0.2591
     81  O        -30.0090   16.7600    5.1840 O.2   373  LEU373     -0.2718
     82  CB       -32.8970   15.2550    5.7730 C.3   373  LEU373      0.0284
     83  CG       -33.2330   13.7580    5.7730 C.3   373  LEU373      0.0019
     84  CD1      -33.2180   13.1400    7.1650 C.3   373  LEU373      0.0001
     85  CD2      -34.5660   13.4980    5.0800 C.3   373  LEU373      0.0001
     86  N        -31.6060   18.1040    6.0290 N.am  374  LYS374     -0.1980
     87  CA       -31.0240   19.2870    5.3990 C.3   374  LYS374      0.1596
     88  C        -29.6110   19.5460    5.9180 C.2   374  LYS374      0.2287
     89  O        -28.6910   19.8170    5.1290 O.2   374  LYS374     -0.2864
     90  CB       -31.8970   20.5220    5.6160 C.3   374  LYS374      0.0298
     91  CG       -31.5400   21.6630    4.6760 C.3   374  LYS374      0.0038
     92  CD       -32.3740   22.9110    4.9190 C.3   374  LYS374      0.0206
     93  CE       -31.9030   24.0620    4.0330 C.3   374  LYS374      0.1093
     94  NZ       -31.8770   23.6950    2.5880 N.3   374  LYS374     -0.1314
     95  N        -27.5960   17.4220    6.9770 N.3   376  LEU376     -0.1231
     96  CA       -26.7810   16.3800    6.3690 C.3   376  LEU376      0.1693
     97  C        -26.3770   16.7450    4.9430 C.2   376  LEU376      0.2592
     98  O        -25.2270   16.5450    4.5560 O.2   376  LEU376     -0.2718
     99  CB       -27.5260   15.0450    6.3830 C.3   376  LEU376      0.0284
    100  CG       -26.7970   13.8480    5.7710 C.3   376  LEU376      0.0019
    101  CD1      -25.4400   13.6340    6.4340 C.3   376  LEU376      0.0001
    102  CD2      -27.6580   12.6020    5.8850 C.3   376  LEU376      0.0001
    103  N        -27.3170   17.2820    4.1660 N.am  377  ILE377     -0.1966
    104  CA       -27.0190   17.7000    2.7950 C.3   377  ILE377      0.1727
    105  C        -25.9670   18.8070    2.7590 C.2   377  ILE377      0.2616
    106  O        -25.0400   18.7790    1.9320 O.2   377  ILE377     -0.2715
    107  CB       -28.2820   18.1840    2.0660 C.3   377  ILE377      0.0290
    108  CG1      -29.3410   17.0820    2.0690 C.3   377  ILE377      0.0022
    109  CG2      -27.9520   18.5930    0.6390 C.3   377  ILE377      0.0023
    110  CD1      -30.6170   17.4510    1.3600 C.3   377  ILE377      0.0001
    111  N        -26.0940   19.7710    3.6690 N.am  378  ASP378     -0.1971
    112  CA       -25.1010   20.8380    3.7460 C.3   378  ASP378      0.1709
    113  C        -23.7240   20.2460    4.0310 C.2   378  ASP378      0.2293
    114  O        -22.7220   20.6080    3.3860 O.2   378  ASP378     -0.2864
    115  CB       -25.4730   21.8570    4.8230 C.3   378  ASP378      0.1436
    116  CG       -24.5540   23.0700    4.8170 C.2   378  ASP378      0.3671
    117  OD1      -23.8470   23.3720    3.7910 O.co2 378  ASP378     -0.2456
    118  OD2      -24.6160   23.8370    5.7890 O.co2 378  ASP378     -0.2456
    119  N        -22.7680   17.3460    3.2700 N.3   380  ARG380     -0.1231
    120  CA       -22.3630   16.6410    2.0610 C.3   380  ARG380      0.1694
    121  C        -21.6760   17.5790    1.0740 C.2   380  ARG380      0.2592
    122  O        -20.6160   17.2400    0.5430 O.2   380  ARG380     -0.2718
    123  CB       -23.5600   15.9590    1.3940 C.3   380  ARG380      0.0321
    124  CG       -23.1810   15.1920    0.1360 C.3   380  ARG380      0.0489
    125  CD       -23.9710   13.9010   -0.0140 C.3   380  ARG380      0.2205
    126  NE       -23.1390   12.8190   -0.5420 N.pl3 380  ARG380     -0.0865
    127  CZ       -22.9740   12.5600   -1.8360 C.cat 380  ARG380      0.5346
    128  NH1      -23.5880   13.3040   -2.7470 N.pl3 380  ARG380      0.1354
    129  NH2      -22.1940   11.5560   -2.2220 N.pl3 380  ARG380      0.1354
    130  N        -22.2510   18.7600    0.8420 N.am  381  TYR381     -0.1976
    131  CA       -21.6100   19.7040   -0.0840 C.3   381  TYR381      0.1639
    132  C        -20.2500   20.1180    0.4580 C.2   381  TYR381      0.2290
    133  O        -19.2570   20.2090   -0.2930 O.2   381  TYR381     -0.2864
    134  CB       -22.4760   20.9450   -0.3180 C.3   381  TYR381      0.0560
    135  CG       -21.7960   22.0150   -1.1550 C.ar  381  TYR381     -0.0198
    136  CD1      -21.6100   21.8470   -2.5220 C.ar  381  TYR381     -0.0009
    137  CD2      -21.3270   23.1870   -0.5740 C.ar  381  TYR381     -0.0009
    138  CE1      -20.9880   22.8200   -3.2880 C.ar  381  TYR381      0.0417
    139  CE2      -20.7020   24.1650   -1.3320 C.ar  381  TYR381      0.0417
    140  CZ       -20.5340   23.9760   -2.6870 C.ar  381  TYR381      0.1957
    141  OH       -19.9150   24.9480   -3.4430 O.3   381  TYR381     -0.2866
@<TRIPOS>BOND
     1    44    43    2
     2    43    42    1
     3    41    42    1
     4    42    45    1
     5    20    21    1
     6    26    24    1
     7    23    22    2
     8    35    34    2
     9    34    33    1
    10     4     3    2
    11     3     2    1
    12    45    47    1
    13    45    46    1
    14    21    22    1
    15    21    24    1
    16    22    27   am
    17    49    50    1
    18    24    25    1
    19    30    29    2
    20    58    57    1
    21    33    36    1
    22    33    32    1
    23    39    38    2
    24     2     1    1
    25     2     5    1
    26    29    32   am
    27    29    28    1
    28     5     6    1
    29    46    48    1
    30    54    55    1
    31    54    53    1
    32    37    36    1
    33    37    38    1
    34    50    53    1
    35    50    51    1
    36    27    28    1
    37    38    40   am
    38    28    31    1
    39    52    51    2
    40    55    56    1
    41    57    56    2
    42    57    59    1
    43    51    60   am
    44     6     7   ar
    45     6     8   ar
    46     7     9   ar
    47    60    61    1
    48     8    10   ar
    49   141   140    1
    50    61    62    1
    51     9    11   ar
    52   138   140   ar
    53   138   136   ar
    54    10    11   ar
    55    70    68    1
    56   128   127    1
    57   140   139   ar
    58    62    63    2
    59    62    64   am
    60   136   135   ar
    61    11    12    1
    62    68    69    1
    63    68    65    1
    64   129   127    1
    65    64    65    1
    66   127   126    2
    67    73    74    2
    68    73    72    1
    69    65    66    1
    70   139   137   ar
    71    19    17    1
    72   135   137   ar
    73   135   134    1
    74    72    71    1
    75    72    75    1
    76   126   125    1
    77   134   131    1
    78    67    66    2
    79   133   132    2
    80   131   132    1
    81   131   130    1
    82   125   124    1
    83   124   123    1
    84    13    14    1
    85    17    14    1
    86    17    18    1
    87    76    75    1
    88   122   121    2
    89    75    77    1
    90   109   107    1
    91    14    15    1
    92   130   121   am
    93   121   120    1
    94   110   108    1
    95   123   120    1
    96   106   105    2
    97   120   119    1
    98   107   108    1
    99   107   104    1
   100    15    16    2
   101    94    93    1
   102   105   104    1
   103   105   111   am
   104   104   103    1
   105   114   113    2
   106   111   112    1
   107   112   113    1
   108   112   115    1
   109   117   116   ar
   110    93    92    1
   111   103    97   am
   112    98    97    2
   113    91    92    1
   114    91    90    1
   115   116   115    1
   116   116   118   ar
   117    97    96    1
   118    85    83    1
   119    89    88    2
   120    81    80    2
   121    87    90    1
   122    87    88    1
   123    87    86    1
   124   100   102    1
   125   100    99    1
   126   100   101    1
   127    82    83    1
   128    82    79    1
   129    83    84    1
   130    80    86   am
   131    80    79    1
   132    96    99    1
   133    96    95    1
   134    79    78    1
