@<TRIPOS>MOLECULE
tmp/6bdpA01.pdb
 204 194 0 0 0
SMALL
GASTEIGER

@<TRIPOS>ATOM
      1  N        117.1020    3.8010    8.7500 N.3    18  PRO18      -0.2102
      2  CA       116.2670    3.5590    9.9320 C.3    18  PRO18       0.1504
      3  C        115.4590    2.2770    9.7790 C.2    18  PRO18       0.2575
      4  O        115.0800    1.8820    8.6790 O.2    18  PRO18      -0.2718
      5  CB       115.3570    4.7890    9.9790 C.3    18  PRO18       0.0282
      6  CG       115.4430    5.3950    8.6320 C.3    18  PRO18       0.0208
      7  CD       116.8200    5.1190    8.1520 C.3    18  PRO18       0.0893
      8  N        115.2130    1.6300   10.9180 N.am   19  ARG19      -0.1980
      9  CA       114.4540    0.3820   11.0140 C.3    19  ARG19       0.1597
     10  C        115.2270   -0.8200   10.4790 C.2    19  ARG19       0.2287
     11  O        114.6260   -1.8030   10.0250 O.2    19  ARG19      -0.2864
     12  CB       113.0590    0.4650   10.3840 C.3    19  ARG19       0.0334
     13  CG       112.2470    1.6940   10.7700 C.3    19  ARG19       0.0492
     14  CD       112.1500    1.9240   12.2780 C.3    19  ARG19       0.2205
     15  NE       111.5180    0.8250   12.9930 N.pl3  19  ARG19      -0.0865
     16  CZ       111.4240    0.7100   14.3170 C.cat  19  ARG19       0.5346
     17  NH1      111.9530    1.6190   15.1250 N.pl3  19  ARG19       0.1354
     18  NH2      110.7810   -0.3320   14.8470 N.pl3  19  ARG19       0.1354
     19  N        119.3690    0.0210   13.8930 N.3    22  THR22      -0.1218
     20  CA       120.2790    1.1260   14.2180 C.3    22  THR22       0.1862
     21  C        120.3530    1.3880   15.7230 C.2    22  THR22       0.2287
     22  O        121.4190    1.7150   16.2450 O.2    22  THR22      -0.2866
     23  CB       119.9240    2.4220   13.4530 C.3    22  THR22       0.1770
     24  OG1      118.6500    2.9210   13.8840 O.3    22  THR22      -0.2211
     25  CG2      119.8970    2.1860   11.9460 C.3    22  THR22       0.0375
     26  N        122.4160    8.9880   16.7980 N.3    39  HIS39      -0.1226
     27  CA       121.1920    8.2900   16.4180 C.3    39  HIS39       0.1752
     28  C        120.0880    9.3340   16.4290 C.2    39  HIS39       0.2596
     29  O        120.2260   10.3660   17.0830 O.2    39  HIS39      -0.2718
     30  CB       120.8800    7.1810   17.4260 C.3    39  HIS39       0.0759
     31  CG       119.7900    6.2530   16.9900 C.ar   39  HIS39       0.0818
     32  ND1      118.4610    6.4600   17.2980 N.ar   39  HIS39      -0.2268
     33  CD2      119.8400    5.0830   16.3020 C.ar   39  HIS39       0.1154
     34  CE1      117.7370    5.4920   16.7750 C.ar   39  HIS39       0.1986
     35  NE2      118.5440    4.6400   16.1750 N.ar   39  HIS39      -0.2212
     36  N        118.9680    9.0490   15.7510 N.am   40  MET40      -0.1965
     37  CA       117.8580    9.9980   15.8330 C.3    40  MET40       0.1736
     38  C        117.3770   10.1550   17.2730 C.2    40  MET40       0.2616
     39  O        116.9210   11.2360   17.6630 O.2    40  MET40      -0.2715
     40  CB       116.6960    9.6000   14.9290 C.3    40  MET40       0.0427
     41  CG       115.5820   10.6390   14.8650 C.3    40  MET40       0.0599
     42  SD       116.0780   12.2310   14.1310 S.3    40  MET40      -0.1393
     43  CE       116.0650   11.8280   12.3830 C.3    40  MET40       0.0692
     44  N        117.5020    9.1080   18.0890 N.am   41  PHE41      -0.1974
     45  CA       117.0910    9.2090   19.4810 C.3    41  PHE41       0.1639
     46  C        117.9520   10.1970   20.2470 C.2    41  PHE41       0.2290
     47  O        117.4950   10.7560   21.2410 O.2    41  PHE41      -0.2864
     48  CB       117.1340    7.8490   20.1690 C.3    41  PHE41       0.0560
     49  CG       115.9510    6.9720   19.9130 C.ar   41  PHE41      -0.0200
     50  CD1      115.3150    6.9510   18.6920 C.ar   41  PHE41      -0.0042
     51  CD2      115.5200    6.1190   20.9110 C.ar   41  PHE41      -0.0042
     52  CE1      114.2420    6.1130   18.4760 C.ar   41  PHE41      -0.0003
     53  CE2      114.4640    5.2730   20.7040 C.ar   41  PHE41      -0.0003
     54  CZ       113.8270    5.2620   19.4820 C.ar   41  PHE41      -0.0000
     55  N        116.1070   13.3650   19.5050 N.3    44  ILE44      -0.1231
     56  CA       114.7930   13.4180   20.1510 C.3    44  ILE44       0.1692
     57  C        114.9380   13.6530   21.6400 C.2    44  ILE44       0.2592
     58  O        114.2140   14.4570   22.2300 O.2    44  ILE44      -0.2718
     59  CB       113.9940   12.1330   19.8870 C.3    44  ILE44       0.0266
     60  CG1      113.6270   12.0270   18.4170 C.3    44  ILE44       0.0019
     61  CG2      112.7570   12.1160   20.7520 C.3    44  ILE44       0.0020
     62  CD1      113.0390   10.6820   18.0630 C.3    44  ILE44       0.0001
     63  N        115.8500   12.9300   22.2750 N.am   45  PHE45      -0.1976
     64  CA       115.8870   12.8990   23.7250 C.3    45  PHE45       0.1639
     65  C        116.9300   13.8150   24.3440 C.2    45  PHE45       0.2290
     66  O        116.7520   14.2170   25.4950 O.2    45  PHE45      -0.2864
     67  CB       116.0200   11.4530   24.2230 C.3    45  PHE45       0.0560
     68  CG       114.8040   10.6240   23.9350 C.ar   45  PHE45      -0.0200
     69  CD1      113.6600   10.7870   24.6850 C.ar   45  PHE45      -0.0042
     70  CD2      114.7990    9.7120   22.8930 C.ar   45  PHE45      -0.0042
     71  CE1      112.5200   10.0440   24.4180 C.ar   45  PHE45      -0.0003
     72  CE2      113.6610    8.9550   22.6150 C.ar   45  PHE45      -0.0003
     73  CZ       112.5170    9.1240   23.3790 C.ar   45  PHE45      -0.0000
     74  N        121.9360    5.9530   11.7980 N.3    86  ASP86      -0.1225
     75  CA       120.5650    6.4290   11.6260 C.3    86  ASP86       0.1805
     76  C        120.4790    7.7140   10.8090 C.2    86  ASP86       0.2597
     77  O        121.4830    8.3890   10.5650 O.2    86  ASP86      -0.2718
     78  CB       119.9290    6.6490   13.0040 C.3    86  ASP86       0.1424
     79  CG       118.4050    6.6040   12.9900 C.2    86  ASP86       0.3668
     80  OD1      117.7800    6.3600   11.9260 O.co2  86  ASP86      -0.2456
     81  OD2      117.8510    6.8600   14.0870 O.co2  86  ASP86      -0.2456
     82  N        119.2690    8.0720   10.3900 N.am   87  LEU87      -0.1979
     83  CA       119.0390    9.4280    9.9450 C.3    87  LEU87       0.1596
     84  C        119.2570   10.3450   11.1390 C.2    87  LEU87       0.2287
     85  O        118.9850    9.9540   12.2720 O.2    87  LEU87      -0.2864
     86  CB       117.5960    9.6050    9.4870 C.3    87  LEU87       0.0297
     87  CG       117.0970    8.8370    8.2790 C.3    87  LEU87       0.0022
     88  CD1      115.6330    9.1690    8.0240 C.3    87  LEU87       0.0001
     89  CD2      117.9380    9.0910    7.0440 C.3    87  LEU87       0.0001
     90  N        106.2640    3.1290   12.4780 N.3   122  VAL122     -0.1231
     91  CA       107.0420    3.9430   13.4080 C.3   122  VAL122      0.1692
     92  C        107.3780    5.3210   12.8470 C.2   122  VAL122      0.2591
     93  O        107.2030    6.3300   13.5270 O.2   122  VAL122     -0.2718
     94  CB       108.3210    3.2140   13.8410 C.3   122  VAL122      0.0266
     95  CG1      109.1590    4.0860   14.7910 C.3   122  VAL122      0.0020
     96  CG2      107.9750    1.9150   14.4640 C.3   122  VAL122      0.0020
     97  N        107.9390    5.3720   11.6420 N.am  123  VAL123     -0.1980
     98  CA       108.5540    6.5790   11.1100 C.3   123  VAL123      0.1595
     99  C        107.6330    7.2940   10.1420 C.2   123  VAL123      0.2287
    100  O        107.5130    8.5220   10.1790 O.2   123  VAL123     -0.2864
    101  CB       109.8960    6.2180   10.4330 C.3   123  VAL123      0.0276
    102  CG1      110.5310    7.4290    9.7430 C.3   123  VAL123      0.0022
    103  CG2      110.8480    5.6700   11.4640 C.3   123  VAL123      0.0022
    104  N        100.6190    8.7300   16.5190 N.3   135  ILE135     -0.1245
    105  CA       102.0400    9.0580   16.4630 C.3   135  ILE135      0.1561
    106  C        102.2520   10.5490   16.7050 C.2   135  ILE135      0.2260
    107  O        103.1110   10.9600   17.4980 O.2   135  ILE135     -0.2867
    108  CB       102.5970    8.5990   15.1040 C.3   135  ILE135      0.0252
    109  CG1      103.1070    7.1710   15.2330 C.3   135  ILE135      0.0019
    110  CG2      103.6070    9.5600   14.5860 C.3   135  ILE135      0.0019
    111  CD1      103.6380    6.5970   13.9220 C.3   135  ILE135      0.0001
    112  N        104.1160   12.4350   19.8440 N.3   139  ASP139     -0.1239
    113  CA       105.3010   13.2370   19.5740 C.3   139  ASP139      0.1674
    114  C        105.1980   14.6160   20.2150 C.2   139  ASP139      0.2266
    115  O        106.2050   15.1750   20.6560 O.2   139  ASP139     -0.2867
    116  CB       105.5000   13.3890   18.0690 C.3   139  ASP139      0.1410
    117  CG       106.0640   12.1550   17.4210 C.2   139  ASP139      0.3668
    118  OD1      106.4770   11.2370   18.1460 O.co2 139  ASP139     -0.2456
    119  OD2      106.0590   12.1010   16.1700 O.co2 139  ASP139     -0.2456
    120  N        106.6320   15.0100   23.5400 N.3   142  LEU142     -0.1245
    121  CA       108.0880   15.1120   23.5380 C.3   142  LEU142      0.1561
    122  C        108.6040   16.4530   23.0260 C.2   142  LEU142      0.2260
    123  O        109.8220   16.6460   22.9490 O.2   142  LEU142     -0.2867
    124  CB       108.6690   13.9660   22.7030 C.3   142  LEU142      0.0270
    125  CG       108.2930   12.5580   23.1750 C.3   142  LEU142      0.0019
    126  CD1      108.9050   11.5040   22.2530 C.3   142  LEU142      0.0001
    127  CD2      108.7810   12.3450   24.6160 C.3   142  LEU142      0.0001
    128  N        108.2090   17.5090   19.9230 N.3   144  LEU144     -0.1245
    129  CA       108.5280   17.3720   18.5140 C.3   144  LEU144      0.1561
    130  C        107.4330   18.0280   17.6850 C.2   144  LEU144      0.2260
    131  O        106.2420   17.7670   17.8930 O.2   144  LEU144     -0.2867
    132  CB       108.6230   15.8960   18.1430 C.3   144  LEU144      0.0270
    133  CG       109.7080   15.0780   18.8400 C.3   144  LEU144      0.0019
    134  CD1      109.7100   13.6490   18.3080 C.3   144  LEU144      0.0001
    135  CD2      111.0940   15.6770   18.6640 C.3   144  LEU144      0.0001
    136  N        110.6570   18.6350   13.0880 N.3   148  PHE148     -0.1227
    137  CA       111.1950   17.2930   13.2610 C.3   148  PHE148      0.1736
    138  C        110.8000   16.3960   12.0940 C.2   148  PHE148      0.2595
    139  O        111.6400   15.6810   11.5420 O.2   148  PHE148     -0.2718
    140  CB       110.7190   16.7010   14.5850 C.3   148  PHE148      0.0547
    141  CG       111.0670   15.2660   14.7390 C.ar  148  PHE148     -0.0202
    142  CD1      112.3450   14.8810   15.0950 C.ar  148  PHE148     -0.0042
    143  CD2      110.1300   14.2970   14.4830 C.ar  148  PHE148     -0.0042
    144  CE1      112.6750   13.5370   15.1980 C.ar  148  PHE148     -0.0003
    145  CE2      110.4480   12.9610   14.5970 C.ar  148  PHE148     -0.0003
    146  CZ       111.7100   12.5830   14.9420 C.ar  148  PHE148     -0.0000
    147  N        109.5330   16.4590   11.6740 N.am  149  TYR149     -0.1976
    148  CA       109.0870   15.6570   10.5370 C.3   149  TYR149      0.1639
    149  C        109.7490   16.1140    9.2500 C.2   149  TYR149      0.2290
    150  O        110.0900   15.2900    8.3920 O.2   149  TYR149     -0.2864
    151  CB       107.5680   15.7130   10.4320 C.3   149  TYR149      0.0560
    152  CG       106.8570   15.2560   11.6810 C.ar  149  TYR149     -0.0198
    153  CD1      107.1260   14.0230   12.2510 C.ar  149  TYR149     -0.0009
    154  CD2      105.9110   16.0520   12.2860 C.ar  149  TYR149     -0.0009
    155  CE1      106.4760   13.6050   13.3940 C.ar  149  TYR149      0.0417
    156  CE2      105.2600   15.6440   13.4200 C.ar  149  TYR149      0.0417
    157  CZ       105.5410   14.4220   13.9740 C.ar  149  TYR149      0.1957
    158  OH       104.8590   14.0280   15.1160 O.3   149  TYR149     -0.2866
    159  N        113.1810   14.5170    9.1690 N.3   152  THR152     -0.1218
    160  CA       113.0880   13.1160    8.7570 C.3   152  THR152      0.1862
    161  C        112.8940   13.0070    7.2490 C.2   152  THR152      0.2287
    162  O        113.5870   12.2360    6.5720 O.2   152  THR152     -0.2866
    163  CB       111.9270   12.4490    9.4960 C.3   152  THR152      0.1770
    164  OG1      112.1910   12.4700   10.9010 O.3   152  THR152     -0.2211
    165  CG2      111.7030   11.0090    9.0250 C.3   152  THR152      0.0375
    166  N        113.8400   -1.4970   20.3000 N.3   222  ASN222     -0.1240
    167  CA       113.2280   -0.6190   19.3060 C.3   222  ASN222      0.1653
    168  C        112.4050   -1.3910   18.2760 C.2   222  ASN222      0.2266
    169  O        112.3300   -0.9850   17.1130 O.2   222  ASN222     -0.2867
    170  CB       114.2800    0.2500   18.6090 C.3   222  ASN222      0.1155
    171  CG       113.6930    1.5190   17.9910 C.2   222  ASN222      0.2627
    172  OD1      112.5290    1.8850   18.2150 O.2   222  ASN222     -0.2716
    173  ND2      114.4920    2.1840   17.1790 N.am  222  ASN222     -0.0877
    174  N        107.6630    0.4910   20.1290 N.3   227  MET227     -0.1245
    175  CA       107.3850    1.8830   19.7880 C.3   227  MET227      0.1570
    176  C        105.9040    2.1990   19.8790 C.2   227  MET227      0.2261
    177  O        105.5240    3.3090   20.2820 O.2   227  MET227     -0.2867
    178  CB       107.9020    2.1770   18.3870 C.3   227  MET227      0.0387
    179  CG       109.3920    2.2650   18.3060 C.3   227  MET227      0.0595
    180  SD       110.0420    3.6790   19.2640 S.3   227  MET227     -0.1393
    181  CE       110.5400    2.8280   20.7070 C.3   227  MET227      0.0692
    182  N        105.2710    2.7640   23.4450 N.3   230  LEU230     -0.1231
    183  CA       105.7890    4.0580   23.8610 C.3   230  LEU230      0.1693
    184  C        104.8390    5.1810   23.4600 C.2   230  LEU230      0.2592
    185  O        104.5310    6.0570   24.2620 O.2   230  LEU230     -0.2718
    186  CB       107.1840    4.2740   23.2540 C.3   230  LEU230      0.0284
    187  CG       107.8090    5.6490   23.5260 C.3   230  LEU230      0.0019
    188  CD1      107.8940    5.9200   25.0160 C.3   230  LEU230      0.0001
    189  CD2      109.1840    5.7590   22.9240 C.3   230  LEU230      0.0001
    190  N        104.3650    5.1690   22.2130 N.am  231  THR231     -0.1953
    191  CA       103.4160    6.1900   21.7680 C.3   231  THR231      0.1897
    192  C        102.1390    6.1640   22.6000 C.2   231  THR231      0.2313
    193  O        101.6330    7.2170   23.0020 O.2   231  THR231     -0.2863
    194  CB       103.1090    5.9820   20.2820 C.3   231  THR231      0.1794
    195  OG1      104.2550    6.3540   19.5190 O.3   231  THR231     -0.2208
    196  CG2      101.9100    6.8060   19.8380 C.3   231  THR231      0.0378
    197  N        102.8630    7.5620   26.1160 N.3   234  LEU234     -0.1245
    198  CA       102.9920    9.0160   26.0830 C.3   234  LEU234      0.1561
    199  C        101.6310    9.6810   26.0100 C.2   234  LEU234      0.2260
    200  O        101.3760   10.6810   26.6990 O.2   234  LEU234     -0.2867
    201  CB       103.8350    9.4350   24.8780 C.3   234  LEU234      0.0270
    202  CG       105.3290    9.1400   24.9900 C.3   234  LEU234      0.0019
    203  CD1      106.0210    9.2760   23.6330 C.3   234  LEU234      0.0001
    204  CD2      105.9780   10.0550   26.0320 C.3   234  LEU234      0.0001
@<TRIPOS>BOND
     1   162   161    2
     2    89    87    1
     3   161   160    1
     4    88    87    1
     5     7     6    1
     6     7     1    1
     7    87    86    1
     8   150   149    2
     9     6     5    1
    10     4     3    2
    11     1     2    1
    12   160   159    1
    13   160   163    1
    14   165   163    1
    15   149   148    1
    16    86    83    1
    17   163   164    1
    18   102   101    1
    19     3     2    1
    20     3     8   am
    21     2     5    1
    22    83    82    1
    23    83    84    1
    24    11    10    2
    25    99   100    2
    26    99    98    1
    27    12    13    1
    28    12     9    1
    29    82    76   am
    30   151   148    1
    31   151   152    1
    32   101    98    1
    33   101   103    1
    34    10     9    1
    35   148   147    1
    36    77    76    2
    37    13    14    1
    38    76    75    1
    39     8     9    1
    40    98    97    1
    41    84    85    2
    42   139   138    2
    43    75    74    1
    44    75    78    1
    45    97    92   am
    46   147   138   am
    47   152   153   ar
    48   152   154   ar
    49    80    79   ar
    50    25    23    1
    51   138   137    1
    52   153   155   ar
    53    14    15    1
    54   154   156   ar
    55    43    42    1
    56    90    91    1
    57    92    91    1
    58    92    93    2
    59    79    78    1
    60    79    81   ar
    61    15    16    2
    62   136   137    1
    63   137   140    1
    64   155   157   ar
    65    91    94    1
    66   156   157   ar
    67    23    24    1
    68    23    20    1
    69    94    96    1
    70    94    95    1
    71    19    20    1
    72   111   109    1
    73   157   158    1
    74    42    41    1
    75    20    21    1
    76    16    18    1
    77    16    17    1
    78   143   145   ar
    79   143   141   ar
    80   140   141    1
    81   110   108    1
    82   145   146   ar
    83   141   142   ar
    84    41    40    1
    85    40    37    1
    86   146   144   ar
    87   142   144   ar
    88   108   109    1
    89   108   105    1
    90    21    22    2
    91    36    37    1
    92    36    28   am
    93    37    38    1
    94   119   117   ar
    95    35    33   ar
    96    35    34   ar
    97    33    31   ar
    98    27    28    1
    99    27    26    1
   100    27    30    1
   101    28    29    2
   102   105   104    1
   103   105   106    1
   104   106   107    2
   105    34    32   ar
   106    31    32   ar
   107    31    30    1
   108   169   168    2
   109   173   171   am
   110    38    39    2
   111    38    44   am
   112   117   116    1
   113   117   118   ar
   114   130   131    2
   115   130   129    1
   116   171   172    2
   117   171   170    1
   118    62    60    1
   119   116   113    1
   120    44    45    1
   121   132   129    1
   122   132   133    1
   123   168   167    1
   124   179   178    1
   125   179   180    1
   126   134   133    1
   127   178   175    1
   128    60    59    1
   129    52    50   ar
   130    52    54   ar
   131   129   128    1
   132   170   167    1
   133   135   133    1
   134    50    49   ar
   135   180   181    1
   136   167   166    1
   137    45    48    1
   138    45    46    1
   139    54    53   ar
   140    55    56    1
   141   195   194    1
   142   113   112    1
   143   113   114    1
   144   175   176    1
   145   175   174    1
   146   196   194    1
   147   176   177    2
   148    59    56    1
   149    59    61    1
   150    49    48    1
   151    49    51   ar
   152    56    57    1
   153   114   115    2
   154    46    47    2
   155   194   191    1
   156    53    51   ar
   157    57    58    2
   158    57    63   am
   159   191   190    1
   160   191   192    1
   161   190   184   am
   162   126   125    1
   163    63    64    1
   164   192   193    2
   165    72    70   ar
   166    72    73   ar
   167   124   125    1
   168   124   121    1
   169    70    68   ar
   170   189   187    1
   171   123   122    2
   172   122   121    1
   173   125   127    1
   174   186   187    1
   175   186   183    1
   176    73    71   ar
   177   182   183    1
   178   184   183    1
   179   184   185    2
   180   187   188    1
   181   121   120    1
   182   203   202    1
   183    64    67    1
   184    64    65    1
   185    68    67    1
   186    68    69   ar
   187    65    66    2
   188    71    69   ar
   189   201   202    1
   190   201   198    1
   191   202   204    1
   192   199   198    1
   193   199   200    2
   194   198   197    1
