@<TRIPOS>MOLECULE
tmp/6bdqA01.pdb
 188 178 0 0 0
SMALL
GASTEIGER

@<TRIPOS>ATOM
      1  N        115.8960    3.7360    8.9020 N.3    18  PRO18      -0.2102
      2  CA       115.0760    3.5240   10.1000 C.3    18  PRO18       0.1504
      3  C        114.2690    2.2400    9.9550 C.2    18  PRO18       0.2575
      4  O        113.9040    1.8470    8.8480 O.2    18  PRO18      -0.2718
      5  CB       114.1510    4.7580   10.1240 C.3    18  PRO18       0.0282
      6  CG       114.1850    5.2940    8.7100 C.3    18  PRO18       0.0208
      7  CD       115.5940    5.0260    8.2470 C.3    18  PRO18       0.0893
      8  N        114.0110    1.5800   11.0890 N.am   19  ARG19      -0.1980
      9  CA       113.2750    0.3130   11.1450 C.3    19  ARG19       0.1597
     10  C        114.1000   -0.8760   10.6540 C.2    19  ARG19       0.2287
     11  O        113.5320   -1.8970   10.2360 O.2    19  ARG19      -0.2864
     12  CB       111.8800    0.3630   10.4740 C.3    19  ARG19       0.0334
     13  CG       111.0620    1.6180   10.8520 C.3    19  ARG19       0.0492
     14  CD       110.9860    1.8100   12.3750 C.3    19  ARG19       0.2205
     15  NE       110.3270    0.6870   13.0400 N.pl3  19  ARG19      -0.0865
     16  CZ       110.2390    0.5330   14.3620 C.cat  19  ARG19       0.5346
     17  NH1      110.7970    1.4250   15.1820 N.pl3  19  ARG19       0.1354
     18  NH2      109.5930   -0.5150   14.8720 N.pl3  19  ARG19       0.1354
     19  N        118.0660    0.0220   14.2330 N.3    22  THR22      -0.1218
     20  CA       119.0020    1.0830   14.5820 C.3    22  THR22       0.1862
     21  C        119.0370    1.3500   16.0820 C.2    22  THR22       0.2287
     22  O        120.1040    1.6460   16.6230 O.2    22  THR22      -0.2866
     23  CB       118.7040    2.3780   13.8140 C.3    22  THR22       0.1770
     24  OG1      117.3960    2.8450   14.1550 O.3    22  THR22      -0.2211
     25  CG2      118.8050    2.1750   12.2960 C.3    22  THR22       0.0375
     26  N        121.1850    8.9730   17.0630 N.3    39  HIS39      -0.1226
     27  CA       119.9510    8.2930   16.6520 C.3    39  HIS39       0.1752
     28  C        118.8680    9.3620   16.6810 C.2    39  HIS39       0.2596
     29  O        119.0340   10.3960   17.3280 O.2    39  HIS39      -0.2718
     30  CB       119.6060    7.1660   17.6370 C.3    39  HIS39       0.0759
     31  CG       118.4550    6.2960   17.2280 C.ar   39  HIS39       0.0818
     32  ND1      117.1470    6.5720   17.5810 N.ar   39  HIS39      -0.2268
     33  CD2      118.4220    5.1260   16.5450 C.ar   39  HIS39       0.1154
     34  CE1      116.3570    5.6280   17.1000 C.ar   39  HIS39       0.1986
     35  NE2      117.1050    4.7380   16.4690 N.ar   39  HIS39      -0.2212
     36  N        117.7540    9.1160   15.9870 N.am   40  MET40      -0.1965
     37  CA       116.6570   10.0870   16.0730 C.3    40  MET40       0.1736
     38  C        116.2040   10.3080   17.5180 C.2    40  MET40       0.2616
     39  O        115.8110   11.4230   17.8850 O.2    40  MET40      -0.2715
     40  CB       115.4890    9.6680   15.1800 C.3    40  MET40       0.0427
     41  CG       114.3630   10.7130   15.0960 C.3    40  MET40       0.0599
     42  SD       114.9350   12.2850   14.3970 S.3    40  MET40      -0.1393
     43  CE       114.6690   11.9950   12.6570 C.3    40  MET40       0.0692
     44  N        116.2850    9.2740   18.3580 N.am   41  PHE41      -0.1974
     45  CA       115.8710    9.3950   19.7560 C.3    41  PHE41       0.1639
     46  C        116.7660   10.3490   20.5370 C.2    41  PHE41       0.2290
     47  O        116.3220   10.9310   21.5320 O.2    41  PHE41      -0.2864
     48  CB       115.8780    8.0300   20.4510 C.3    41  PHE41       0.0560
     49  CG       114.7200    7.1450   20.0770 C.ar   41  PHE41      -0.0200
     50  CD1      114.0080    7.3560   18.9080 C.ar   41  PHE41      -0.0042
     51  CD2      114.3530    6.0890   20.8950 C.ar   41  PHE41      -0.0042
     52  CE1      112.9430    6.5250   18.5560 C.ar   41  PHE41      -0.0003
     53  CE2      113.2890    5.2510   20.5410 C.ar   41  PHE41      -0.0003
     54  CZ       112.5920    5.4820   19.3720 C.ar   41  PHE41      -0.0000
     55  N        115.0210   13.4950   19.8200 N.3    44  ILE44      -0.1231
     56  CA       113.7180   13.5920   20.4810 C.3    44  ILE44       0.1692
     57  C        113.8760   13.8550   21.9740 C.2    44  ILE44       0.2592
     58  O        113.2270   14.7420   22.5400 O.2    44  ILE44      -0.2718
     59  CB       112.8980   12.3150   20.2290 C.3    44  ILE44       0.0266
     60  CG1      112.4740   12.2340   18.7590 C.3    44  ILE44       0.0019
     61  CG2      111.6950   12.2930   21.1520 C.3    44  ILE44       0.0020
     62  CD1      111.9140   10.8850   18.3390 C.3    44  ILE44       0.0001
     63  N        114.7310   13.0820   22.6380 N.am   45  PHE45      -0.1976
     64  CA       114.7600   13.0840   24.0930 C.3    45  PHE45       0.1639
     65  C        115.8490   13.9520   24.6980 C.2    45  PHE45       0.2290
     66  O        115.7240   14.3450   25.8610 O.2    45  PHE45      -0.2864
     67  CB       114.8710   11.6490   24.6120 C.3    45  PHE45       0.0560
     68  CG       113.7070   10.7950   24.2210 C.ar   45  PHE45      -0.0200
     69  CD1      112.4720   10.9760   24.8260 C.ar   45  PHE45      -0.0042
     70  CD2      113.8330    9.8250   23.2380 C.ar   45  PHE45      -0.0042
     71  CE1      111.3800   10.2010   24.4620 C.ar   45  PHE45      -0.0003
     72  CE2      112.7470    9.0350   22.8690 C.ar   45  PHE45      -0.0003
     73  CZ       111.5180    9.2220   23.4810 C.ar   45  PHE45      -0.0000
     74  N        120.5860    5.8910   12.0160 N.3    93  ASP93      -0.1225
     75  CA       119.1950    6.3370   11.8700 C.3    93  ASP93       0.1805
     76  C        119.1030    7.6540   11.1060 C.2    93  ASP93       0.2597
     77  O        120.1240    8.3010   10.8390 O.2    93  ASP93      -0.2718
     78  CB       118.5430    6.4710   13.2590 C.3    93  ASP93       0.1424
     79  CG       117.0130    6.5620   13.2180 C.2    93  ASP93       0.3668
     80  OD1      116.3900    6.3290   12.1550 O.co2  93  ASP93      -0.2456
     81  OD2      116.4290    6.8520   14.2820 O.co2  93  ASP93      -0.2456
     82  N        117.8820    8.0630   10.7530 N.am   94  LEU94      -0.1979
     83  CA       117.6610    9.4430   10.3330 C.3    94  LEU94       0.1596
     84  C        117.9770   10.3760   11.5030 C.2    94  LEU94       0.2287
     85  O        117.7780   10.0170   12.6700 O.2    94  LEU94      -0.2864
     86  CB       116.1890    9.6390    9.9460 C.3    94  LEU94       0.0297
     87  CG       115.5500    8.7760    8.8570 C.3    94  LEU94       0.0022
     88  CD1      114.0370    9.0540    8.7620 C.3    94  LEU94       0.0001
     89  CD2      116.2310    9.0300    7.5140 C.3    94  LEU94       0.0001
     90  N        105.0840    3.1040   12.4220 N.3   129  VAL129     -0.1231
     91  CA       105.9150    3.8540   13.3590 C.3   129  VAL129      0.1692
     92  C        106.2730    5.2390   12.8310 C.2   129  VAL129      0.2591
     93  O        106.1370    6.2440   13.5400 O.2   129  VAL129     -0.2718
     94  CB       107.1850    3.0620   13.7480 C.3   129  VAL129      0.0266
     95  CG1      108.0650    3.9020   14.6810 C.3   129  VAL129      0.0020
     96  CG2      106.8030    1.7340   14.4060 C.3   129  VAL129      0.0020
     97  N        106.7510    5.3180   11.5920 N.am  130  VAL130     -0.1980
     98  CA       107.3880    6.5170   11.0700 C.3   130  VAL130      0.1595
     99  C        106.5010    7.2320   10.0630 C.2   130  VAL130      0.2287
    100  O        106.3920    8.4600   10.0800 O.2   130  VAL130     -0.2864
    101  CB       108.7650    6.1880   10.4430 C.3   130  VAL130      0.0276
    102  CG1      109.4220    7.4530    9.8450 C.3   130  VAL130      0.0022
    103  CG2      109.6780    5.5240   11.4540 C.3   130  VAL130      0.0022
    104  N         99.6530    8.9370   16.4800 N.3   142  ILE142     -0.1245
    105  CA       101.0780    9.2570   16.5220 C.3   142  ILE142      0.1561
    106  C        101.2730   10.7540   16.7380 C.2   142  ILE142      0.2260
    107  O        102.1110   11.1790   17.5440 O.2   142  ILE142     -0.2867
    108  CB       101.8010    8.7560   15.2580 C.3   142  ILE142      0.0252
    109  CG1      101.7000    7.2320   15.1260 C.3   142  ILE142      0.0019
    110  CG2      103.2610    9.1830   15.2930 C.3   142  ILE142      0.0019
    111  CD1      102.3590    6.7040   13.8500 C.3   142  ILE142      0.0001
    112  N        100.5750   11.6770   20.5020 N.3   145  GLY145     -0.1210
    113  CA       101.7020   11.3450   21.3620 C.3   145  GLY145      0.1956
    114  C        102.8920   12.2640   21.1430 C.2   145  GLY145      0.2611
    115  O        103.5970   12.6240   22.0890 O.2   145  GLY145     -0.2717
    116  N        103.1440   12.6450   19.8920 N.am  146  ASP146     -0.1973
    117  CA       104.2750   13.5270   19.6170 C.3   146  ASP146      0.1709
    118  C        104.1170   14.8750   20.3170 C.2   146  ASP146      0.2293
    119  O        105.0980   15.4380   20.8200 O.2   146  ASP146     -0.2864
    120  CB       104.4230   13.7410   18.1180 C.3   146  ASP146      0.1436
    121  CG       105.1060   12.5840   17.4350 C.2   146  ASP146      0.3671
    122  OD1      105.6530   11.7300   18.1600 O.co2 146  ASP146     -0.2456
    123  OD2      105.0890   12.5300   16.1850 O.co2 146  ASP146     -0.2456
    124  N        105.5150   14.9800   23.6680 N.3   149  LEU149     -0.1245
    125  CA       106.9680   15.0950   23.6970 C.3   149  LEU149      0.1561
    126  C        107.4730   16.4780   23.2960 C.2   149  LEU149      0.2260
    127  O        108.6880   16.7180   23.3500 O.2   149  LEU149     -0.2867
    128  CB       107.5850   14.0350   22.7820 C.3   149  LEU149      0.0270
    129  CG       107.3140   12.5860   23.1980 C.3   149  LEU149      0.0019
    130  CD1      107.9420   11.6130   22.1930 C.3   149  LEU149      0.0001
    131  CD2      107.8590   12.3350   24.6000 C.3   149  LEU149      0.0001
    132  N        106.9870   17.6690   20.1690 N.3   151  LEU151     -0.1245
    133  CA       107.2840   17.5610   18.7480 C.3   151  LEU151      0.1561
    134  C        106.0840   18.0110   17.9250 C.2   151  LEU151      0.2260
    135  O        104.9410   17.6450   18.2150 O.2   151  LEU151     -0.2867
    136  CB       107.6200   16.1100   18.3870 C.3   151  LEU151      0.0270
    137  CG       108.7370   15.4570   19.1990 C.3   151  LEU151      0.0019
    138  CD1      108.7010   13.9350   19.0300 C.3   151  LEU151      0.0001
    139  CD2      110.0960   16.0230   18.7860 C.3   151  LEU151      0.0001
    140  N        109.3880   18.7740   13.4760 N.3   155  PHE155     -0.1241
    141  CA       109.9470   17.4290   13.5820 C.3   155  PHE155      0.1605
    142  C        109.4730   16.5540   12.4310 C.2   155  PHE155      0.2264
    143  O        110.2280   15.7110   11.9290 O.2   155  PHE155     -0.2867
    144  CB       109.5630   16.8140   14.9280 C.3   155  PHE155      0.0534
    145  CG       110.0120   15.3860   15.0900 C.ar  155  PHE155     -0.0203
    146  CD1      111.3310   15.0920   15.3950 C.ar  155  PHE155     -0.0042
    147  CD2      109.1110   14.3440   14.9320 C.ar  155  PHE155     -0.0042
    148  CE1      111.7520   13.7630   15.5410 C.ar  155  PHE155     -0.0003
    149  CE2      109.5180   13.0200   15.0710 C.ar  155  PHE155     -0.0003
    150  CZ       110.8350   12.7330   15.3730 C.ar  155  PHE155     -0.0000
    151  N        111.8630   14.5650    9.6080 N.3   159  THR159     -0.1218
    152  CA       111.7400   13.1390    9.3040 C.3   159  THR159      0.1862
    153  C        111.5370   12.9230    7.8080 C.2   159  THR159      0.2287
    154  O        112.2960   12.1950    7.1590 O.2   159  THR159     -0.2866
    155  CB       110.5910   12.5330   10.1120 C.3   159  THR159      0.1770
    156  OG1      110.8380   12.7220   11.5140 O.3   159  THR159     -0.2211
    157  CG2      110.4720   11.0450    9.8410 C.3   159  THR159      0.0375
    158  N        112.5010   -1.5530   20.4770 N.3   230  ASN230     -0.1240
    159  CA       111.9380   -0.6590   19.4700 C.3   230  ASN230      0.1653
    160  C        111.0970   -1.3770   18.4120 C.2   230  ASN230      0.2266
    161  O        110.9930   -0.9030   17.2730 O.2   230  ASN230     -0.2867
    162  CB       113.0090    0.2450   18.8380 C.3   230  ASN230      0.1155
    163  CG       112.4240    1.5400   18.3190 C.2   230  ASN230      0.2627
    164  OD1      111.3700    1.9640   18.7770 O.2   230  ASN230     -0.2716
    165  ND2      113.0850    2.1560   17.3510 N.am  230  ASN230     -0.0877
    166  N        104.1450    2.9470   23.5180 N.3   237  LEU237     -0.1231
    167  CA       104.6280    4.2730   23.9170 C.3   237  LEU237      0.1693
    168  C        103.6280    5.3570   23.5280 C.2   237  LEU237      0.2592
    169  O        103.2840    6.2240   24.3410 O.2   237  LEU237     -0.2718
    170  CB       105.9950    4.5490   23.2870 C.3   237  LEU237      0.0284
    171  CG       106.6460    5.9070   23.5610 C.3   237  LEU237      0.0019
    172  CD1      106.6970    6.1710   25.0640 C.3   237  LEU237      0.0001
    173  CD2      108.0490    5.9740   22.9530 C.3   237  LEU237      0.0001
    174  N        103.1570    5.3230   22.2810 N.am  238  THR238     -0.1953
    175  CA       102.2100    6.3240   21.8000 C.3   238  THR238      0.1897
    176  C        100.9220    6.2980   22.6170 C.2   238  THR238      0.2313
    177  O        100.4170    7.3440   23.0370 O.2   238  THR238     -0.2863
    178  CB       101.9240    6.0730   20.3160 C.3   238  THR238      0.1794
    179  OG1      103.0820    6.4140   19.5430 O.3   238  THR238     -0.2208
    180  CG2      100.6970    6.8790   19.8360 C.3   238  THR238      0.0378
    181  N        101.7150    7.7180   26.1420 N.3   241  LEU241     -0.1245
    182  CA       101.8900    9.1710   26.1150 C.3   241  LEU241      0.1561
    183  C        100.5440    9.8790   26.0400 C.2   241  LEU241      0.2260
    184  O        100.3210   10.8900   26.7240 O.2   241  LEU241     -0.2867
    185  CB       102.7700    9.5800   24.9320 C.3   241  LEU241      0.0270
    186  CG       104.2640    9.2670   25.0330 C.3   241  LEU241      0.0019
    187  CD1      104.9640    9.4070   23.6680 C.3   241  LEU241      0.0001
    188  CD2      104.9220   10.1710   26.0870 C.3   241  LEU241      0.0001
@<TRIPOS>BOND
     1   154   153    2
     2    89    87    1
     3   153   152    1
     4     7     6    1
     5     7     1    1
     6     6     5    1
     7    88    87    1
     8     4     3    2
     9    87    86    1
    10     1     2    1
    11   152   151    1
    12   152   155    1
    13   157   155    1
    14   102   101    1
    15    86    83    1
    16     3     2    1
    17     3     8   am
    18    99   100    2
    19    99    98    1
    20     2     5    1
    21   155   156    1
    22    11    10    2
    23    83    82    1
    24    83    84    1
    25   101    98    1
    26   101   103    1
    27    12    13    1
    28    12     9    1
    29    10     9    1
    30    82    76   am
    31    77    76    2
    32    13    14    1
    33    98    97    1
    34     8     9    1
    35    76    75    1
    36    84    85    2
    37    97    92   am
    38    75    74    1
    39    75    78    1
    40   143   142    2
    41    80    79   ar
    42    25    23    1
    43    14    15    1
    44    90    91    1
    45   142   141    1
    46    43    42    1
    47    92    91    1
    48    92    93    2
    49    15    16    2
    50    79    78    1
    51    79    81   ar
    52    91    94    1
    53   140   141    1
    54   141   144    1
    55    94    96    1
    56    94    95    1
    57    23    24    1
    58    23    20    1
    59   111   109    1
    60    19    20    1
    61    16    18    1
    62    16    17    1
    63    42    41    1
    64    20    21    1
    65   144   145    1
    66   147   149   ar
    67   147   145   ar
    68   149   150   ar
    69   145   146   ar
    70    41    40    1
    71   109   108    1
    72    40    37    1
    73   108   110    1
    74   108   105    1
    75   150   148   ar
    76   146   148   ar
    77    36    37    1
    78    36    28   am
    79    37    38    1
    80    21    22    2
    81   123   121   ar
    82    35    33   ar
    83    35    34   ar
    84   104   105    1
    85   105   106    1
    86    33    31   ar
    87    27    28    1
    88    27    26    1
    89    27    30    1
    90    28    29    2
    91   106   107    2
    92    34    32   ar
    93    31    32   ar
    94    31    30    1
    95   161   160    2
    96   165   163   am
    97   121   120    1
    98   121   122   ar
    99    38    39    2
   100    38    44   am
   101   134   135    2
   102   134   133    1
   103   120   117    1
   104   163   164    2
   105   163   162    1
   106    62    60    1
   107    44    45    1
   108   136   133    1
   109   136   137    1
   110   160   159    1
   111    52    50   ar
   112    52    54   ar
   113   133   132    1
   114    60    59    1
   115   139   137    1
   116   162   159    1
   117    50    49   ar
   118   138   137    1
   119    54    53   ar
   120   159   158    1
   121   179   178    1
   122   117   116    1
   123   117   118    1
   124    45    48    1
   125    45    46    1
   126    55    56    1
   127   180   178    1
   128   116   114   am
   129    49    48    1
   130    49    51   ar
   131    59    56    1
   132    59    61    1
   133   178   175    1
   134   118   119    2
   135    56    57    1
   136   112   113    1
   137    46    47    2
   138    53    51   ar
   139   114   113    1
   140   114   115    2
   141   175   174    1
   142   175   176    1
   143    57    58    2
   144    57    63   am
   145   130   129    1
   146   174   168   am
   147   176   177    2
   148    63    64    1
   149   128   129    1
   150   128   125    1
   151    72    70   ar
   152    72    73   ar
   153   173   171    1
   154   129   131    1
   155    70    68   ar
   156   170   171    1
   157   170   167    1
   158   126   127    2
   159   126   125    1
   160    73    71   ar
   161   166   167    1
   162   168   167    1
   163   168   169    2
   164   171   172    1
   165   124   125    1
   166   187   186    1
   167    64    67    1
   168    64    65    1
   169    68    67    1
   170    68    69   ar
   171    71    69   ar
   172    65    66    2
   173   185   186    1
   174   185   182    1
   175   186   188    1
   176   183   182    1
   177   183   184    2
   178   182   181    1
