@<TRIPOS>MOLECULE
tmp/6bdrA00.pdb
 168 167 0 0 0
SMALL
GASTEIGER

@<TRIPOS>ATOM
      1  N        117.3860    3.4170    8.8010 N.3    18  PRO18      -0.2102
      2  CA       116.5690    3.1440    9.9870 C.3    18  PRO18       0.1504
      3  C        115.7940    1.8520    9.8240 C.2    18  PRO18       0.2576
      4  O        115.4410    1.4480    8.7190 O.2    18  PRO18      -0.2718
      5  CB       115.6370    4.3560   10.0740 C.3    18  PRO18       0.0282
      6  CG       115.8000    5.0810    8.8120 C.3    18  PRO18       0.0208
      7  CD       117.1070    4.7500    8.2310 C.3    18  PRO18       0.0893
      8  N        115.5780    1.1960   10.9530 N.am   19  ARG19      -0.1966
      9  CA       114.8430   -0.0660   11.0690 C.3    19  ARG19       0.1729
     10  C        115.6470   -1.2510   10.5480 C.2    19  ARG19       0.2617
     11  O        115.0690   -2.2650   10.1320 O.2    19  ARG19      -0.2715
     12  CB       113.4760   -0.0010   10.3760 C.3    19  ARG19       0.0348
     13  CG       112.6430    1.2130   10.7610 C.3    19  ARG19       0.0492
     14  CD       112.5110    1.4380   12.2880 C.3    19  ARG19       0.2205
     15  NE       111.8690    0.3280   12.9960 N.pl3  19  ARG19      -0.0865
     16  CZ       111.8050    0.1980   14.3200 C.cat  19  ARG19       0.5346
     17  NH1      112.3920    1.0660   15.1230 N.pl3  19  ARG19       0.1354
     18  NH2      111.1720   -0.8400   14.8490 N.pl3  19  ARG19       0.1354
     19  N        116.9800   -1.1420   10.6000 N.am   20  THR20      -0.1937
     20  CA       117.8800   -2.2390   10.2680 C.3    20  THR20       0.2028
     21  C        118.7490   -2.6570   11.4490 C.2    20  THR20       0.2643
     22  O        119.8070   -3.2720   11.2520 O.2    20  THR20      -0.2714
     23  CB       118.7790   -1.8940    9.0760 C.3    20  THR20       0.1808
     24  OG1      119.6400   -0.7920    9.3870 O.3    20  THR20      -0.2208
     25  CG2      117.9660   -1.5770    7.8490 C.3    20  THR20       0.0379
     26  N        118.3320   -2.3600   12.6760 N.am   21  GLY21      -0.1939
     27  CA       119.1380   -2.6800   13.8390 C.3    21  GLY21       0.2014
     28  C        120.0750   -1.5860   14.2940 C.2    21  GLY21       0.2640
     29  O        121.0480   -1.8870   15.0050 O.2    21  GLY21      -0.2714
     30  N        119.7860   -0.3200   13.9530 N.am   22  THR22      -0.1936
     31  CA       120.7110    0.7730   14.2650 C.3    22  THR22       0.2028
     32  C        120.7760    1.0480   15.7600 C.2    22  THR22       0.2642
     33  O        121.8380    1.4070   16.2760 O.2    22  THR22      -0.2714
     34  CB       120.3300    2.0780   13.5410 C.3    22  THR22       0.1808
     35  OG1      119.0540    2.5460   13.9770 O.3    22  THR22      -0.2208
     36  CG2      120.2980    1.9190   12.0380 C.3    22  THR22       0.0379
     37  N        119.6560    0.9330   16.4750 N.am   23  LYS23      -0.1963
     38  CA       119.6980    1.2530   17.9030 C.3    23  LYS23       0.1728
     39  C        120.4420    0.1750   18.6660 C.2    23  LYS23       0.2616
     40  O        121.1780    0.4740   19.6040 O.2    23  LYS23      -0.2715
     41  CB       118.2910    1.4290   18.4800 C.3    23  LYS23       0.0311
     42  CG       118.2410    1.8690   19.9590 C.3    23  LYS23       0.0038
     43  CD       119.0240    3.1460   20.1980 C.3    23  LYS23       0.0206
     44  CE       118.6580    3.8300   21.5220 C.3    23  LYS23       0.1093
     45  NZ       119.1550    3.1590   22.7450 N.3    23  LYS23      -0.1314
     46  N        120.2460   -1.0910   18.2920 N.am   24  SER24      -0.1950
     47  CA       121.0050   -2.1520   18.9360 C.3    24  SER24       0.1924
     48  C        122.4870   -1.9700   18.6620 C.2    24  SER24       0.2314
     49  O        123.3190   -2.1660   19.5520 O.2    24  SER24      -0.2863
     50  CB       120.5370   -3.5220   18.4520 C.3    24  SER24       0.2116
     51  OG       119.2440   -3.7980   18.9500 O.3    24  SER24      -0.2180
     52  N        122.7870    8.7550   16.8060 N.3    39  HIS39      -0.1241
     53  CA       121.5840    8.0210   16.4370 C.3    39  HIS39       0.1621
     54  C        120.4600    9.0440   16.4440 C.2    39  HIS39       0.2264
     55  O        120.5710   10.0680   17.1030 O.2    39  HIS39      -0.2867
     56  CB       121.2940    6.8990   17.4430 C.3    39  HIS39       0.0745
     57  CG       120.2230    5.9520   17.0130 C.ar   39  HIS39       0.0817
     58  ND1      118.8930    6.1590   17.2920 N.ar   39  HIS39      -0.2268
     59  CD2      120.2930    4.7730   16.3580 C.ar   39  HIS39       0.1154
     60  CE1      118.1820    5.1570   16.8080 C.ar   39  HIS39       0.1986
     61  NE2      119.0050    4.3050   16.2310 N.ar   39  HIS39      -0.2212
     62  N        118.6220   -5.9590    6.0160 N.3   117  ARG117     -0.1245
     63  CA       117.6530   -6.9930    6.3440 C.3   117  ARG117      0.1563
     64  C        116.7150   -7.1870    5.1570 C.2   117  ARG117      0.2260
     65  O        116.7590   -6.4460    4.1710 O.2   117  ARG117     -0.2867
     66  CB       116.8570   -6.6110    7.6010 C.3   117  ARG117      0.0307
     67  CG       115.8140   -5.5330    7.3310 C.3   117  ARG117      0.0489
     68  CD       115.1640   -5.0130    8.5860 C.3   117  ARG117      0.2205
     69  NE       114.2860   -5.9930    9.2380 N.pl3 117  ARG117     -0.0865
     70  CZ       113.4910   -5.7110   10.2590 C.cat 117  ARG117      0.5346
     71  NH1      113.4310   -4.4730   10.7420 N.pl3 117  ARG117      0.1354
     72  NH2      112.7550   -6.6770   10.8010 N.pl3 117  ARG117      0.1354
     73  N        110.3580   -6.9290    5.4620 N.3   121  ASP121     -0.1239
     74  CA       110.3950   -6.7160    6.9040 C.3   121  ASP121      0.1674
     75  C        110.7850   -5.2880    7.2140 C.2   121  ASP121      0.2266
     76  O        110.2500   -4.6810    8.1460 O.2   121  ASP121     -0.2867
     77  CB       111.3920   -7.6520    7.5990 C.3   121  ASP121      0.1410
     78  CG       110.9830   -9.1160    7.5880 C.2   121  ASP121      0.3668
     79  OD1      109.7910   -9.4470    7.3670 O.co2 121  ASP121     -0.2456
     80  OD2      111.8930   -9.9450    7.8570 O.co2 121  ASP121     -0.2456
     81  N        107.7770   -2.9280    6.4480 N.3   124  HIS124     -0.1226
     82  CA       106.7570   -3.0980    7.4710 C.3   124  HIS124      0.1752
     83  C        107.1440   -2.3620    8.7410 C.2   124  HIS124      0.2596
     84  O        106.3250   -1.6580    9.3370 O.2   124  HIS124     -0.2718
     85  CB       106.5600   -4.5930    7.7290 C.3   124  HIS124      0.0759
     86  CG       105.5460   -4.9130    8.7760 C.ar  124  HIS124      0.0818
     87  ND1      105.8780   -5.3350   10.0480 N.ar  124  HIS124     -0.2268
     88  CD2      104.1930   -4.9240    8.7190 C.ar  124  HIS124      0.1154
     89  CE1      104.7680   -5.5710   10.7290 C.ar  124  HIS124      0.1986
     90  NE2      103.7370   -5.3200    9.9490 N.ar  124  HIS124     -0.2212
     91  N        108.4020   -2.5140    9.1700 N.am  125  SER125     -0.1952
     92  CA       108.8850   -1.8500   10.3760 C.3   125  SER125      0.1924
     93  C        108.8700   -0.3360   10.2000 C.2   125  SER125      0.2314
     94  O        108.4480    0.4150   11.0910 O.2   125  SER125     -0.2863
     95  CB       110.3050   -2.3500   10.6690 C.3   125  SER125      0.2116
     96  OG       110.8220   -1.8970   11.9120 O.3   125  SER125     -0.2180
     97  N        120.7260   -8.5890   10.5430 N.3   205  LEU205     -0.1231
     98  CA       120.1280   -8.7310   11.8660 C.3   205  LEU205      0.1693
     99  C        120.3410  -10.1420   12.3680 C.2   205  LEU205      0.2592
    100  O        120.1040  -11.1010   11.6410 O.2   205  LEU205     -0.2718
    101  CB       118.6280   -8.4440   11.8450 C.3   205  LEU205      0.0284
    102  CG       118.1680   -7.0240   11.6620 C.3   205  LEU205      0.0019
    103  CD1      116.6650   -7.0030   11.5720 C.3   205  LEU205      0.0001
    104  CD2      118.6610   -6.1930   12.8510 C.3   205  LEU205      0.0001
    105  N        120.7770  -10.2580   13.6180 N.am  206  GLY206     -0.1957
    106  CA       121.0720  -11.5350   14.2250 C.3   206  GLY206      0.1869
    107  C        122.5360  -11.9290   14.1970 C.2   206  GLY206      0.2309
    108  O        122.8890  -12.9420   14.8070 O.2   206  GLY206     -0.2863
    109  N        124.3620   -9.5060   22.8830 N.3   226  TYR226     -0.1228
    110  CA       124.2740   -8.4710   21.8660 C.3   226  TYR226      0.1721
    111  C        122.8990   -7.8130   21.9670 C.2   226  TYR226      0.2437
    112  O        121.8880   -8.5200   22.1120 O.2   226  TYR226     -0.2733
    113  CB       124.5030   -9.0370   20.4660 C.3   226  TYR226      0.0547
    114  CG       124.5600   -7.9490   19.4140 C.ar  226  TYR226     -0.0200
    115  CD1      125.7550   -7.3330   19.0760 C.ar  226  TYR226     -0.0009
    116  CD2      123.4100   -7.5100   18.7960 C.ar  226  TYR226     -0.0009
    117  CE1      125.8020   -6.3250   18.1150 C.ar  226  TYR226      0.0417
    118  CE2      123.4410   -6.5080   17.8510 C.ar  226  TYR226      0.0417
    119  CZ       124.6360   -5.9030   17.5170 C.ar  226  TYR226      0.1957
    120  OH       124.6400   -4.9050   16.5660 O.3   226  TYR226     -0.2866
    121  N        122.8250   -6.5020   21.9360 N.am  227  PRO227     -0.2729
    122  CA       121.5280   -5.8740   22.1290 C.3   227  PRO227      0.1401
    123  C        120.4310   -6.2550   21.1380 C.2   227  PRO227      0.2269
    124  O        120.6950   -6.5270   20.0550 O.2   227  PRO227     -0.2865
    125  CB       121.8400   -4.3910   22.0520 C.3   227  PRO227      0.0296
    126  CG       123.2550   -4.2770   22.3930 C.3   227  PRO227      0.0237
    127  CD       123.9040   -5.5150   21.9050 C.3   227  PRO227      0.0939
    128  N        116.9020   -4.3840   20.7920 N.3   228  VAL228     -0.1231
    129  CA       115.9750   -3.3710   21.2240 C.3   228  VAL228      0.1692
    130  C        115.3100   -2.6540   20.0490 C.2   228  VAL228      0.2592
    131  O        115.7080   -2.8270   18.9630 O.2   228  VAL228     -0.2718
    132  CB       116.7090   -2.2670   22.0150 C.3   228  VAL228      0.0266
    133  CG1      117.3120   -2.8060   23.2800 C.3   228  VAL228      0.0020
    134  CG2      117.7920   -1.6290   21.1900 C.3   228  VAL228      0.0020
    135  N        114.2550   -1.8960   20.3300 N.am  229  ASN229     -0.1960
    136  CA       113.6310   -1.0430   19.3190 C.3   229  ASN229      0.1819
    137  C        112.7950   -1.8150   18.2960 C.2   229  ASN229      0.2622
    138  O        112.6620   -1.3830   17.1440 O.2   229  ASN229     -0.2715
    139  CB       114.6950   -0.1870   18.6050 C.3   229  ASN229      0.1195
    140  CG       114.1330    1.1250   18.0680 C.2   229  ASN229      0.2630
    141  OD1      113.0190    1.5230   18.4010 O.2   229  ASN229     -0.2716
    142  ND2      114.8910    1.7860   17.2190 N.am  229  ASN229     -0.0877
    143  N        112.1600   -2.9120   18.7130 N.am  230  SER230     -0.1936
    144  CA       111.2020   -3.5710   17.8400 C.3   230  SER230      0.2055
    145  C        110.0040   -2.6620   17.6290 C.2   230  SER230      0.2643
    146  O        109.6970   -1.8240   18.4570 O.2   230  SER230     -0.2714
    147  CB       110.7200   -4.8920   18.4420 C.3   230  SER230      0.2130
    148  OG       109.8980   -4.6750   19.5840 O.3   230  SER230     -0.2179
    149  N        109.2980   -2.8430   16.5140 N.am  231  HIS231     -0.1959
    150  CA       108.1510   -1.9780   16.3210 C.3   231  HIS231      0.1787
    151  C        107.0810   -2.2330   17.3790 C.2   231  HIS231      0.2620
    152  O        106.3700   -1.3060   17.7700 O.2   231  HIS231     -0.2715
    153  CB       107.5920   -2.1070   14.8980 C.3   231  HIS231      0.0785
    154  CG       106.9430   -3.4220   14.5830 C.ar  231  HIS231      0.0821
    155  ND1      105.6710   -3.7530   15.0010 N.ar  231  HIS231     -0.2267
    156  CD2      107.3760   -4.4650   13.8340 C.ar  231  HIS231      0.1154
    157  CE1      105.3620   -4.9560   14.5500 C.ar  231  HIS231      0.1986
    158  NE2      106.3860   -5.4150   13.8490 N.ar  231  HIS231     -0.2212
    159  N        106.9800   -3.4580   17.8800 N.am  232  HIS232     -0.1973
    160  CA       106.0490   -3.7230   18.9720 C.3   232  HIS232      0.1656
    161  C        106.3900   -2.8870   20.1920 C.2   232  HIS232      0.2291
    162  O        105.4980   -2.3610   20.8690 O.2   232  HIS232     -0.2864
    163  CB       106.0530   -5.2110   19.3310 C.3   232  HIS232      0.0771
    164  CG       105.4770   -6.0830   18.2690 C.ar  232  HIS232      0.0820
    165  ND1      104.1560   -6.0100   17.8840 N.ar  232  HIS232     -0.2267
    166  CD2      106.0300   -7.0770   17.5390 C.ar  232  HIS232      0.1154
    167  CE1      103.9260   -6.9080   16.9440 C.ar  232  HIS232      0.1986
    168  NE2      105.0450   -7.5720   16.7210 N.ar  232  HIS232     -0.2212
@<TRIPOS>BOND
     1    65    64    2
     2    64    63    1
     3    73    74    1
     4    62    63    1
     5    63    66    1
     6    81    82    1
     7    74    75    1
     8    74    77    1
     9    75    76    2
    10    67    66    1
    11    67    68    1
    12    79    78   ar
    13    82    85    1
    14    82    83    1
    15    78    77    1
    16    78    80   ar
    17    85    86    1
    18    25    23    1
    19     7     1    1
    20     7     6    1
    21    68    69    1
    22     4     3    2
    23    88    86   ar
    24    88    90   ar
    25    83    91   am
    26    83    84    2
    27    86    87   ar
    28     1     2    1
    29     6     5    1
    30    23    24    1
    31    23    20    1
    32    91    92    1
    33    69    70    2
    34     3     2    1
    35     3     8   am
    36    90    89   ar
    37     2     5    1
    38    87    89   ar
    39    11    10    2
    40    93    92    1
    41    93    94    2
    42    70    71    1
    43    70    72    1
    44    20    19    1
    45    20    21    1
    46    92    95    1
    47    12    13    1
    48    12     9    1
    49    97    98    1
    50    10    19   am
    51    10     9    1
    52    95    96    1
    53    13    14    1
    54     8     9    1
    55    22    21    2
    56    21    26   am
    57   103   102    1
    58   100    99    2
    59   102   101    1
    60   102   104    1
    61   101    98    1
    62    98    99    1
    63    36    34    1
    64    14    15    1
    65    99   105   am
    66    26    27    1
    67    15    16    2
    68    34    35    1
    69    34    31    1
    70   105   106    1
    71   156   158   ar
    72   156   154   ar
    73    27    28    1
    74   158   157   ar
    75    30    31    1
    76    30    28   am
    77   107   106    1
    78   107   108    2
    79    31    32    1
    80    28    29    2
    81    16    18    1
    82    16    17    1
    83   157   155   ar
    84   154   153    1
    85   154   155   ar
    86   153   150    1
    87    32    33    2
    88    32    37   am
    89    61    59   ar
    90    61    60   ar
    91   150   149    1
    92   150   151    1
    93    59    57   ar
    94    53    54    1
    95    53    52    1
    96    53    56    1
    97    54    55    2
    98    37    38    1
    99   149   145   am
   100   120   119    1
   101   168   167   ar
   102   168   166   ar
   103    60    58   ar
   104   167   165   ar
   105    57    58   ar
   106    57    56    1
   107   138   137    2
   108   142   140   am
   109   151   152    2
   110   151   159   am
   111   119   118   ar
   112   119   117   ar
   113   166   164   ar
   114   145   144    1
   115   145   146    2
   116   144   147    1
   117   144   143    1
   118   118   116   ar
   119   159   160    1
   120   165   164   ar
   121    38    41    1
   122    38    39    1
   123   140   141    2
   124   140   139    1
   125   117   115   ar
   126   164   163    1
   127    46    39   am
   128    46    47    1
   129   137   143   am
   130   137   136    1
   131   147   148    1
   132    50    47    1
   133    50    51    1
   134    41    42    1
   135   139   136    1
   136    48    47    1
   137    48    49    2
   138    39    40    2
   139   116   114   ar
   140   131   130    2
   141   160   163    1
   142   160   161    1
   143   115   114   ar
   144   136   135    1
   145   114   113    1
   146    42    43    1
   147   130   135   am
   148   130   129    1
   149   124   123    2
   150   161   162    2
   151    43    44    1
   152   113   110    1
   153   128   129    1
   154   123   122    1
   155   134   132    1
   156   129   132    1
   157    44    45    1
   158   110   111    1
   159   110   109    1
   160   127   121    1
   161   127   126    1
   162   121   111   am
   163   121   122    1
   164   111   112    2
   165   132   133    1
   166   125   122    1
   167   125   126    1
