@<TRIPOS>MOLECULE
tmp/6bdrA01.pdb
 204 196 0 0 0
SMALL
GASTEIGER

@<TRIPOS>ATOM
      1  N        117.3860    3.4170    8.8010 N.3    18  PRO18      -0.2102
      2  CA       116.5690    3.1440    9.9870 C.3    18  PRO18       0.1504
      3  C        115.7940    1.8520    9.8240 C.2    18  PRO18       0.2575
      4  O        115.4410    1.4480    8.7190 O.2    18  PRO18      -0.2718
      5  CB       115.6370    4.3560   10.0740 C.3    18  PRO18       0.0282
      6  CG       115.8000    5.0810    8.8120 C.3    18  PRO18       0.0208
      7  CD       117.1070    4.7500    8.2310 C.3    18  PRO18       0.0893
      8  N        115.5780    1.1960   10.9530 N.am   19  ARG19      -0.1980
      9  CA       114.8430   -0.0660   11.0690 C.3    19  ARG19       0.1597
     10  C        115.6470   -1.2510   10.5480 C.2    19  ARG19       0.2287
     11  O        115.0690   -2.2650   10.1320 O.2    19  ARG19      -0.2864
     12  CB       113.4760   -0.0010   10.3760 C.3    19  ARG19       0.0334
     13  CG       112.6430    1.2130   10.7610 C.3    19  ARG19       0.0492
     14  CD       112.5110    1.4380   12.2880 C.3    19  ARG19       0.2205
     15  NE       111.8690    0.3280   12.9960 N.pl3  19  ARG19      -0.0865
     16  CZ       111.8050    0.1980   14.3200 C.cat  19  ARG19       0.5346
     17  NH1      112.3920    1.0660   15.1230 N.pl3  19  ARG19       0.1354
     18  NH2      111.1720   -0.8400   14.8490 N.pl3  19  ARG19       0.1354
     19  N        119.7860   -0.3200   13.9530 N.3    22  THR22      -0.1218
     20  CA       120.7110    0.7730   14.2650 C.3    22  THR22       0.1862
     21  C        120.7760    1.0480   15.7600 C.2    22  THR22       0.2287
     22  O        121.8380    1.4070   16.2760 O.2    22  THR22      -0.2866
     23  CB       120.3300    2.0780   13.5410 C.3    22  THR22       0.1770
     24  OG1      119.0540    2.5460   13.9770 O.3    22  THR22      -0.2211
     25  CG2      120.2980    1.9190   12.0380 C.3    22  THR22       0.0375
     26  N        122.7870    8.7550   16.8060 N.3    39  HIS39      -0.1226
     27  CA       121.5840    8.0210   16.4370 C.3    39  HIS39       0.1752
     28  C        120.4600    9.0440   16.4440 C.2    39  HIS39       0.2596
     29  O        120.5710   10.0680   17.1030 O.2    39  HIS39      -0.2718
     30  CB       121.2940    6.8990   17.4430 C.3    39  HIS39       0.0759
     31  CG       120.2230    5.9520   17.0130 C.ar   39  HIS39       0.0818
     32  ND1      118.8930    6.1590   17.2920 N.ar   39  HIS39      -0.2268
     33  CD2      120.2930    4.7730   16.3580 C.ar   39  HIS39       0.1154
     34  CE1      118.1820    5.1570   16.8080 C.ar   39  HIS39       0.1986
     35  NE2      119.0050    4.3050   16.2310 N.ar   39  HIS39      -0.2212
     36  N        119.3600    8.7580   15.7510 N.am   40  MET40      -0.1965
     37  CA       118.2400    9.6910   15.8390 C.3    40  MET40       0.1736
     38  C        117.7610    9.8350   17.2790 C.2    40  MET40       0.2616
     39  O        117.3110   10.9130   17.6830 O.2    40  MET40      -0.2715
     40  CB       117.1120    9.2450   14.9130 C.3    40  MET40       0.0427
     41  CG       115.9570   10.2520   14.7990 C.3    40  MET40       0.0599
     42  SD       116.4360   11.8210   14.0720 S.3    40  MET40      -0.1393
     43  CE       116.2160   11.4750   12.3160 C.3    40  MET40       0.0692
     44  N        117.8810    8.7840   18.0880 N.am   41  PHE41      -0.1974
     45  CA       117.4640    8.9010   19.4840 C.3    41  PHE41       0.1639
     46  C        118.3190    9.9030   20.2610 C.2    41  PHE41       0.2290
     47  O        117.8700   10.4370   21.2700 O.2    41  PHE41      -0.2864
     48  CB       117.5170    7.5560   20.1920 C.3    41  PHE41       0.0560
     49  CG       116.3200    6.6620   19.9310 C.ar   41  PHE41      -0.0200
     50  CD1      115.6720    6.6680   18.7040 C.ar   41  PHE41      -0.0042
     51  CD2      115.8750    5.8000   20.9060 C.ar   41  PHE41      -0.0042
     52  CE1      114.5920    5.8260   18.4710 C.ar   41  PHE41      -0.0003
     53  CE2      114.7760    4.9650   20.6840 C.ar   41  PHE41      -0.0003
     54  CZ       114.1420    4.9800   19.4720 C.ar   41  PHE41      -0.0000
     55  N        116.4030   13.0420   19.5230 N.3    44  ILE44      -0.1245
     56  CA       115.0850   13.0920   20.1660 C.3    44  ILE44       0.1561
     57  C        115.2180   13.3190   21.6620 C.2    44  ILE44       0.2260
     58  O        114.4950   14.1340   22.2530 O.2    44  ILE44      -0.2867
     59  CB       114.2960   11.8020   19.8790 C.3    44  ILE44       0.0252
     60  CG1      113.9480   11.7310   18.4020 C.3    44  ILE44       0.0019
     61  CG2      113.0260   11.7200   20.7590 C.3    44  ILE44       0.0019
     62  CD1      113.4310   10.3750   17.9600 C.3    44  ILE44       0.0001
     63  N        122.2100    5.5680   11.8840 N.3    93  ASP93      -0.1225
     64  CA       120.8350    6.0210   11.6850 C.3    93  ASP93       0.1805
     65  C        120.7480    7.3050   10.8770 C.2    93  ASP93       0.2597
     66  O        121.7670    7.9580   10.6110 O.2    93  ASP93      -0.2718
     67  CB       120.1960    6.2410   13.0560 C.3    93  ASP93       0.1424
     68  CG       118.6970    6.1580   13.0500 C.2    93  ASP93       0.3668
     69  OD1      118.1040    5.8040   12.0030 O.co2  93  ASP93      -0.2456
     70  OD2      118.1110    6.4500   14.1360 O.co2  93  ASP93      -0.2456
     71  N        119.5260    7.6810   10.4970 N.am   94  LEU94      -0.1979
     72  CA       119.2610    9.0440   10.0810 C.3    94  LEU94       0.1596
     73  C        119.5460    9.9670   11.2560 C.2    94  LEU94       0.2287
     74  O        119.3320    9.5980   12.4150 O.2    94  LEU94      -0.2864
     75  CB       117.8030    9.2290    9.6530 C.3    94  LEU94       0.0297
     76  CG       117.2910    8.4920    8.4190 C.3    94  LEU94       0.0022
     77  CD1      115.7980    8.8040    8.1920 C.3    94  LEU94       0.0001
     78  CD2      118.1020    8.8500    7.1870 C.3    94  LEU94       0.0001
     79  N        106.6650    2.6900   12.4300 N.3   129  VAL129     -0.1231
     80  CA       107.4030    3.5230   13.3730 C.3   129  VAL129      0.1692
     81  C        107.7680    4.8910   12.8030 C.2   129  VAL129      0.2592
     82  O        107.5190    5.9280   13.4320 O.2   129  VAL129     -0.2718
     83  CB       108.6670    2.7880   13.8240 C.3   129  VAL129      0.0266
     84  CG1      109.5250    3.6900   14.7210 C.3   129  VAL129      0.0020
     85  CG2      108.3050    1.5010   14.5320 C.3   129  VAL129      0.0020
     86  N        108.4670    4.8720   11.6830 N.am  130  VAL130     -0.1966
     87  CA       109.0260    6.0800   11.1040 C.3   130  VAL130      0.1727
     88  C        108.2440    6.7900   10.0190 C.2   130  VAL130      0.2616
     89  O        108.1630    8.0120   10.0130 O.2   130  VAL130     -0.2715
     90  CB       110.4110    5.7580   10.5150 C.3   130  VAL130      0.0290
     91  CG1      111.0300    6.9820    9.8620 C.3   130  VAL130      0.0023
     92  CG2      111.3190    5.1750   11.5780 C.3   130  VAL130      0.0023
     93  N        107.6810    6.0240    9.1010 N.am  131  LEU131     -0.1964
     94  CA       106.9840    6.6010    7.9670 C.3   131  LEU131      0.1713
     95  C        105.6480    5.9390    7.6890 C.2   131  LEU131      0.2458
     96  O        105.4930    5.2600    6.6950 O.2   131  LEU131     -0.2730
     97  CB       107.8560    6.4310    6.7230 C.3   131  LEU131      0.0310
     98  CG       108.6120    7.5430    6.0090 C.3   131  LEU131      0.0022
     99  CD1      108.6960    7.1880    4.5330 C.3   131  LEU131      0.0001
    100  CD2      107.9840    8.9080    6.2110 C.3   131  LEU131      0.0001
    101  N        104.6690    6.1520    8.5530 N.am  132  PRO132     -0.2727
    102  CA       103.3540    5.5640    8.3200 C.3   132  PRO132      0.1402
    103  C        102.6780    6.2250    7.1260 C.2   132  PRO132      0.2269
    104  O        102.9200    7.3870    6.8270 O.2   132  PRO132     -0.2865
    105  CB       102.5880    5.8900    9.6020 C.3   132  PRO132      0.0296
    106  CG       103.2600    7.0960   10.1350 C.3   132  PRO132      0.0237
    107  CD       104.7080    6.9410    9.7920 C.3   132  PRO132      0.0939
    108  N         99.0470    6.7320   12.2080 N.3   139  LYS139     -0.1245
    109  CA        99.8430    7.9460   12.0740 C.3   139  LYS139      0.1561
    110  C         99.4250    9.0160   13.0810 C.2   139  LYS139      0.2260
    111  O        100.2690    9.7510   13.6050 O.2   139  LYS139     -0.2867
    112  CB        99.7180    8.4810   10.6530 C.3   139  LYS139      0.0271
    113  CG       100.4630    9.7580   10.4340 C.3   139  LYS139      0.0035
    114  CD       100.4390   10.1170    8.9440 C.3   139  LYS139      0.0206
    115  CE       101.3590   11.2710    8.6350 C.3   139  LYS139      0.1093
    116  NZ       100.6970   12.5750    8.9220 N.3   139  LYS139     -0.1314
    117  N        100.9610    8.1340   16.4700 N.3   142  ILE142     -0.1231
    118  CA       102.3810    8.4740   16.5270 C.3   142  ILE142      0.1692
    119  C        102.5580    9.9750   16.7040 C.2   142  ILE142      0.2591
    120  O        103.4020   10.4260   17.4860 O.2   142  ILE142     -0.2718
    121  CB       103.1170    7.9800   15.2720 C.3   142  ILE142      0.0266
    122  CG1      103.0550    6.4620   15.1550 C.3   142  ILE142      0.0019
    123  CG2      104.5550    8.3950   15.3530 C.3   142  ILE142      0.0020
    124  CD1      103.6560    5.9500   13.8330 C.3   142  ILE142      0.0001
    125  N        101.7850   10.7730   15.9670 N.am  143  GLU143     -0.1979
    126  CA       101.9150   12.2250   16.0660 C.3   143  GLU143      0.1602
    127  C        101.5540   12.7230   17.4560 C.2   143  GLU143      0.2287
    128  O        102.1660   13.6750   17.9560 O.2   143  GLU143     -0.2864
    129  CB       101.0440   12.8990   15.0080 C.3   143  GLU143      0.0415
    130  CG       101.6620   12.7790   13.6260 C.3   143  GLU143      0.1163
    131  CD       100.7790   13.2660   12.4940 C.2   143  GLU143      0.3649
    132  OE1       99.6010   13.6040   12.7370 O.co2 143  GLU143     -0.2457
    133  OE2      101.2770   13.2920   11.3430 O.co2 143  GLU143     -0.2457
    134  N        104.5410   11.9210   19.5030 N.3   146  ASP146     -0.1239
    135  CA       105.6140   12.8390   19.1300 C.3   146  ASP146      0.1674
    136  C        105.4890   14.1610   19.8680 C.2   146  ASP146      0.2266
    137  O        106.4920   14.7300   20.3090 O.2   146  ASP146     -0.2867
    138  CB       105.6000   13.1100   17.6320 C.3   146  ASP146      0.1410
    139  CG       106.0270   11.9200   16.8060 C.2   146  ASP146      0.3668
    140  OD1      106.7410   11.0210   17.3110 O.co2 146  ASP146     -0.2456
    141  OD2      105.6390   11.9100   15.6200 O.co2 146  ASP146     -0.2456
    142  N        108.4490   16.9760   19.8050 N.3   151  LEU151     -0.1245
    143  CA       108.8050   16.8840   18.3920 C.3   151  LEU151      0.1561
    144  C        107.7200   17.5290   17.5370 C.2   151  LEU151      0.2260
    145  O        106.5620   17.0940   17.5550 O.2   151  LEU151     -0.2867
    146  CB       109.0070   15.4230   17.9960 C.3   151  LEU151      0.0270
    147  CG       110.0350   14.6630   18.8280 C.3   151  LEU151      0.0019
    148  CD1      109.9850   13.2050   18.4740 C.3   151  LEU151      0.0001
    149  CD2      111.4250   15.2140   18.5970 C.3   151  LEU151      0.0001
    150  N        111.0690   18.6060   13.1920 N.3   155  PHE155     -0.1227
    151  CA       111.5700   17.2440   13.2690 C.3   155  PHE155      0.1736
    152  C        111.0680   16.4050   12.1020 C.2   155  PHE155      0.2595
    153  O        111.8230   15.6080   11.5300 O.2   155  PHE155     -0.2718
    154  CB       111.1780   16.6090   14.5970 C.3   155  PHE155      0.0547
    155  CG       111.7750   15.2790   14.7780 C.ar  155  PHE155     -0.0202
    156  CD1      113.1200   15.1550   15.0150 C.ar  155  PHE155     -0.0042
    157  CD2      111.0150   14.1460   14.6560 C.ar  155  PHE155     -0.0042
    158  CE1      113.6850   13.9190   15.1670 C.ar  155  PHE155     -0.0003
    159  CE2      111.5890   12.9130   14.7940 C.ar  155  PHE155     -0.0003
    160  CZ       112.9160   12.8060   15.0350 C.ar  155  PHE155     -0.0000
    161  N        109.7930   16.5630   11.7490 N.am  156  TYR156     -0.1976
    162  CA       109.2290   15.8300   10.6230 C.3   156  TYR156      0.1639
    163  C        109.9380   16.1980    9.3380 C.2   156  TYR156      0.2290
    164  O        110.2110   15.3320    8.4930 O.2   156  TYR156     -0.2864
    165  CB       107.7350   16.1320   10.5060 C.3   156  TYR156      0.0560
    166  CG       106.9110   15.5870   11.6380 C.ar  156  TYR156     -0.0198
    167  CD1      107.3560   14.5280   12.3960 C.ar  156  TYR156     -0.0009
    168  CD2      105.6850   16.1350   11.9460 C.ar  156  TYR156     -0.0009
    169  CE1      106.5970   14.0220   13.4290 C.ar  156  TYR156      0.0417
    170  CE2      104.9180   15.6350   12.9740 C.ar  156  TYR156      0.0417
    171  CZ       105.3810   14.5780   13.7110 C.ar  156  TYR156      0.1957
    172  OH       104.6150   14.0780   14.7480 O.3   156  TYR156     -0.2866
    173  N        113.3090   14.3840    9.2620 N.3   159  THR159     -0.1203
    174  CA       113.1300   12.9770    8.9190 C.3   159  THR159      0.1994
    175  C        112.9600   12.8060    7.4190 C.2   159  THR159      0.2617
    176  O        113.6500   12.0040    6.7840 O.2   159  THR159     -0.2717
    177  CB       111.9160   12.4220    9.6570 C.3   159  THR159      0.1784
    178  OG1      112.1760   12.4490   11.0620 O.3   159  THR159     -0.2211
    179  CG2      111.6260   10.9800    9.2080 C.3   159  THR159      0.0376
    180  N        112.0570   13.5830    6.8310 N.am  160  GLU160     -0.1979
    181  CA       111.8180   13.4740    5.4000 C.3   160  GLU160      0.1602
    182  C        113.0370   13.8930    4.5970 C.2   160  GLU160      0.2287
    183  O        113.4070   13.2310    3.6240 O.2   160  GLU160     -0.2864
    184  CB       110.6210   14.3260    5.0030 C.3   160  GLU160      0.0415
    185  CG       109.3060   13.7950    5.4980 C.3   160  GLU160      0.1163
    186  CD       108.1430   14.6840    5.0910 C.2   160  GLU160      0.3649
    187  OE1      108.3820   15.7030    4.3960 O.co2 160  GLU160     -0.2457
    188  OE2      106.9980   14.3640    5.4610 O.co2 160  GLU160     -0.2457
    189  N        114.2550   -1.8960   20.3300 N.3   229  ASN229     -0.1240
    190  CA       113.6310   -1.0430   19.3190 C.3   229  ASN229      0.1653
    191  C        112.7950   -1.8150   18.2960 C.2   229  ASN229      0.2266
    192  O        112.6620   -1.3830   17.1440 O.2   229  ASN229     -0.2867
    193  CB       114.6950   -0.1870   18.6050 C.3   229  ASN229      0.1155
    194  CG       114.1330    1.1250   18.0680 C.2   229  ASN229      0.2627
    195  OD1      113.0190    1.5230   18.4010 O.2   229  ASN229     -0.2716
    196  ND2      114.8910    1.7860   17.2190 N.am  229  ASN229     -0.0877
    197  N        108.0580   -0.0100   20.1880 N.3   234  MET234     -0.1245
    198  CA       107.7980    1.3890   19.8740 C.3   234  MET234      0.1570
    199  C        106.3100    1.6870   19.9530 C.2   234  MET234      0.2261
    200  O        105.9090    2.7660   20.3920 O.2   234  MET234     -0.2867
    201  CB       108.3230    1.7430   18.4860 C.3   234  MET234      0.0387
    202  CG       109.8030    1.9080   18.4290 C.3   234  MET234      0.0595
    203  SD       110.3210    3.3080   19.4160 S.3   234  MET234     -0.1393
    204  CE       110.9900    2.4280   20.7650 C.3   234  MET234      0.0692
@<TRIPOS>BOND
     1   183   182    2
     2   187   186   ar
     3    99    98    1
     4   182   181    1
     5   184   181    1
     6   184   185    1
     7   186   188   ar
     8   186   185    1
     9   181   180    1
    10    98   100    1
    11    98    97    1
    12    96    95    2
    13    97    94    1
    14   176   175    2
    15   104   103    2
    16   180   175   am
    17   103   102    1
    18    78    76    1
    19   175   174    1
    20    95    94    1
    21    95   101   am
    22    94    93    1
    23    77    76    1
    24     7     1    1
    25     7     6    1
    26   102   101    1
    27   102   105    1
    28    76    75    1
    29   164   163    2
    30   101   107    1
    31   115   116    1
    32   115   114    1
    33     4     3    2
    34     1     2    1
    35     6     5    1
    36   174   173    1
    37   174   177    1
    38   114   113    1
    39    93    88   am
    40   179   177    1
    41   163   162    1
    42   105   106    1
    43    75    72    1
    44   177   178    1
    45   107   106    1
    46     3     2    1
    47     3     8   am
    48    91    90    1
    49     2     5    1
    50    89    88    2
    51    88    87    1
    52    72    71    1
    53    72    73    1
    54    11    10    2
    55    12    13    1
    56    12     9    1
    57   113   112    1
    58    71    65   am
    59   165   162    1
    60   165   166    1
    61    90    87    1
    62    90    92    1
    63    10     9    1
    64    66    65    2
    65   162   161    1
    66   112   109    1
    67    13    14    1
    68    65    64    1
    69     8     9    1
    70    87    86    1
    71    73    74    2
    72   133   131   ar
    73   153   152    2
    74   166   168   ar
    75   166   167   ar
    76    86    81   am
    77    64    63    1
    78    64    67    1
    79   161   152   am
    80   168   170   ar
    81    69    68   ar
    82    25    23    1
    83   109   108    1
    84   109   110    1
    85   152   151    1
    86    14    15    1
    87    43    42    1
    88   167   169   ar
    89    79    80    1
    90   131   132   ar
    91   131   130    1
    92    81    80    1
    93    81    82    2
    94   170   171   ar
    95    15    16    2
    96    68    67    1
    97    68    70   ar
    98   110   111    2
    99   150   151    1
   100   151   154    1
   101    80    83    1
   102   169   171   ar
   103    23    24    1
   104    23    20    1
   105   130   129    1
   106   171   172    1
   107    83    85    1
   108    83    84    1
   109   124   122    1
   110    19    20    1
   111    42    41    1
   112    20    21    1
   113    16    18    1
   114    16    17    1
   115   154   155    1
   116   157   155   ar
   117   157   159   ar
   118   155   156   ar
   119   159   160   ar
   120    41    40    1
   121    40    37    1
   122   129   126    1
   123   156   158   ar
   124   160   158   ar
   125   122   121    1
   126   121   123    1
   127   121   118    1
   128   141   139   ar
   129    36    37    1
   130    36    28   am
   131    21    22    2
   132    37    38    1
   133   125   126    1
   134   125   119   am
   135   126   127    1
   136    35    33   ar
   137    35    34   ar
   138    33    31   ar
   139    27    28    1
   140    27    26    1
   141    27    30    1
   142    28    29    2
   143   117   118    1
   144   118   119    1
   145   119   120    2
   146   139   140   ar
   147   139   138    1
   148    34    32   ar
   149    31    32   ar
   150    31    30    1
   151   192   191    2
   152   196   194   am
   153    38    39    2
   154    38    44   am
   155   127   128    2
   156   144   145    2
   157   144   143    1
   158   138   135    1
   159    62    60    1
   160   146   143    1
   161   146   147    1
   162   194   195    2
   163   194   193    1
   164    44    45    1
   165   191   190    1
   166   143   142    1
   167    60    59    1
   168   202   201    1
   169   202   203    1
   170    52    50   ar
   171    52    54   ar
   172   148   147    1
   173   201   198    1
   174   149   147    1
   175   193   190    1
   176    50    49   ar
   177   135   134    1
   178   135   136    1
   179   190   189    1
   180   203   204    1
   181    54    53   ar
   182    45    48    1
   183    45    46    1
   184    55    56    1
   185   136   137    2
   186   198   199    1
   187   198   197    1
   188    59    56    1
   189    59    61    1
   190    49    48    1
   191    49    51   ar
   192   199   200    2
   193    56    57    1
   194    46    47    2
   195    53    51   ar
   196    57    58    2
