@<TRIPOS>MOLECULE
tmp/6bdsA01.pdb
 224 212 0 0 0
SMALL
GASTEIGER

@<TRIPOS>ATOM
      1  N        116.9840    3.4300    8.6060 N.3    18  PRO18      -0.2102
      2  CA       116.1390    3.2170    9.7820 C.3    18  PRO18       0.1504
      3  C        115.3670    1.9090    9.6640 C.2    18  PRO18       0.2575
      4  O        115.0180    1.4660    8.5730 O.2    18  PRO18      -0.2718
      5  CB       115.2170    4.4480    9.7830 C.3    18  PRO18       0.0282
      6  CG       115.3310    4.9970    8.4230 C.3    18  PRO18       0.0208
      7  CD       116.6930    4.7140    7.9500 C.3    18  PRO18       0.0893
      8  N        115.1570    1.2810   10.8200 N.am   19  ARG19      -0.1980
      9  CA       114.4060    0.0320   10.9700 C.3    19  ARG19       0.1597
     10  C        115.1810   -1.1800   10.4480 C.2    19  ARG19       0.2287
     11  O        114.5830   -2.2090   10.0900 O.2    19  ARG19      -0.2864
     12  CB       113.0240    0.1110   10.3130 C.3    19  ARG19       0.0334
     13  CG       112.1960    1.3080   10.7440 C.3    19  ARG19       0.0492
     14  CD       112.1140    1.4890   12.2750 C.3    19  ARG19       0.2205
     15  NE       111.4570    0.3760   12.9570 N.pl3  19  ARG19      -0.0865
     16  CZ       111.4050    0.1900   14.2750 C.cat  19  ARG19       0.5346
     17  NH1      111.9850    1.0310   15.1140 N.pl3  19  ARG19       0.1354
     18  NH2      110.7560   -0.8530   14.7730 N.pl3  19  ARG19       0.1354
     19  N        119.3060   -0.2750   13.8200 N.3    22  THR22      -0.1218
     20  CA       120.2020    0.8280   14.1650 C.3    22  THR22       0.1862
     21  C        120.2770    1.0560   15.6690 C.2    22  THR22       0.2287
     22  O        121.3370    1.4170   16.1910 O.2    22  THR22      -0.2866
     23  CB       119.7690    2.1290   13.4770 C.3    22  THR22       0.1770
     24  OG1      118.5060    2.5860   13.9870 O.3    22  THR22      -0.2211
     25  CG2      119.6840    1.9630   11.9800 C.3    22  THR22       0.0375
     26  N        122.2910    8.7230   16.7000 N.3    39  HIS39      -0.1226
     27  CA       121.0800    7.9970   16.3340 C.3    39  HIS39       0.1752
     28  C        119.9580    9.0260   16.3420 C.2    39  HIS39       0.2596
     29  O        120.0920   10.0810   16.9650 O.2    39  HIS39      -0.2718
     30  CB       120.8150    6.8740   17.3310 C.3    39  HIS39       0.0759
     31  CG       119.6950    5.9610   16.9470 C.ar   39  HIS39       0.0818
     32  ND1      118.3850    6.1960   17.3060 N.ar   39  HIS39      -0.2268
     33  CD2      119.7000    4.7840   16.2810 C.ar   39  HIS39       0.1154
     34  CE1      117.6270    5.2130   16.8520 C.ar   39  HIS39       0.1986
     35  NE2      118.3990    4.3490   16.2190 N.ar   39  HIS39      -0.2212
     36  N        118.8330    8.7230   15.6810 N.am   40  MET40      -0.1965
     37  CA       117.7380    9.6870   15.7770 C.3    40  MET40       0.1736
     38  C        117.2940    9.8600   17.2240 C.2    40  MET40       0.2616
     39  O        116.8490   10.9430   17.6000 O.2    40  MET40      -0.2715
     40  CB       116.5660    9.2740   14.8760 C.3    40  MET40       0.0427
     41  CG       115.4170   10.2980   14.8330 C.3    40  MET40       0.0599
     42  SD       115.9280   11.8720   14.1250 S.3    40  MET40      -0.1393
     43  CE       115.8850   11.4950   12.3780 C.3    40  MET40       0.0692
     44  N        117.4210    8.8240   18.0600 N.am   41  PHE41      -0.1974
     45  CA       117.0110    8.9670   19.4490 C.3    41  PHE41       0.1639
     46  C        117.9040    9.9350   20.2080 C.2    41  PHE41       0.2290
     47  O        117.4670   10.5070   21.2070 O.2    41  PHE41      -0.2864
     48  CB       117.0010    7.6210   20.1700 C.3    41  PHE41       0.0560
     49  CG       115.8560    6.7250   19.7780 C.ar   41  PHE41      -0.0200
     50  CD1      115.1430    6.9170   18.5990 C.ar   41  PHE41      -0.0042
     51  CD2      115.5140    5.6680   20.5860 C.ar   41  PHE41      -0.0042
     52  CE1      114.1000    6.0760   18.2630 C.ar   41  PHE41      -0.0003
     53  CE2      114.4710    4.8210   20.2500 C.ar   41  PHE41      -0.0003
     54  CZ       113.7770    5.0180   19.0880 C.ar   41  PHE41      -0.0000
     55  N        116.1250   13.1460   19.5760 N.3    44  ILE44      -0.1231
     56  CA       114.8600   13.2470   20.3050 C.3    44  ILE44       0.1692
     57  C        115.1110   13.5530   21.7720 C.2    44  ILE44       0.2592
     58  O        114.4240   14.3800   22.3800 O.2    44  ILE44      -0.2718
     59  CB       114.0420   11.9490   20.1510 C.3    44  ILE44       0.0266
     60  CG1      113.5880   11.7700   18.7010 C.3    44  ILE44       0.0019
     61  CG2      112.8390   11.9630   21.0970 C.3    44  ILE44       0.0020
     62  CD1      112.9950   10.3700   18.4120 C.3    44  ILE44       0.0001
     63  N        116.0560   12.8430   22.3830 N.am   45  PHE45      -0.1976
     64  CA       116.2050   12.9140   23.8310 C.3    45  PHE45       0.1639
     65  C        117.2310   13.9290   24.3090 C.2    45  PHE45       0.2290
     66  O        117.0580   14.4930   25.3920 O.2    45  PHE45      -0.2864
     67  CB       116.5480   11.5280   24.3800 C.3    45  PHE45       0.0560
     68  CG       115.4230   10.5490   24.2220 C.ar   45  PHE45      -0.0200
     69  CD1      114.2490   10.7010   24.9490 C.ar   45  PHE45      -0.0042
     70  CD2      115.5070    9.5090   23.3160 C.ar   45  PHE45      -0.0042
     71  CE1      113.1970    9.8100   24.7900 C.ar   45  PHE45      -0.0003
     72  CE2      114.4500    8.6180   23.1570 C.ar   45  PHE45      -0.0003
     73  CZ       113.3040    8.7720   23.8860 C.ar   45  PHE45      -0.0000
     74  N        121.7280    5.6020   11.7540 N.3    93  ASP93      -0.1225
     75  CA       120.3530    6.0600   11.5990 C.3    93  ASP93       0.1805
     76  C        120.2670    7.3530   10.7990 C.2    93  ASP93       0.2597
     77  O        121.2850    7.9830   10.5070 O.2    93  ASP93      -0.2718
     78  CB       119.7410    6.2610   12.9840 C.3    93  ASP93       0.1424
     79  CG       118.2200    6.2660   12.9920 C.2    93  ASP93       0.3668
     80  OD1      117.5730    5.9620   11.9620 O.co2  93  ASP93      -0.2456
     81  OD2      117.6790    6.5850   14.0790 O.co2  93  ASP93      -0.2456
     82  N        119.0520    7.7210   10.4110 N.am   94  LEU94      -0.1979
     83  CA       118.7880    9.0830    9.9810 C.3    94  LEU94       0.1596
     84  C        119.1130   10.0070   11.1450 C.2    94  LEU94       0.2287
     85  O        118.9000    9.6480   12.3030 O.2    94  LEU94      -0.2864
     86  CB       117.3170    9.2660    9.5940 C.3    94  LEU94       0.0297
     87  CG       116.7590    8.4470    8.4280 C.3    94  LEU94       0.0022
     88  CD1      115.2690    8.7540    8.2340 C.3    94  LEU94       0.0001
     89  CD2      117.5180    8.7110    7.1630 C.3    94  LEU94       0.0001
     90  N        106.2110    2.5940   12.4540 N.3   129  VAL129     -0.1231
     91  CA       106.9850    3.4020   13.3960 C.3   129  VAL129      0.1692
     92  C        107.2950    4.7920   12.8450 C.2   129  VAL129      0.2591
     93  O        107.1710    5.7850   13.5620 O.2   129  VAL129     -0.2718
     94  CB       108.2900    2.6780   13.7970 C.3   129  VAL129      0.0266
     95  CG1      109.1540    3.5280   14.7310 C.3   129  VAL129      0.0020
     96  CG2      107.9550    1.3670   14.4570 C.3   129  VAL129      0.0020
     97  N        107.7990    4.8550   11.6360 N.am  130  VAL130     -0.1980
     98  CA       108.3370    6.0960   11.0890 C.3   130  VAL130      0.1595
     99  C        107.4800    6.8210   10.0960 C.2   130  VAL130      0.2287
    100  O        107.2930    8.0070   10.1980 O.2   130  VAL130     -0.2864
    101  CB       109.6760    5.8030   10.3970 C.3   130  VAL130      0.0276
    102  CG1      110.3070    7.0410    9.7940 C.3   130  VAL130      0.0022
    103  CG2      110.6150    5.1030   11.3270 C.3   130  VAL130      0.0022
    104  N        100.5250    8.2550   16.4570 N.3   142  ILE142     -0.1245
    105  CA       101.9120    8.5940   16.4590 C.3   142  ILE142      0.1561
    106  C        102.1440   10.0930   16.6710 C.2   142  ILE142      0.2260
    107  O        102.9500   10.4490   17.4610 O.2   142  ILE142     -0.2867
    108  CB       102.5310    8.0710   15.1220 C.3   142  ILE142      0.0252
    109  CG1      103.0070    6.6610   15.3290 C.3   142  ILE142      0.0019
    110  CG2      103.5980    8.9770   14.6000 C.3   142  ILE142      0.0019
    111  CD1      103.7150    6.1860   14.1000 C.3   142  ILE142      0.0001
    112  N        101.3940   11.1120   20.3230 N.3   145  GLY145     -0.1210
    113  CA       102.4630   10.7680   21.2340 C.3   145  GLY145      0.1956
    114  C        103.7010   11.6090   21.0250 C.2   145  GLY145      0.2611
    115  O        104.3870   11.9410   21.9860 O.2   145  GLY145     -0.2717
    116  N        103.9920   11.9840   19.7750 N.am  146  ASP146     -0.1973
    117  CA       105.2140   12.7270   19.5050 C.3   146  ASP146      0.1709
    118  C        105.1680   14.1110   20.1290 C.2   146  ASP146      0.2293
    119  O        106.2070   14.6500   20.5290 O.2   146  ASP146     -0.2864
    120  CB       105.4280   12.8670   18.0080 C.3   146  ASP146      0.1436
    121  CG       105.9620   11.5990   17.3630 C.2   146  ASP146      0.3671
    122  OD1      106.3620   10.6520   18.0910 O.co2 146  ASP146     -0.2456
    123  OD2      105.9760   11.5650   16.1170 O.co2 146  ASP146     -0.2456
    124  N        106.6350   14.5850   23.4880 N.3   149  LEU149     -0.1245
    125  CA       108.0870   14.6690   23.5180 C.3   149  LEU149      0.1561
    126  C        108.6080   15.9960   23.0000 C.2   149  LEU149      0.2260
    127  O        109.8270   16.1780   22.9170 O.2   149  LEU149     -0.2867
    128  CB       108.6930   13.5330   22.6910 C.3   149  LEU149      0.0270
    129  CG       108.2970   12.1200   23.1190 C.3   149  LEU149      0.0019
    130  CD1      108.7390   11.0770   22.0810 C.3   149  LEU149      0.0001
    131  CD2      108.9100   11.8130   24.4760 C.3   149  LEU149      0.0001
    132  N        108.0820   17.0080   19.8920 N.3   151  LEU151     -0.1245
    133  CA       108.4220   16.8430   18.4870 C.3   151  LEU151      0.1561
    134  C        107.3120   17.4300   17.6360 C.2   151  LEU151      0.2260
    135  O        106.1330   17.1150   17.8370 O.2   151  LEU151     -0.2867
    136  CB       108.6360   15.3740   18.1330 C.3   151  LEU151      0.0270
    137  CG       109.7000   14.6670   18.9650 C.3   151  LEU151      0.0019
    138  CD1      109.6780   13.1750   18.6360 C.3   151  LEU151      0.0001
    139  CD2      111.0720   15.2740   18.7220 C.3   151  LEU151      0.0001
    140  N        110.5890   18.1720   13.1070 N.3   155  PHE155     -0.1227
    141  CA       111.1380   16.8350   13.2790 C.3   155  PHE155      0.1736
    142  C        110.7380   15.9400   12.1140 C.2   155  PHE155      0.2595
    143  O        111.5720   15.2270   11.5400 O.2   155  PHE155     -0.2718
    144  CB       110.6790   16.2610   14.6180 C.3   155  PHE155      0.0547
    145  CG       111.0680   14.8450   14.7920 C.ar  155  PHE155     -0.0202
    146  CD1      112.3560   14.5160   15.1330 C.ar  155  PHE155     -0.0042
    147  CD2      110.1600   13.8450   14.5570 C.ar  155  PHE155     -0.0042
    148  CE1      112.7360   13.1730   15.2440 C.ar  155  PHE155     -0.0003
    149  CE2      110.5330   12.5090   14.6650 C.ar  155  PHE155     -0.0003
    150  CZ       111.8080   12.1840   15.0160 C.ar  155  PHE155     -0.0000
    151  N        109.4640   15.9940   11.7200 N.am  156  TYR156     -0.1976
    152  CA       109.0190   15.2120   10.5800 C.3   156  TYR156      0.1639
    153  C        109.6940   15.6660    9.3030 C.2   156  TYR156      0.2290
    154  O        110.0240   14.8380    8.4400 O.2   156  TYR156     -0.2864
    155  CB       107.5070   15.3150   10.4360 C.3   156  TYR156      0.0560
    156  CG       106.7690   14.8360   11.6330 C.ar  156  TYR156     -0.0198
    157  CD1      107.1140   13.6560   12.2530 C.ar  156  TYR156     -0.0009
    158  CD2      105.7620   15.5770   12.1820 C.ar  156  TYR156     -0.0009
    159  CE1      106.4420   13.2140   13.3650 C.ar  156  TYR156      0.0417
    160  CE2      105.0740   15.1350   13.2930 C.ar  156  TYR156      0.0417
    161  CZ       105.4290   13.9690   13.8910 C.ar  156  TYR156      0.1957
    162  OH       104.7320   13.5500   15.0070 O.3   156  TYR156     -0.2866
    163  N        113.1150   14.0650    9.1220 N.3   159  THR159     -0.1218
    164  CA       113.0320   12.6610    8.7370 C.3   159  THR159      0.1862
    165  C        112.8240   12.5310    7.2330 C.2   159  THR159      0.2287
    166  O        113.5300   11.7700    6.5590 O.2   159  THR159     -0.2866
    167  CB       111.8990   11.9740    9.5090 C.3   159  THR159      0.1770
    168  OG1      112.2070   11.9060   10.9050 O.3   159  THR159     -0.2211
    169  CG2      111.6650   10.5470    9.0030 C.3   159  THR159      0.0375
    170  N        114.0630   -1.9940   20.1490 N.3   230  ASN230     -0.1240
    171  CA       113.3430   -1.1760   19.1790 C.3   230  ASN230      0.1653
    172  C        112.3820   -1.8700   18.2210 C.2   230  ASN230      0.2266
    173  O        112.1760   -1.4020   17.1270 O.2   230  ASN230     -0.2867
    174  CB       114.3270   -0.2910   18.3910 C.3   230  ASN230      0.1155
    175  CG       114.0020    1.1560   18.4590 C.2   230  ASN230      0.2627
    176  OD1      113.6210    1.6700   19.4970 O.2   230  ASN230     -0.2716
    177  ND2      114.2010    1.8380   17.3480 N.am  230  ASN230     -0.0877
    178  N        107.6260   -0.0310   20.0730 N.3   235  MET235     -0.1245
    179  CA       107.3700    1.3720   19.7510 C.3   235  MET235      0.1570
    180  C        105.8880    1.7030   19.8570 C.2   235  MET235      0.2261
    181  O        105.5230    2.8010   20.2880 O.2   235  MET235     -0.2867
    182  CB       107.8950    1.6980   18.3510 C.3   235  MET235      0.0387
    183  CG       109.4110    1.6540   18.2460 C.3   235  MET235      0.0595
    184  SD       110.1910    2.9360   19.2710 S.3   235  MET235     -0.1393
    185  CE       110.5490    2.0120   20.7680 C.3   235  MET235      0.0692
    186  N        105.1380    2.2210   23.3820 N.3   238  LEU238     -0.1231
    187  CA       105.6410    3.5300   23.8020 C.3   238  LEU238      0.1693
    188  C        104.6870    4.6430   23.3880 C.2   238  LEU238      0.2592
    189  O        104.3170    5.4920   24.1980 O.2   238  LEU238     -0.2718
    190  CB       107.0390    3.7830   23.2240 C.3   238  LEU238      0.0284
    191  CG       107.6680    5.1480   23.5380 C.3   238  LEU238      0.0019
    192  CD1      107.7470    5.4060   25.0350 C.3   238  LEU238      0.0001
    193  CD2      109.0480    5.2100   22.9210 C.3   238  LEU238      0.0001
    194  N        104.2920    4.6720   22.1210 N.am  239  THR239     -0.1953
    195  CA       103.3360    5.6830   21.6770 C.3   239  THR239      0.1897
    196  C        102.0730    5.6530   22.5280 C.2   239  THR239      0.2313
    197  O        101.5960    6.6910   23.0010 O.2   239  THR239     -0.2863
    198  CB       103.0260    5.4470   20.1990 C.3   239  THR239      0.1794
    199  OG1      104.1690    5.8380   19.4430 O.3   239  THR239     -0.2208
    200  CG2      101.8020    6.2410   19.7350 C.3   239  THR239      0.0378
    201  N        102.7860    7.0780   25.9650 N.3   242  LEU242     -0.1245
    202  CA       102.9370    8.5270   25.9320 C.3   242  LEU242      0.1561
    203  C        101.5790    9.2050   25.8590 C.2   242  LEU242      0.2260
    204  O        101.3400   10.2210   26.5220 O.2   242  LEU242     -0.2867
    205  CB       103.7880    8.9310   24.7370 C.3   242  LEU242      0.0270
    206  CG       105.2830    8.6340   24.8650 C.3   242  LEU242      0.0019
    207  CD1      105.9660    8.8000   23.5070 C.3   242  LEU242      0.0001
    208  CD2      105.9070    9.5440   25.9020 C.3   242  LEU242      0.0001
    209  N        107.0500   11.7960   29.0970 N.3   248  LEU248     -0.1245
    210  CA       108.0770   10.7650   29.0440 C.3   248  LEU248      0.1561
    211  C        108.5210   10.3560   30.4420 C.2   248  LEU248      0.2260
    212  O        108.7010    9.1640   30.7190 O.2   248  LEU248     -0.2867
    213  CB       109.2730   11.2700   28.2330 C.3   248  LEU248      0.0270
    214  CG       110.5090   10.3710   28.2090 C.3   248  LEU248      0.0019
    215  CD1      110.1590    8.9930   27.6650 C.3   248  LEU248      0.0001
    216  CD2      111.5790   11.0400   27.3680 C.3   248  LEU248      0.0001
    217  N        115.4340    3.4830   27.2810 N.3   258  LEU258     -0.1245
    218  CA       115.4470    4.9360   27.2120 C.3   258  LEU258      0.1561
    219  C        115.8990    5.5150   28.5470 C.2   258  LEU258      0.2260
    220  O        116.3910    6.6390   28.6010 O.2   258  LEU258     -0.2867
    221  CB       114.0630    5.4680   26.8310 C.3   258  LEU258      0.0270
    222  CG       113.3120    4.6970   25.7360 C.3   258  LEU258      0.0019
    223  CD1      111.9460    5.3240   25.5170 C.3   258  LEU258      0.0001
    224  CD2      114.0890    4.6400   24.4320 C.3   258  LEU258      0.0001
@<TRIPOS>BOND
     1   166   165    2
     2    89    87    1
     3   165   164    1
     4     7     6    1
     5     7     1    1
     6    88    87    1
     7     6     5    1
     8    87    86    1
     9   154   153    2
    10     4     3    2
    11     1     2    1
    12   164   163    1
    13   164   167    1
    14   169   167    1
    15   153   152    1
    16   167   168    1
    17    86    83    1
    18     3     2    1
    19     3     8   am
    20     2     5    1
    21   102   101    1
    22    83    82    1
    23    83    84    1
    24    11    10    2
    25    99   100    2
    26    99    98    1
    27    12    13    1
    28    12     9    1
    29   101    98    1
    30   101   103    1
    31    82    76   am
    32   155   152    1
    33   155   156    1
    34    10     9    1
    35    77    76    2
    36   152   151    1
    37    13    14    1
    38    76    75    1
    39     8     9    1
    40    98    97    1
    41    84    85    2
    42   143   142    2
    43    75    74    1
    44    75    78    1
    45   156   158   ar
    46   156   157   ar
    47    97    92   am
    48   151   142   am
    49    80    79   ar
    50    25    23    1
    51   142   141    1
    52   158   160   ar
    53   157   159   ar
    54    14    15    1
    55    43    42    1
    56    90    91    1
    57    92    91    1
    58    92    93    2
    59    15    16    2
    60    78    79    1
    61    79    81   ar
    62   140   141    1
    63   141   144    1
    64   160   161   ar
    65   159   161   ar
    66    91    94    1
    67    23    24    1
    68    23    20    1
    69    94    96    1
    70    94    95    1
    71    19    20    1
    72   161   162    1
    73   111   109    1
    74    42    41    1
    75    20    21    1
    76    16    18    1
    77    16    17    1
    78   147   149   ar
    79   147   145   ar
    80   110   108    1
    81   144   145    1
    82   149   150   ar
    83   145   146   ar
    84    41    40    1
    85    40    37    1
    86   150   148   ar
    87   108   109    1
    88   108   105    1
    89   146   148   ar
    90    21    22    2
    91    36    37    1
    92    36    28   am
    93    37    38    1
    94   123   121   ar
    95    35    33   ar
    96    35    34   ar
    97    33    31   ar
    98    27    28    1
    99    27    26    1
   100    27    30    1
   101    28    29    2
   102   104   105    1
   103   105   106    1
   104   106   107    2
   105    34    32   ar
   106    31    32   ar
   107    31    30    1
   108   173   172    2
   109    38    39    2
   110    38    44   am
   111   177   175   am
   112   121   120    1
   113   121   122   ar
   114   134   135    2
   115   134   133    1
   116   120   117    1
   117    44    45    1
   118   136   133    1
   119   136   137    1
   120   172   171    1
   121   183   182    1
   122   183   184    1
   123    52    50   ar
   124    52    54   ar
   125   182   179    1
   126   174   175    1
   127   174   171    1
   128    62    60    1
   129   175   176    2
   130   133   132    1
   131    50    49   ar
   132   138   137    1
   133    60    59    1
   134   139   137    1
   135    54    53   ar
   136   171   170    1
   137   184   185    1
   138   199   198    1
   139    45    48    1
   140    45    46    1
   141   117   116    1
   142   117   118    1
   143    55    56    1
   144   200   198    1
   145   179   180    1
   146   179   178    1
   147   116   114   am
   148    49    48    1
   149    49    51   ar
   150   180   181    2
   151   118   119    2
   152    59    56    1
   153    59    61    1
   154   198   195    1
   155    46    47    2
   156    53    51   ar
   157    56    57    1
   158   112   113    1
   159   114   113    1
   160   114   115    2
   161   195   194    1
   162   195   196    1
   163    57    58    2
   164    57    63   am
   165   130   129    1
   166   194   188   am
   167    63    64    1
   168   196   197    2
   169   128   129    1
   170   128   125    1
   171   127   126    2
   172   193   191    1
   173   126   125    1
   174   129   131    1
   175    72    70   ar
   176    72    73   ar
   177   190   191    1
   178   190   187    1
   179    70    68   ar
   180   186   187    1
   181   188   187    1
   182   188   189    2
   183   124   125    1
   184   207   206    1
   185   191   192    1
   186    64    65    1
   187    64    67    1
   188    73    71   ar
   189    68    67    1
   190    68    69   ar
   191    65    66    2
   192   224   222    1
   193   205   206    1
   194   205   202    1
   195    71    69   ar
   196   206   208    1
   197   223   222    1
   198   222   221    1
   199   203   202    1
   200   203   204    2
   201   202   201    1
   202   221   218    1
   203   218   217    1
   204   218   219    1
   205   216   214    1
   206   215   214    1
   207   214   213    1
   208   213   210    1
   209   219   220    2
   210   210   209    1
   211   210   211    1
   212   211   212    2
