@<TRIPOS>MOLECULE
tmp/6bdyA00.pdb
 168 163 0 0 0
SMALL
GASTEIGER

@<TRIPOS>ATOM
      1  N         -7.8670   25.6140  -12.3530 N.3    46  ASP46      -0.1239
      2  CA        -9.1000   25.1850  -11.7080 C.3    46  ASP46       0.1674
      3  C         -8.8100   25.2240  -10.2090 C.2    46  ASP46       0.2266
      4  O         -8.0710   24.3700   -9.6980 O.2    46  ASP46      -0.2867
      5  CB        -9.5070   23.7850  -12.1920 C.3    46  ASP46       0.1410
      6  CG       -10.7470   23.2380  -11.4780 C.2    46  ASP46       0.3668
      7  OD1      -11.3080   23.9350  -10.5980 O.co2  46  ASP46      -0.2456
      8  OD2      -11.1530   22.0910  -11.7840 O.co2  46  ASP46      -0.2456
      9  N         -9.8160   22.0630   -6.8570 N.3    49  PRO49      -0.2116
     10  CA        -8.9440   21.0380   -6.2480 C.3    49  PRO49       0.1372
     11  C         -7.8810   21.6160   -5.3370 C.2    49  PRO49       0.2244
     12  O         -7.3680   20.8990   -4.4740 O.2    49  PRO49      -0.2868
     13  CB        -8.3190   20.3340   -7.4720 C.3    49  PRO49       0.0268
     14  CG        -9.2590   20.5910   -8.5500 C.3    49  PRO49       0.0207
     15  CD        -9.7730   21.9750   -8.3260 C.3    49  PRO49       0.0892
     16  N          1.0270   14.5700  -25.1950 N.3   161  PHE161     -0.1241
     17  CA         1.6040   15.7180  -24.5020 C.3   161  PHE161      0.1605
     18  C          2.2500   15.2830  -23.1910 C.2   161  PHE161      0.2264
     19  O          1.9080   14.2610  -22.5980 O.2   161  PHE161     -0.2867
     20  CB         0.5490   16.7860  -24.1680 C.3   161  PHE161      0.0534
     21  CG        -0.4370   16.3530  -23.1290 C.ar  161  PHE161     -0.0203
     22  CD1       -0.2940   16.7420  -21.7710 C.ar  161  PHE161     -0.0042
     23  CD2       -1.5150   15.5680  -23.4780 C.ar  161  PHE161     -0.0042
     24  CE1       -1.2280   16.3360  -20.8240 C.ar  161  PHE161     -0.0003
     25  CE2       -2.4430   15.1470  -22.5380 C.ar  161  PHE161     -0.0003
     26  CZ        -2.3050   15.5360  -21.2140 C.ar  161  PHE161     -0.0000
     27  N         -1.4450   22.9820   -9.5100 N.3   194  ARG194     -0.1245
     28  CA        -2.3980   23.7760  -10.2810 C.3   194  ARG194      0.1563
     29  C         -1.7910   24.2410  -11.5960 C.2   194  ARG194      0.2260
     30  O         -2.4930   24.3060  -12.6030 O.2   194  ARG194     -0.2867
     31  CB        -2.8560   25.0160   -9.4910 C.3   194  ARG194      0.0307
     32  CG        -3.8310   24.7500   -8.3180 C.3   194  ARG194      0.0489
     33  CD        -5.0910   23.9880   -8.6950 C.3   194  ARG194      0.2205
     34  NE        -4.8300   22.5510   -8.6310 N.pl3 194  ARG194     -0.0865
     35  CZ        -5.4510   21.6180   -9.3560 C.cat 194  ARG194      0.5346
     36  NH1       -6.4290   21.9210  -10.2040 N.pl3 194  ARG194      0.1354
     37  NH2       -5.0770   20.3590   -9.2270 N.pl3 194  ARG194      0.1354
     38  N         -1.7020   21.2770  -14.0760 N.3   197  GLU197     -0.1245
     39  CA        -3.0330   20.9710  -14.5910 C.3   197  GLU197      0.1567
     40  C         -3.5450   22.0970  -15.4830 C.2   197  GLU197      0.2260
     41  O         -4.1950   21.8460  -16.5040 O.2   197  GLU197     -0.2867
     42  CB        -3.9970   20.6720  -13.4380 C.3   197  GLU197      0.0388
     43  CG        -3.5620   19.4470  -12.6060 C.3   197  GLU197      0.1160
     44  CD        -3.8880   18.1000  -13.2550 C.2   197  GLU197      0.3649
     45  OE1       -4.4540   18.0750  -14.3710 O.co2 197  GLU197     -0.2457
     46  OE2       -3.5840   17.0850  -12.5890 O.co2 197  GLU197     -0.2457
     47  N         -4.7020   21.9150  -19.4330 N.3   201  GLU201     -0.1245
     48  CA        -5.9320   22.4750  -19.9740 C.3   201  GLU201      0.1567
     49  C         -5.6160   23.4440  -21.1200 C.2   201  GLU201      0.2260
     50  O         -6.1960   23.3490  -22.2140 O.2   201  GLU201     -0.2867
     51  CB        -6.7090   23.1590  -18.8250 C.3   201  GLU201      0.0388
     52  CG        -8.1600   23.4870  -19.1810 C.3   201  GLU201      0.1160
     53  CD        -9.0130   22.2340  -19.2610 C.2   201  GLU201      0.3649
     54  OE1       -9.1960   21.5770  -18.2170 O.co2 201  GLU201     -0.2457
     55  OE2       -9.4790   21.8780  -20.3730 O.co2 201  GLU201     -0.2457
     56  N        -13.5920   23.6470  -17.5610 N.3   226  ILE226     -0.1245
     57  CA       -13.6400   22.7460  -16.4140 C.3   226  ILE226      0.1561
     58  C        -14.7790   21.7460  -16.5800 C.2   226  ILE226      0.2260
     59  O        -14.6410   20.5580  -16.2540 O.2   226  ILE226     -0.2867
     60  CB       -13.7490   23.5630  -15.1090 C.3   226  ILE226      0.0252
     61  CG1      -12.4290   24.2830  -14.8510 C.3   226  ILE226      0.0019
     62  CG2      -14.0910   22.6460  -13.9360 C.3   226  ILE226      0.0019
     63  CD1      -12.5370   25.4420  -13.8470 C.3   226  ILE226      0.0001
     64  N        -15.6550   20.4950  -19.3290 N.3   228  GLU228     -0.1245
     65  CA       -15.3270   19.6330  -20.4790 C.3   228  GLU228      0.1567
     66  C        -16.3130   19.8210  -21.6340 C.2   228  GLU228      0.2260
     67  O        -16.6570   18.8700  -22.3370 O.2   228  GLU228     -0.2867
     68  CB       -15.2470   18.1570  -20.0570 C.3   228  GLU228      0.0388
     69  CG       -14.2130   17.9130  -18.9730 C.3   228  GLU228      0.1160
     70  CD       -14.1280   16.4730  -18.5120 C.2   228  GLU228      0.3649
     71  OE1      -15.1080   15.7080  -18.6830 O.co2 228  GLU228     -0.2457
     72  OE2      -13.0730   16.1040  -17.9620 O.co2 228  GLU228     -0.2457
     73  N        -16.1830   20.6820  -24.6370 N.3   230  TYR230     -0.1241
     74  CA       -15.4790   20.7320  -25.9050 C.3   230  TYR230      0.1605
     75  C        -15.4850   19.3360  -26.4950 C.2   230  TYR230      0.2264
     76  O        -15.8150   18.3500  -25.8260 O.2   230  TYR230     -0.2867
     77  CB       -14.0420   21.2530  -25.7440 C.3   230  TYR230      0.0534
     78  CG       -13.2840   20.6430  -24.5730 C.ar  230  TYR230     -0.0201
     79  CD1      -12.8530   19.3210  -24.6070 C.ar  230  TYR230     -0.0009
     80  CD2      -12.9840   21.4000  -23.4360 C.ar  230  TYR230     -0.0009
     81  CE1      -12.1750   18.7640  -23.5350 C.ar  230  TYR230      0.0417
     82  CE2      -12.3010   20.8480  -22.3640 C.ar  230  TYR230      0.0417
     83  CZ       -11.9030   19.5210  -22.4140 C.ar  230  TYR230      0.1957
     84  OH       -11.2060   18.9180  -21.3740 O.3   230  TYR230     -0.2866
     85  N         -8.4640   14.0140  -23.5110 N.3   234  ARG234     -0.1231
     86  CA        -7.0170   13.9760  -23.2780 C.3   234  ARG234      0.1679
     87  C         -6.6880   12.9180  -22.2170 C.2   234  ARG234      0.2434
     88  O         -6.1010   13.2060  -21.1700 O.2   234  ARG234     -0.2733
     89  CB        -6.4760   15.3750  -22.9220 C.3   234  ARG234      0.0321
     90  CG        -7.0590   16.0670  -21.6750 C.3   234  ARG234      0.0489
     91  CD        -6.1330   17.2430  -21.3000 C.3   234  ARG234      0.2205
     92  NE        -6.4200   17.8370  -19.9850 N.pl3 234  ARG234     -0.0865
     93  CZ        -7.3460   18.7690  -19.7760 C.cat 234  ARG234      0.5346
     94  NH1       -8.0930   19.2060  -20.7990 N.pl3 234  ARG234      0.1354
     95  NH2       -7.5290   19.2770  -18.5460 N.pl3 234  ARG234      0.1354
     96  N         -7.0360   11.6600  -22.4710 N.am  235  PRO235     -0.2718
     97  CA        -6.8670   10.6410  -21.4200 C.3   235  PRO235      0.1535
     98  C         -5.3980   10.4390  -21.0510 C.2   235  PRO235      0.2598
     99  O         -4.5000   10.4540  -21.9010 O.2   235  PRO235     -0.2715
    100  CB        -7.4870    9.3710  -22.0310 C.3   235  PRO235      0.0310
    101  CG        -7.3110    9.5750  -23.5040 C.3   235  PRO235      0.0237
    102  CD        -7.4950   11.0850  -23.7490 C.3   235  PRO235      0.0939
    103  N         -5.1580   10.2260  -19.7560 N.am  236  ALA236     -0.1978
    104  CA        -3.8120   10.1490  -19.2110 C.3   236  ALA236      0.1597
    105  C         -3.5040    8.7590  -18.6760 C.2   236  ALA236      0.2287
    106  O         -4.2800    8.2300  -17.8580 O.2   236  ALA236     -0.2864
    107  CB        -3.6450   11.1790  -18.0740 C.3   236  ALA236      0.0319
    108  N         -5.0410    6.7300  -15.3590 N.3   239  TYR239     -0.1228
    109  CA        -6.4400    7.0330  -15.0940 C.3   239  TYR239      0.1721
    110  C         -7.3100    5.9220  -15.6630 C.2   239  TYR239      0.2437
    111  O         -6.8290    5.0610  -16.4050 O.2   239  TYR239     -0.2733
    112  CB        -6.7950    8.3870  -15.7000 C.3   239  TYR239      0.0547
    113  CG        -6.3950    9.6070  -14.8720 C.ar  239  TYR239     -0.0200
    114  CD1       -7.3480   10.3100  -14.1680 C.ar  239  TYR239     -0.0009
    115  CD2       -5.0790   10.0650  -14.8450 C.ar  239  TYR239     -0.0009
    116  CE1       -7.0010   11.4410  -13.4160 C.ar  239  TYR239      0.0417
    117  CE2       -4.7210   11.2040  -14.1030 C.ar  239  TYR239      0.0417
    118  CZ        -5.6920   11.8710  -13.4080 C.ar  239  TYR239      0.1957
    119  OH        -5.3610   13.0010  -12.6960 O.3   239  TYR239     -0.2866
    120  N         -8.6020    5.8840  -15.3180 N.am  240  PRO240     -0.2718
    121  CA        -9.3660    4.6330  -15.4970 C.3   240  PRO240      0.1535
    122  C         -9.5680    4.1540  -16.9400 C.2   240  PRO240      0.2598
    123  O         -9.7470    2.9430  -17.1350 O.2   240  PRO240     -0.2715
    124  CB       -10.7100    4.9480  -14.8110 C.3   240  PRO240      0.0310
    125  CG       -10.3190    5.9110  -13.6930 C.3   240  PRO240      0.0237
    126  CD        -9.2940    6.8010  -14.3840 C.3   240  PRO240      0.0939
    127  N         -9.5380    5.0170  -17.9640 N.am  241  ALA241     -0.1964
    128  CA        -9.6890    4.5050  -19.3270 C.3   241  ALA241      0.1728
    129  C         -8.3920    3.9240  -19.8830 C.2   241  ALA241      0.2616
    130  O         -8.4100    3.2530  -20.9240 O.2   241  ALA241     -0.2715
    131  CB       -10.1930    5.6080  -20.2640 C.3   241  ALA241      0.0334
    132  N         -7.2620    4.2190  -19.2420 N.am  242  CYS242     -0.1968
    133  CA        -5.9530    3.7250  -19.6710 C.3   242  CYS242      0.1712
    134  C         -5.1020    3.5970  -18.4210 C.2   242  CYS242      0.2296
    135  O         -4.1990    4.4030  -18.1700 O.2   242  CYS242     -0.2864
    136  CB        -5.3100    4.6490  -20.7160 C.3   242  CYS242      0.0983
    137  SG        -5.5710    6.4230  -20.4410 S.3   242  CYS242     -0.0798
    138  N          1.7320   16.2370  -15.8420 N.3   277  VAL277     -0.1245
    139  CA         0.6200   15.5430  -16.4970 C.3   277  VAL277      0.1561
    140  C          1.1180   15.0790  -17.8520 C.2   277  VAL277      0.2260
    141  O          1.8430   15.8000  -18.5340 O.2   277  VAL277     -0.2867
    142  CB        -0.6190   16.4600  -16.6750 C.3   277  VAL277      0.0252
    143  CG1       -1.8410   15.6740  -17.1720 C.3   277  VAL277      0.0019
    144  CG2       -0.9360   17.2640  -15.4020 C.3   277  VAL277      0.0019
    145  N        -14.5750    9.6580  -21.4050 N.3   289  TYR289     -0.1227
    146  CA       -13.8940    8.9220  -20.3490 C.3   289  TYR289      0.1736
    147  C        -14.8040    7.8340  -19.7830 C.2   289  TYR289      0.2595
    148  O        -16.0380    7.9280  -19.8170 O.2   289  TYR289     -0.2718
    149  CB       -13.4370    9.8640  -19.2200 C.3   289  TYR289      0.0548
    150  CG       -12.4940   10.9510  -19.6970 C.ar  289  TYR289     -0.0200
    151  CD1      -11.2680   10.6400  -20.2880 C.ar  289  TYR289     -0.0009
    152  CD2      -12.8370   12.2970  -19.5760 C.ar  289  TYR289     -0.0009
    153  CE1      -10.4090   11.6480  -20.7170 C.ar  289  TYR289      0.0417
    154  CE2      -11.9960   13.2890  -20.0040 C.ar  289  TYR289      0.0417
    155  CZ       -10.7800   12.9700  -20.5790 C.ar  289  TYR289      0.1957
    156  OH        -9.9330   13.9720  -21.0160 O.3   289  TYR289     -0.2866
    157  N        -14.1740    6.8160  -19.2320 N.am  290  TYR290     -0.1976
    158  CA       -14.8540    5.6630  -18.6490 C.3   290  TYR290      0.1639
    159  C        -13.7850    4.8780  -17.9040 C.2   290  TYR290      0.2290
    160  O        -12.6010    5.2060  -17.9700 O.2   290  TYR290     -0.2864
    161  CB       -15.5450    4.8100  -19.7190 C.3   290  TYR290      0.0560
    162  CG       -14.5640    4.3500  -20.7690 C.ar  290  TYR290     -0.0198
    163  CD1      -13.8340    3.1770  -20.5990 C.ar  290  TYR290     -0.0009
    164  CD2      -14.3310    5.1130  -21.9060 C.ar  290  TYR290     -0.0009
    165  CE1      -12.9030    2.7790  -21.5530 C.ar  290  TYR290      0.0417
    166  CE2      -13.4220    4.7150  -22.8730 C.ar  290  TYR290      0.0417
    167  CZ       -12.7150    3.5500  -22.6910 C.ar  290  TYR290      0.1957
    168  OH       -11.7990    3.1610  -23.6390 O.3   290  TYR290     -0.2866
@<TRIPOS>BOND
     1    75    74    1
     2    75    76    2
     3    74    77    1
     4    74    73    1
     5    77    78    1
     6    16    17    1
     7    79    78   ar
     8    79    81   ar
     9    78    80   ar
    10    17    20    1
    11    17    18    1
    12    20    21    1
    13   102   101    1
    14   102    96    1
    15   168   167    1
    16    81    83   ar
    17    85    86    1
    18   101   100    1
    19    23    21   ar
    20    23    25   ar
    21    80    82   ar
    22    86    89    1
    23    86    87    1
    24    18    19    2
    25    21    22   ar
    26    89    90    1
    27   166   167   ar
    28   166   164   ar
    29   167   165   ar
    30    25    26   ar
    31    96    87   am
    32    96    97    1
    33    83    82   ar
    34    83    84    1
    35    67    66    2
    36    87    88    2
    37    50    49    2
    38   100    97    1
    39   164   162   ar
    40    99    98    2
    41    22    24   ar
    42    90    91    1
    43    66    65    1
    44   165   163   ar
    45    97    98    1
    46   145   146    1
    47    91    92    1
    48    26    24   ar
    49    49    48    1
    50    98   103   am
    51   156   155    1
    52   130   129    2
    53    94    93    1
    54   162   163   ar
    55   162   161    1
    56   153   155   ar
    57   153   151   ar
    58   136   137    1
    59   136   133    1
    60   155   154   ar
    61    65    68    1
    62    65    64    1
    63    55    53   ar
    64   146   147    1
    65   146   149    1
    66   151   150   ar
    67   131   128    1
    68    68    69    1
    69   154   152   ar
    70    92    93    2
    71    48    47    1
    72    48    51    1
    73   129   128    1
    74   129   132   am
    75   148   147    2
    76   147   157   am
    77    93    95    1
    78   103   104    1
    79   161   158    1
    80   150   152   ar
    81   150   149    1
    82   133   132    1
    83   133   134    1
    84   128   127    1
    85    53    52    1
    86    53    54   ar
    87   157   158    1
    88   104   105    1
    89   104   107    1
    90    52    51    1
    91    69    70    1
    92    71    70   ar
    93   105   106    2
    94   158   159    1
    95   141   140    2
    96    70    72   ar
    97   134   135    2
    98   160   159    2
    99   127   122   am
   100   140   139    1
   101    56    57    1
   102   143   142    1
   103   123   122    2
   104   122   121    1
   105   142   139    1
   106   142   144    1
   107    58    57    1
   108    58    59    2
   109    41    40    2
   110   139   138    1
   111    57    60    1
   112   111   110    2
   113   112   109    1
   114   112   113    1
   115   110   120   am
   116   110   109    1
   117   121   120    1
   118   121   124    1
   119    40    39    1
   120   108   109    1
   121   120   126    1
   122    60    61    1
   123    60    62    1
   124   113   115   ar
   125   113   114   ar
   126    61    63    1
   127   115   117   ar
   128   124   125    1
   129    39    38    1
   130    39    42    1
   131   126   125    1
   132    45    44   ar
   133   114   116   ar
   134   117   118   ar
   135    42    43    1
   136   116   118   ar
   137   118   119    1
   138    44    43    1
   139    44    46   ar
   140    30    29    2
   141     1     2    1
   142     5     2    1
   143     5     6    1
   144     8     6   ar
   145     2     3    1
   146    29    28    1
   147     6     7   ar
   148    28    27    1
   149    28    31    1
   150     3     4    2
   151    36    35    1
   152    31    32    1
   153    35    37    1
   154    35    34    2
   155    33    34    1
   156    33    32    1
   157    14    15    1
   158    14    13    1
   159    15     9    1
   160    13    10    1
   161     9    10    1
   162    10    11    1
   163    11    12    2
