@<TRIPOS>MOLECULE
tmp/6be0A00.pdb
 126 119 0 0 0
SMALL
GASTEIGER

@<TRIPOS>ATOM
      1  N        -16.3940   21.1510  -18.1820 N.3    46  LYS46      -0.1231
      2  CA       -17.5040   21.6750  -18.9690 C.3    46  LYS46       0.1693
      3  C        -18.2470   22.7840  -18.2220 C.2    46  LYS46       0.2592
      4  O        -18.6420   23.7830  -18.8240 O.2    46  LYS46      -0.2718
      5  CB       -18.4750   20.5520  -19.3390 C.3    46  LYS46       0.0285
      6  CG       -19.6350   21.0120  -20.2100 C.3    46  LYS46       0.0035
      7  CD       -20.4990   19.8530  -20.6810 C.3    46  LYS46       0.0206
      8  CE       -21.5820   20.3370  -21.6340 C.3    46  LYS46       0.1093
      9  NZ       -22.3180   19.2160  -22.2830 N.3    46  LYS46      -0.1314
     10  N        -18.4330   22.6040  -16.9150 N.am   47  TYR47      -0.1976
     11  CA       -19.1290   23.5900  -16.0850 C.3    47  TYR47       0.1639
     12  C        -18.3160   23.9650  -14.8470 C.2    47  TYR47       0.2290
     13  O        -18.4230   23.3090  -13.8120 O.2    47  TYR47      -0.2864
     14  CB       -20.5000   23.0590  -15.6730 C.3    47  TYR47       0.0560
     15  CG       -21.4580   22.9910  -16.8320 C.ar   47  TYR47      -0.0198
     16  CD1      -21.9530   24.1520  -17.4080 C.ar   47  TYR47      -0.0009
     17  CD2      -21.8590   21.7720  -17.3620 C.ar   47  TYR47      -0.0009
     18  CE1      -22.8230   24.1050  -18.4730 C.ar   47  TYR47       0.0417
     19  CE2      -22.7320   21.7130  -18.4290 C.ar   47  TYR47       0.0417
     20  CZ       -23.2090   22.8840  -18.9810 C.ar   47  TYR47       0.1957
     21  OH       -24.0770   22.8350  -20.0440 O.3    47  TYR47      -0.2866
     22  N        -26.1210   13.0670  -14.2510 N.3   156  ALA156     -0.1245
     23  CA       -26.9290   13.9580  -15.0750 C.3   156  ALA156      0.1562
     24  C        -27.6280   15.0040  -14.2150 C.2   156  ALA156      0.2260
     25  O        -27.5930   16.1970  -14.5210 O.2   156  ALA156     -0.2867
     26  CB       -27.9480   13.1610  -15.8750 C.3   156  ALA156      0.0290
     27  N        -25.4500   17.9050  -12.9450 N.3   159  LYS159     -0.1231
     28  CA       -25.2530   18.9910  -13.8950 C.3   159  LYS159      0.1693
     29  C        -26.5110   19.8490  -14.0140 C.2   159  LYS159      0.2591
     30  O        -26.4250   21.0600  -14.2050 O.2   159  LYS159     -0.2718
     31  CB       -24.8430   18.4360  -15.2630 C.3   159  LYS159      0.0285
     32  CG       -23.3310   18.3180  -15.4410 C.3   159  LYS159      0.0035
     33  CD       -22.9040   16.9700  -16.0110 C.3   159  LYS159      0.0206
     34  CE       -23.2800   16.8150  -17.4750 C.3   159  LYS159      0.1093
     35  NZ       -22.7450   15.5440  -18.0460 N.3   159  LYS159     -0.1314
     36  N        -27.6770   19.2230  -13.8890 N.am  160  LYS160     -0.1980
     37  CA       -28.9400   19.9540  -13.9350 C.3   160  LYS160      0.1596
     38  C        -29.1510   20.7900  -12.6720 C.2   160  LYS160      0.2287
     39  O        -29.7600   21.8590  -12.7250 O.2   160  LYS160     -0.2864
     40  CB       -30.1130   18.9890  -14.1240 C.3   160  LYS160      0.0298
     41  CG       -30.1900   18.3600  -15.5100 C.3   160  LYS160      0.0038
     42  CD       -30.5250   19.3960  -16.5750 C.3   160  LYS160      0.0206
     43  CE       -30.6490   18.7680  -17.9550 C.3   160  LYS160      0.1093
     44  NZ       -29.3430   18.2610  -18.4650 N.3   160  LYS160     -0.1314
     45  N        -27.5270   23.9970  -13.5570 N.3   163  LEU163     -0.1245
     46  CA       -28.2040   24.7620  -14.5970 C.3   163  LEU163      0.1561
     47  C        -29.5550   25.3020  -14.1330 C.2   163  LEU163      0.2260
     48  O        -30.0180   26.3350  -14.6190 O.2   163  LEU163     -0.2867
     49  CB       -28.3900   23.8940  -15.8420 C.3   163  LEU163      0.0270
     50  CG       -27.0900   23.3870  -16.4690 C.3   163  LEU163      0.0019
     51  CD1      -27.3620   22.2240  -17.4100 C.3   163  LEU163      0.0001
     52  CD2      -26.3770   24.5150  -17.1990 C.3   163  LEU163      0.0001
     53  N        -36.0160   14.2090  -17.9080 N.3   202  LYS202     -0.1231
     54  CA       -35.7570   13.8600  -19.2980 C.3   202  LYS202      0.1693
     55  C        -35.4810   12.3670  -19.4630 C.2   202  LYS202      0.2592
     56  O        -35.8170   11.7800  -20.4920 O.2   202  LYS202     -0.2718
     57  CB       -34.5820   14.6720  -19.8360 C.3   202  LYS202      0.0285
     58  CG       -34.8280   16.1740  -19.8380 C.3   202  LYS202      0.0035
     59  CD       -33.6250   16.9460  -20.3620 C.3   202  LYS202      0.0206
     60  CE       -33.3410   16.6160  -21.8190 C.3   202  LYS202      0.1093
     61  NZ       -32.2940   17.4980  -22.3970 N.3   202  LYS202     -0.1314
     62  N        -34.8790   11.7600  -18.4430 N.am  203  HIS203     -0.1976
     63  CA       -34.5160   10.3440  -18.4920 C.3   203  HIS203      0.1656
     64  C        -35.5080    9.4590  -17.7440 C.2   203  HIS203      0.2291
     65  O        -35.2130    8.2950  -17.4730 O.2   203  HIS203     -0.2864
     66  CB       -33.1150   10.1340  -17.9110 C.3   203  HIS203      0.0771
     67  CG       -32.0380   10.8620  -18.6520 C.ar  203  HIS203      0.0820
     68  ND1      -31.6360   10.5050  -19.9210 N.ar  203  HIS203     -0.2267
     69  CD2      -31.2760   11.9260  -18.3010 C.ar  203  HIS203      0.1154
     70  CE1      -30.6760   11.3170  -20.3220 C.ar  203  HIS203      0.1986
     71  NE2      -30.4380   12.1890  -19.3580 N.ar  203  HIS203     -0.2212
     72  N        -34.5420   20.3250  -25.1170 N.3   226  ASN226     -0.1225
     73  CA       -33.2090   20.2480  -25.7090 C.3   226  ASN226      0.1785
     74  C        -33.0740   21.0640  -26.9940 C.2   226  ASN226      0.2597
     75  O        -34.0370   21.6730  -27.4610 O.2   226  ASN226     -0.2718
     76  CB       -32.8400   18.7860  -25.9830 C.3   226  ASN226      0.1169
     77  CG       -33.8110   18.0990  -26.9280 C.2   226  ASN226      0.2627
     78  OD1      -34.6720   18.7380  -27.5330 O.2   226  ASN226     -0.2716
     79  ND2      -33.6710   16.7860  -27.0590 N.am  226  ASN226     -0.0877
     80  N        -31.8690   21.0690  -27.5580 N.am  227  LYS227     -0.1966
     81  CA       -31.5790   21.8330  -28.7680 C.3   227  LYS227      0.1728
     82  C        -32.1550   21.1690  -30.0150 C.2   227  LYS227      0.2616
     83  O        -32.0990   21.7340  -31.1070 O.2   227  LYS227     -0.2715
     84  CB       -30.0670   22.0150  -28.9260 C.3   227  LYS227      0.0311
     85  CG       -29.4260   22.8070  -27.7990 C.3   227  LYS227      0.0038
     86  CD       -27.9130   22.6670  -27.7880 C.3   227  LYS227      0.0206
     87  CE       -27.3330   23.1830  -26.4790 C.3   227  LYS227      0.1093
     88  NZ       -25.8660   22.9510  -26.3650 N.3   227  LYS227     -0.1314
     89  N        -32.7080   19.9710  -29.8510 N.am  228  LYS228     -0.1977
     90  CA       -33.3370   19.2580  -30.9580 C.3   228  LYS228      0.1596
     91  C        -34.8210   19.6080  -31.0550 C.2   228  LYS228      0.2287
     92  O        -35.5670   18.9830  -31.8090 O.2   228  LYS228     -0.2864
     93  CB       -33.1480   17.7490  -30.7910 C.3   228  LYS228      0.0298
     94  CG       -31.6850   17.3360  -30.7390 C.3   228  LYS228      0.0038
     95  CD       -31.5110   15.8360  -30.5880 C.3   228  LYS228      0.0206
     96  CE       -30.0380   15.4560  -30.6440 C.3   228  LYS228      0.1093
     97  NZ       -29.8210   13.9870  -30.5410 N.3   228  LYS228     -0.1314
     98  N        -39.3070   13.5110  -26.6970 N.3   235  ARG235     -0.1245
     99  CA       -37.9910   12.9630  -26.3980 C.3   235  ARG235      0.1563
    100  C        -38.0960   11.5730  -25.7760 C.2   235  ARG235      0.2260
    101  O        -37.2940   10.6900  -26.0820 O.2   235  ARG235     -0.2867
    102  CB       -37.2110   13.8840  -25.4580 C.3   235  ARG235      0.0307
    103  CG       -36.0660   13.1630  -24.7760 C.3   235  ARG235      0.0489
    104  CD       -35.0410   14.0860  -24.1510 C.3   235  ARG235      0.2205
    105  NE       -34.1180   13.3110  -23.3260 N.pl3 235  ARG235     -0.0865
    106  CZ       -33.2120   12.4650  -23.8060 C.cat 235  ARG235      0.5346
    107  NH1      -33.0860   12.2820  -25.1140 N.pl3 235  ARG235      0.1354
    108  NH2      -32.4280   11.7970  -22.9760 N.pl3 235  ARG235      0.1354
    109  N        -27.2930    7.7030  -22.4740 N.3   255  LYS255     -0.1245
    110  CA       -26.5460    8.7900  -21.8470 C.3   255  LYS255      0.1561
    111  C        -25.1810    8.3050  -21.3670 C.2   255  LYS255      0.2260
    112  O        -24.1940    9.0360  -21.4510 O.2   255  LYS255     -0.2867
    113  CB       -27.3260    9.3920  -20.6750 C.3   255  LYS255      0.0271
    114  CG       -26.6800   10.6460  -20.0780 C.3   255  LYS255      0.0035
    115  CD       -26.6020   11.7820  -21.0940 C.3   255  LYS255      0.0206
    116  CE       -25.9430   13.0270  -20.5180 C.3   255  LYS255      0.1093
    117  NZ       -26.7380   13.6370  -19.4210 N.3   255  LYS255     -0.1314
    118  N        -21.6510    9.9410  -22.4060 N.3   259  GLU259     -0.1245
    119  CA       -20.6900   10.3140  -21.3770 C.3   259  GLU259      0.1567
    120  C        -19.3310    9.6540  -21.6030 C.2   259  GLU259      0.2260
    121  O        -18.2920   10.3040  -21.4870 O.2   259  GLU259     -0.2867
    122  CB       -21.2360    9.9410  -19.9990 C.3   259  GLU259      0.0388
    123  CG       -22.3600   10.8460  -19.5110 C.3   259  GLU259      0.1160
    124  CD       -21.8530   12.1450  -18.9080 C.2   259  GLU259      0.3649
    125  OE1      -20.6890   12.5180  -19.1680 O.co2 259  GLU259     -0.2457
    126  OE2      -22.6200   12.7910  -18.1650 O.co2 259  GLU259     -0.2457
@<TRIPOS>BOND
     1    92    91    2
     2    83    82    2
     3    91    90    1
     4    90    93    1
     5    90    89    1
     6    93    94    1
     7    94    95    1
     8    96    95    1
     9    96    97    1
    10    82    89   am
    11    82    81    1
    12    84    81    1
    13    84    85    1
    14    81    80    1
    15    85    86    1
    16    86    87    1
    17    80    74   am
    18    78    77    2
    19    75    74    2
    20    79    77   am
    21    74    73    1
    22    77    76    1
    23    98    99    1
    24    87    88    1
    25    99   100    1
    26    99   102    1
    27   101   100    2
    28    76    73    1
    29    73    72    1
    30   102   103    1
    31   107   106    1
    32   103   104    1
    33   104   105    1
    34   106   105    2
    35   106   108    1
    36   109   110    1
    37   118   119    1
    38    61    60    1
    39     9     8    1
    40   110   111    1
    41   110   113    1
    42    60    59    1
    43     8     7    1
    44   120   121    2
    45   120   119    1
    46   112   111    2
    47   119   122    1
    48   115   116    1
    49   115   114    1
    50     7     6    1
    51   113   114    1
    52   116   117    1
    53    56    55    2
    54    59    58    1
    55    70    68   ar
    56    70    71   ar
    57     6     5    1
    58    21    20    1
    59   122   123    1
    60    68    67   ar
    61    58    57    1
    62    57    54    1
    63   123   124    1
    64    55    54    1
    65    55    62   am
    66    71    69   ar
    67     5     2    1
    68    54    53    1
    69   125   124   ar
    70    20    18   ar
    71    20    19   ar
    72     2     3    1
    73     2     1    1
    74   124   126   ar
    75     4     3    2
    76    67    69   ar
    77    67    66    1
    78    63    62    1
    79    63    66    1
    80    63    64    1
    81    18    16   ar
    82    44    43    1
    83    19    17   ar
    84     3    10   am
    85    35    34    1
    86    43    42    1
    87    64    65    2
    88    34    33    1
    89    51    50    1
    90    16    15   ar
    91    17    15   ar
    92    52    50    1
    93    10    11    1
    94    15    14    1
    95    42    41    1
    96    50    49    1
    97    11    14    1
    98    11    12    1
    99    33    32    1
   100    26    23    1
   101    49    46    1
   102    41    40    1
   103    32    31    1
   104    31    28    1
   105    23    22    1
   106    23    24    1
   107    12    13    2
   108    48    47    2
   109    46    47    1
   110    46    45    1
   111    25    24    2
   112    30    29    2
   113    40    37    1
   114    29    28    1
   115    29    36   am
   116    37    36    1
   117    37    38    1
   118    28    27    1
   119    39    38    2
