@<TRIPOS>MOLECULE
tmp/6be0A01.pdb
 126 124 0 0 0
SMALL
GASTEIGER

@<TRIPOS>ATOM
      1  N        -29.0810   -5.6610  -22.7160 N.3    23  TRP23      -0.1227
      2  CA       -28.7650   -4.5660  -21.8020 C.3    23  TRP23       0.1737
      3  C        -29.5640   -4.6460  -20.5080 C.2    23  TRP23       0.2595
      4  O        -29.0870   -4.2450  -19.4460 O.2    23  TRP23      -0.2718
      5  CB       -29.0300   -3.2140  -22.4730 C.3    23  TRP23       0.0564
      6  CG       -30.4660   -3.0140  -22.8800 C.ar   23  TRP23       0.0003
      7  CD1      -31.0380   -3.3720  -24.0650 C.ar   23  TRP23       0.0946
      8  CD2      -31.5080   -2.4090  -22.1010 C.ar   23  TRP23       0.0152
      9  NE1      -32.3670   -3.0280  -24.0750 N.ar   23  TRP23      -0.2442
     10  CE2      -32.6810   -2.4360  -22.8810 C.ar   23  TRP23       0.0810
     11  CE3      -31.5630   -1.8470  -20.8220 C.ar   23  TRP23       0.0012
     12  CZ2      -33.8940   -1.9240  -22.4250 C.ar   23  TRP23       0.0191
     13  CZ3      -32.7700   -1.3390  -20.3710 C.ar   23  TRP23       0.0001
     14  CH2      -33.9170   -1.3810  -21.1710 C.ar   23  TRP23       0.0015
     15  N        -30.7800   -5.1700  -20.6040 N.am   24  ILE24      -0.1980
     16  CA       -31.7140   -5.1190  -19.4890 C.3    24  ILE24       0.1595
     17  C        -31.2840   -5.9870  -18.3040 C.2    24  ILE24       0.2287
     18  O        -31.5860   -5.6520  -17.1570 O.2    24  ILE24      -0.2864
     19  CB       -33.1310   -5.5360  -19.9380 C.3    24  ILE24       0.0276
     20  CG1      -34.1250   -5.3230  -18.7950 C.3    24  ILE24       0.0022
     21  CG2      -33.1490   -6.9850  -20.4190 C.3    24  ILE24       0.0022
     22  CD1      -35.5260   -5.0010  -19.2580 C.3    24  ILE24       0.0001
     23  N        -35.9140    3.1860  -12.9880 N.3   145  ARG145     -0.1231
     24  CA       -36.5550    1.8890  -12.8090 C.3   145  ARG145      0.1694
     25  C        -35.6110    0.7730  -13.2450 C.2   145  ARG145      0.2593
     26  O        -35.7460   -0.3670  -12.8040 O.2   145  ARG145     -0.2718
     27  CB       -37.8630    1.8190  -13.5990 C.3   145  ARG145      0.0321
     28  CG       -38.7960    3.0010  -13.3740 C.3   145  ARG145      0.0489
     29  CD       -39.3770    3.0030  -11.9740 C.3   145  ARG145      0.2205
     30  NE       -40.1910    4.1880  -11.7070 N.pl3 145  ARG145     -0.0865
     31  CZ       -41.3840    4.4210  -12.2470 C.cat 145  ARG145      0.5346
     32  NH1      -41.9150    3.5650  -13.1100 N.pl3 145  ARG145      0.1354
     33  NH2      -42.0470    5.5220  -11.9290 N.pl3 145  ARG145      0.1354
     34  N        -34.6590    1.1030  -14.1150 N.am  146  SER146     -0.1938
     35  CA       -33.6500    0.1380  -14.5350 C.3   146  SER146      0.2055
     36  C        -32.7620   -0.2080  -13.3450 C.2   146  SER146      0.2643
     37  O        -32.7480    0.5060  -12.3440 O.2   146  SER146     -0.2714
     38  CB       -32.8220    0.6820  -15.6990 C.3   146  SER146      0.2130
     39  OG       -32.1770    1.8940  -15.3570 O.3   146  SER146     -0.2179
     40  N        -32.0150   -1.3000  -13.4630 N.am  147  SER147     -0.1949
     41  CA       -31.3960   -1.9340  -12.3030 C.3   147  SER147      0.1924
     42  C        -30.0380   -1.3600  -11.8900 C.2   147  SER147      0.2314
     43  O        -29.6440   -1.4880  -10.7310 O.2   147  SER147     -0.2863
     44  CB       -31.2400   -3.4330  -12.5720 C.3   147  SER147      0.2116
     45  OG       -30.4410   -3.6620  -13.7210 O.3   147  SER147     -0.2180
     46  N        -37.9330    6.8460  -16.6560 N.3   205  GLN205     -0.1231
     47  CA       -38.1540    5.5150  -17.2010 C.3   205  GLN205      0.1698
     48  C        -39.5610    5.0290  -16.8700 C.2   205  GLN205      0.2593
     49  O        -39.7430    4.1340  -16.0500 O.2   205  GLN205     -0.2718
     50  CB       -37.1010    4.5460  -16.6600 C.3   205  GLN205      0.0381
     51  CG       -35.7000    4.8400  -17.1780 C.3   205  GLN205      0.0905
     52  CD       -34.6180    4.0650  -16.4540 C.2   205  GLN205      0.2608
     53  OE1      -34.7400    3.7610  -15.2680 O.2   205  GLN205     -0.2717
     54  NE2      -33.5460    3.7420  -17.1680 N.am  205  GLN205     -0.0878
     55  N        -40.5530    5.6300  -17.5170 N.am  206  GLY206     -0.1942
     56  CA       -41.9410    5.2800  -17.2800 C.3   206  GLY206      0.2014
     57  C        -42.8890    6.3450  -17.7980 C.2   206  GLY206      0.2639
     58  O        -42.8580    7.4890  -17.3450 O.2   206  GLY206     -0.2714
     59  N        -43.7320    5.9660  -18.7530 N.am  207  ALA207     -0.1963
     60  CA       -44.6990    6.8880  -19.3360 C.3   207  ALA207      0.1728
     61  C        -45.6980    7.3640  -18.2850 C.2   207  ALA207      0.2616
     62  O        -46.0760    8.5370  -18.2600 O.2   207  ALA207     -0.2715
     63  CB       -45.4250    6.2280  -20.4970 C.3   207  ALA207      0.0334
     64  N        -46.1220    6.4480  -17.4210 N.am  208  GLN208     -0.1963
     65  CA       -47.0470    6.7800  -16.3450 C.3   208  GLN208      0.1733
     66  C        -46.4230    7.8030  -15.4050 C.2   208  GLN208      0.2616
     67  O        -47.0900    8.7320  -14.9540 O.2   208  GLN208     -0.2715
     68  CB       -47.4450    5.5230  -15.5680 C.3   208  GLN208      0.0408
     69  CG       -48.4140    5.7760  -14.4180 C.3   208  GLN208      0.0908
     70  CD       -49.7400    6.3500  -14.8840 C.2   208  GLN208      0.2608
     71  OE1      -50.2670    5.9600  -15.9270 O.2   208  GLN208     -0.2717
     72  NE2      -50.2830    7.2860  -14.1140 N.am  208  GLN208     -0.0878
     73  N        -45.1390    7.6250  -15.1150 N.am  209  ARG209     -0.1977
     74  CA       -44.4240    8.5250  -14.2170 C.3   209  ARG209      0.1597
     75  C        -44.3660    9.9410  -14.7830 C.2   209  ARG209      0.2287
     76  O        -44.4650   10.9200  -14.0420 O.2   209  ARG209     -0.2864
     77  CB       -43.0090    8.0040  -13.9590 C.3   209  ARG209      0.0334
     78  CG       -42.1790    8.8540  -13.0070 C.3   209  ARG209      0.0492
     79  CD       -42.7560    8.8940  -11.6000 C.3   209  ARG209      0.2205
     80  NE       -42.0430    9.8530  -10.7580 N.pl3 209  ARG209     -0.0865
     81  CZ       -42.3320   11.1490  -10.6800 C.cat 209  ARG209      0.5346
     82  NH1      -43.3310   11.6620  -11.3880 N.pl3 209  ARG209      0.1354
     83  NH2      -41.6220   11.9390   -9.8880 N.pl3 209  ARG209      0.1354
     84  N        -39.0720   11.3900  -24.8910 N.3   236  PHE236     -0.1241
     85  CA       -39.2740   10.1040  -24.2310 C.3   236  PHE236      0.1605
     86  C        -39.4730    8.9950  -25.2550 C.2   236  PHE236      0.2264
     87  O        -38.9340    7.8990  -25.1090 O.2   236  PHE236     -0.2867
     88  CB       -40.4780   10.1600  -23.2870 C.3   236  PHE236      0.0534
     89  CG       -40.8780    8.8180  -22.7380 C.ar  236  PHE236     -0.0203
     90  CD1      -40.1970    8.2590  -21.6700 C.ar  236  PHE236     -0.0042
     91  CD2      -41.9370    8.1150  -23.2910 C.ar  236  PHE236     -0.0042
     92  CE1      -40.5640    7.0240  -21.1640 C.ar  236  PHE236     -0.0003
     93  CE2      -42.3080    6.8820  -22.7890 C.ar  236  PHE236     -0.0003
     94  CZ       -41.6200    6.3370  -21.7250 C.ar  236  PHE236     -0.0000
     95  N        -43.5560   -4.4530  -24.5920 N.3   246  LYS246     -0.1231
     96  CA       -43.5340   -3.4510  -23.5290 C.3   246  LYS246      0.1693
     97  C        -42.5480   -2.3410  -23.8720 C.2   246  LYS246      0.2592
     98  O        -41.3690   -2.6000  -24.1170 O.2   246  LYS246     -0.2718
     99  CB       -43.1690   -4.0910  -22.1880 C.3   246  LYS246      0.0285
    100  CG       -44.2230   -5.0500  -21.6500 C.3   246  LYS246      0.0035
    101  CD       -43.8270   -5.6080  -20.2910 C.3   246  LYS246      0.0206
    102  CE       -44.8900   -6.5450  -19.7380 C.3   246  LYS246      0.1093
    103  NZ       -44.4960   -7.1220  -18.4220 N.3   246  LYS246     -0.1314
    104  N        -43.0370   -1.1050  -23.8890 N.am  247  LYS247     -0.1966
    105  CA       -42.2080    0.0380  -24.2530 C.3   247  LYS247      0.1728
    106  C        -41.3170    0.4580  -23.0890 C.2   247  LYS247      0.2616
    107  O        -41.8050    0.9140  -22.0540 O.2   247  LYS247     -0.2715
    108  CB       -43.0790    1.2150  -24.7040 C.3   247  LYS247      0.0311
    109  CG       -42.2830    2.3720  -25.2940 C.3   247  LYS247      0.0038
    110  CD       -43.1760    3.3990  -25.9780 C.3   247  LYS247      0.0206
    111  CE       -43.9330    4.2560  -24.9750 C.3   247  LYS247      0.1093
    112  NZ       -44.6770    5.3620  -25.6440 N.3   247  LYS247     -0.1314
    113  N        -40.0100    0.2940  -23.2720 N.am  248  LEU248     -0.1963
    114  CA       -39.0240    0.6600  -22.2610 C.3   248  LEU248      0.1728
    115  C        -38.1560    1.8110  -22.7490 C.2   248  LEU248      0.2616
    116  O        -37.9950    2.0050  -23.9540 O.2   248  LEU248     -0.2715
    117  CB       -38.1430   -0.5390  -21.9100 C.3   248  LEU248      0.0311
    118  CG       -38.8460   -1.7600  -21.3140 C.3   248  LEU248      0.0022
    119  CD1      -37.8490   -2.8930  -21.1280 C.3   248  LEU248      0.0001
    120  CD2      -39.5190   -1.4120  -19.9960 C.3   248  LEU248      0.0001
    121  N        -37.5960    2.5650  -21.8070 N.am  249  SER249     -0.1950
    122  CA       -36.7030    3.6710  -22.1340 C.3   249  SER249      0.1924
    123  C        -35.2460    3.2640  -21.9640 C.2   249  SER249      0.2314
    124  O        -34.8550    2.7510  -20.9140 O.2   249  SER249     -0.2863
    125  CB       -37.0070    4.8860  -21.2550 C.3   249  SER249      0.2116
    126  OG       -36.0480    5.9100  -21.4620 O.3   249  SER249     -0.2180
@<TRIPOS>BOND
     1   110   109    1
     2   110   111    1
     3   112   111    1
     4   109   108    1
     5    86    87    2
     6    86    85    1
     7    84    85    1
     8   108   105    1
     9    95    96    1
    10   105   104    1
    11   105   106    1
    12    85    88    1
    13    98    97    2
    14     9     7   ar
    15     9    10   ar
    16     7     6   ar
    17   116   115    2
    18   104    97   am
    19    97    96    1
    20    96    99    1
    21    91    93   ar
    22    91    89   ar
    23    88    89    1
    24   113   106   am
    25   113   114    1
    26   106   107    2
    27    10    12   ar
    28    10     8   ar
    29     6     5    1
    30     6     8   ar
    31    93    94   ar
    32   115   114    1
    33   115   121   am
    34    89    90   ar
    35     1     2    1
    36     5     2    1
    37    12    14   ar
    38   114   117    1
    39    99   100    1
    40   122   123    1
    41   122   121    1
    42   122   125    1
    43     8    11   ar
    44   123   124    2
    45   117   118    1
    46     2     3    1
    47    94    92   ar
    48    90    92   ar
    49   100   101    1
    50   126   125    1
    51   118   119    1
    52   118   120    1
    53    14    13   ar
    54    11    13   ar
    55    15     3   am
    56    15    16    1
    57     3     4    2
    58    63    60    1
    59    21    19    1
    60   101   102    1
    61    19    16    1
    62    19    20    1
    63   102   103    1
    64    16    17    1
    65    60    59    1
    66    60    61    1
    67    22    20    1
    68    59    57   am
    69    17    18    2
    70    61    62    2
    71    61    64   am
    72    57    58    2
    73    57    56    1
    74    55    56    1
    75    55    48   am
    76    64    65    1
    77    47    48    1
    78    47    50    1
    79    47    46    1
    80    51    50    1
    81    51    52    1
    82    54    52   am
    83    48    49    2
    84    52    53    2
    85    65    68    1
    86    65    66    1
    87    71    70    2
    88    38    39    1
    89    38    35    1
    90    68    69    1
    91    66    73   am
    92    66    67    2
    93    73    74    1
    94    70    69    1
    95    70    72   am
    96    75    74    1
    97    75    76    2
    98    35    34    1
    99    35    36    1
   100    74    77    1
   101    34    25   am
   102    77    78    1
   103    45    44    1
   104    27    28    1
   105    27    24    1
   106    40    36   am
   107    40    41    1
   108    28    29    1
   109    36    37    2
   110    25    24    1
   111    25    26    2
   112    32    31    1
   113    78    79    1
   114    23    24    1
   115    44    41    1
   116    41    42    1
   117    31    33    1
   118    31    30    2
   119    29    30    1
   120    42    43    2
   121    79    80    1
   122    82    81    1
   123    80    81    2
   124    81    83    1
