@<TRIPOS>MOLECULE
tmp/6be6D00.pdb
 118 113 0 0 0
SMALL
GASTEIGER

@<TRIPOS>ATOM
      1  N         52.7870   63.2720   28.6560 N.3    10  GLN10      -0.1231
      2  CA        53.0510   64.6750   28.3770 C.3    10  GLN10       0.1698
      3  C         51.7800   65.4790   28.6040 C.2    10  GLN10       0.2593
      4  O         50.6770   65.0070   28.3130 O.2    10  GLN10      -0.2718
      5  CB        53.5350   64.8770   26.9380 C.3    10  GLN10       0.0381
      6  CG        54.8220   64.1530   26.5910 C.3    10  GLN10       0.0905
      7  CD        55.1810   64.2910   25.1250 C.2    10  GLN10       0.2608
      8  OE1       54.3400   64.0930   24.2490 O.2    10  GLN10      -0.2717
      9  NE2       56.4310   64.6430   24.8500 N.am   10  GLN10      -0.0878
     10  N         51.9340   66.6900   29.1280 N.am   11  THR11      -0.1939
     11  CA        50.8190   67.6070   29.3130 C.3    11  THR11       0.2028
     12  C         51.1660   68.9420   28.6760 C.2    11  THR11       0.2642
     13  O         52.2850   69.4400   28.8330 O.2    11  THR11      -0.2714
     14  CB        50.4850   67.8060   30.7990 C.3    11  THR11       0.1808
     15  OG1       51.6620   68.2150   31.5050 O.3    11  THR11      -0.2208
     16  CG2       49.9570   66.5160   31.4080 C.3    11  THR11       0.0379
     17  N         50.2110   69.5150   27.9500 N.am   12  ASP12      -0.1957
     18  CA        50.4260   70.7920   27.2880 C.3    12  ASP12       0.1840
     19  C         50.1180   71.9310   28.2610 C.2    12  ASP12       0.2622
     20  O         49.9280   71.7190   29.4620 O.2    12  ASP12      -0.2715
     21  CB        49.5940   70.8740   26.0080 C.3    12  ASP12       0.1450
     22  CG        48.1140   70.6350   26.2480 C.2    12  ASP12       0.3671
     23  OD1       47.7160   70.4120   27.4110 O.co2  12  ASP12      -0.2456
     24  OD2       47.3440   70.6680   25.2650 O.co2  12  ASP12      -0.2456
     25  N         50.0680   73.1610   27.7480 N.am   13  HIS13      -0.1973
     26  CA        49.8340   74.3200   28.5990 C.3    13  HIS13       0.1656
     27  C         48.3800   74.4550   29.0280 C.2    13  HIS13       0.2291
     28  O         48.1100   75.0820   30.0570 O.2    13  HIS13      -0.2864
     29  CB        50.2810   75.5980   27.8850 C.3    13  HIS13       0.0771
     30  CG        49.5470   75.8640   26.6090 C.ar   13  HIS13       0.0820
     31  ND1       49.8370   75.2070   25.4330 N.ar   13  HIS13      -0.2267
     32  CD2       48.5350   76.7170   26.3230 C.ar   13  HIS13       0.1154
     33  CE1       49.0340   75.6420   24.4790 C.ar   13  HIS13       0.1986
     34  NE2       48.2350   76.5590   24.9920 N.ar   13  HIS13      -0.2212
     35  N         56.9060   65.0320   31.1070 N.3    59  ARG59      -0.1245
     36  CA        57.1590   66.3600   30.5500 C.3    59  ARG59       0.1563
     37  C         55.8910   67.1860   30.7290 C.2    59  ARG59       0.2260
     38  O         54.9220   67.0190   29.9830 O.2    59  ARG59      -0.2867
     39  CB        57.5680   66.2830   29.0840 C.3    59  ARG59       0.0307
     40  CG        58.0280   67.6130   28.5090 C.3    59  ARG59       0.0489
     41  CD        58.5340   67.4450   27.0900 C.3    59  ARG59       0.2205
     42  NE        59.3670   68.5660   26.6660 N.pl3  59  ARG59      -0.0865
     43  CZ        59.9970   68.6220   25.4980 C.cat  59  ARG59       0.5346
     44  NH1       59.8860   67.6210   24.6350 N.pl3  59  ARG59       0.1354
     45  NH2       60.7390   69.6770   25.1910 N.pl3  59  ARG59       0.1354
     46  N         54.1850   70.8690   30.6650 N.3    61  ASN61      -0.1240
     47  CA        54.3570   72.1720   30.0420 C.3    61  ASN61       0.1653
     48  C         53.4730   73.2020   30.7280 C.2    61  ASN61       0.2266
     49  O         52.3000   72.9380   31.0130 O.2    61  ASN61      -0.2867
     50  CB        54.0290   72.1090   28.5490 C.3    61  ASN61       0.1155
     51  CG        55.1850   71.5860   27.7240 C.2    61  ASN61       0.2627
     52  OD1       56.2370   71.2400   28.2620 O.2    61  ASN61      -0.2716
     53  ND2       54.9990   71.5200   26.4140 N.am   61  ASN61      -0.0877
     54  N         55.8890   77.6530   27.9170 N.3    65  ASP65      -0.1239
     55  CA        56.1380   76.9460   26.6670 C.3    65  ASP65       0.1674
     56  C         55.2060   77.3840   25.5460 C.2    65  ASP65       0.2266
     57  O         55.4260   76.9940   24.3940 O.2    65  ASP65      -0.2867
     58  CB        56.0140   75.4380   26.8940 C.3    65  ASP65       0.1410
     59  CG        57.0050   74.9230   27.9190 C.2    65  ASP65       0.3668
     60  OD1       58.1830   75.3330   27.8660 O.co2  65  ASP65      -0.2456
     61  OD2       56.6070   74.1170   28.7840 O.co2  65  ASP65      -0.2456
     62  N         57.1290   79.4320   22.8490 N.3    68  ASP68      -0.1239
     63  CA        58.1930   78.7940   22.0840 C.3    68  ASP68       0.1674
     64  C         57.7150   78.5470   20.6600 C.2    68  ASP68       0.2266
     65  O         56.7670   77.7740   20.4660 O.2    68  ASP68      -0.2867
     66  CB        58.6060   77.4820   22.7290 C.3    68  ASP68       0.1410
     67  CG        59.7950   76.8370   22.0390 C.2    68  ASP68       0.3668
     68  OD1       60.4700   77.5200   21.2400 O.co2  68  ASP68      -0.2456
     69  OD2       60.0530   75.6420   22.2950 O.co2  68  ASP68      -0.2456
     70  N         59.0600   76.8370   18.1690 N.3    70  THR70      -0.1203
     71  CA        59.2490   75.4490   17.7610 C.3    70  THR70       0.1994
     72  C         58.2630   74.4990   18.4260 C.2    70  THR70       0.2618
     73  O         58.1360   73.3540   17.9790 O.2    70  THR70      -0.2717
     74  CB        60.6780   74.9950   18.0670 C.3    70  THR70       0.1784
     75  OG1       60.9330   75.1230   19.4720 O.3    70  THR70      -0.2211
     76  CG2       61.6810   75.8320   17.2890 C.3    70  THR70       0.0376
     77  N         57.5750   74.9360   19.4740 N.am   71  ASN71      -0.1960
     78  CA        56.5840   74.0970   20.1340 C.3    71  ASN71       0.1804
     79  C         55.2840   74.1040   19.3390 C.2    71  ASN71       0.2463
     80  O         54.6580   75.1620   19.2060 O.2    71  ASN71      -0.2730
     81  CB        56.3360   74.5870   21.5540 C.3    71  ASN71       0.1195
     82  CG        55.0670   74.0190   22.1490 C.2    71  ASN71       0.2630
     83  OD1       54.9260   72.8080   22.2960 O.2    71  ASN71      -0.2716
     84  ND2       54.1360   74.8950   22.5010 N.am   71  ASN71      -0.0877
     85  N         54.8420   72.9640   18.8000 N.am   72  PRO72      -0.2716
     86  CA        53.6300   72.9480   17.9750 C.3    72  PRO72       0.1536
     87  C         52.3290   72.7720   18.7430 C.2    72  PRO72       0.2598
     88  O         51.2590   72.8500   18.1240 O.2    72  PRO72      -0.2715
     89  CB        53.8700   71.7470   17.0370 C.3    72  PRO72       0.0310
     90  CG        55.1690   71.0900   17.5080 C.3    72  PRO72       0.0237
     91  CD        55.4740   71.6400   18.8570 C.3    72  PRO72       0.0939
     92  N         52.3810   72.5380   20.0520 N.am   73  PHE73      -0.1974
     93  CA        51.1800   72.4040   20.8660 C.3    73  PHE73       0.1639
     94  C         50.6420   73.7430   21.3580 C.2    73  PHE73       0.2290
     95  O         49.5920   73.7700   22.0080 O.2    73  PHE73      -0.2864
     96  CB        51.4520   71.4940   22.0690 C.3    73  PHE73       0.0560
     97  CG        51.6940   70.0540   21.7060 C.ar   73  PHE73      -0.0200
     98  CD1       52.9750   69.5910   21.4570 C.ar   73  PHE73      -0.0042
     99  CD2       50.6390   69.1600   21.6260 C.ar   73  PHE73      -0.0042
    100  CE1       53.1980   68.2650   21.1290 C.ar   73  PHE73      -0.0003
    101  CE2       50.8540   67.8340   21.2980 C.ar   73  PHE73      -0.0003
    102  CZ        52.1350   67.3860   21.0490 C.ar   73  PHE73      -0.0000
    103  N         57.4520   61.7280   17.3540 N.3    90  GLN90      -0.1245
    104  CA        58.5350   61.7270   18.3230 C.3    90  GLN90       0.1566
    105  C         59.0550   60.3070   18.4930 C.2    90  GLN90       0.2260
    106  O         58.2940   59.3380   18.4220 O.2    90  GLN90      -0.2867
    107  CB        58.0740   62.2930   19.6760 C.3    90  GLN90       0.0367
    108  CG        57.4590   63.6840   19.5800 C.3    90  GLN90       0.0905
    109  CD        56.9250   64.1880   20.9050 C.2    90  GLN90       0.2608
    110  OE1       57.2290   63.6360   21.9630 O.2    90  GLN90      -0.2717
    111  NE2       56.1200   65.2440   20.8540 N.am   90  GLN90      -0.0878
    112  N         49.5010   62.0520   25.6870 N.3   100  VAL100     -0.1245
    113  CA        49.4650   63.4940   25.8890 C.3   100  VAL100      0.1561
    114  C         48.1230   63.8460   26.5140 C.2   100  VAL100      0.2260
    115  O         47.0690   63.5840   25.9220 O.2   100  VAL100     -0.2867
    116  CB        49.6770   64.2770   24.5820 C.3   100  VAL100      0.0252
    117  CG1       49.4250   65.7560   24.8130 C.3   100  VAL100      0.0019
    118  CG2       51.0870   64.0660   24.0670 C.3   100  VAL100      0.0019
@<TRIPOS>BOND
     1    89    90    1
     2    89    86    1
     3    76    74    1
     4   103   104    1
     5    90    91    1
     6    71    74    1
     7    71    70    1
     8    71    72    1
     9    86    87    1
    10    86    85    1
    11    73    72    2
    12    74    75    1
    13    88    87    2
    14   104   105    1
    15   104   107    1
    16   106   105    2
    17    72    77   am
    18    87    92   am
    19    85    91    1
    20    85    79   am
    21    80    79    2
    22    79    78    1
    23    77    78    1
    24   108   107    1
    25   108   109    1
    26    92    93    1
    27    78    81    1
    28    65    64    2
    29    64    63    1
    30   111   109   am
    31    93    94    1
    32    93    96    1
    33   109   110    2
    34   102   100   ar
    35   102   101   ar
    36   100    98   ar
    37    68    67   ar
    38   101    99   ar
    39    94    95    2
    40    98    97   ar
    41    81    82    1
    42    99    97   ar
    43    97    96    1
    44    67    69   ar
    45    67    66    1
    46    63    66    1
    47    63    62    1
    48    82    83    2
    49    82    84   am
    50   118   116    1
    51     8     7    2
    52    57    56    2
    53    33    34   ar
    54    33    31   ar
    55   116   117    1
    56   116   113    1
    57    44    43    1
    58     9     7   am
    59    34    32   ar
    60     7     6    1
    61    45    43    1
    62    24    22   ar
    63    31    30   ar
    64    43    42    2
    65    56    55    1
    66   112   113    1
    67   113   114    1
    68   115   114    2
    69    21    22    1
    70    21    18    1
    71    22    23   ar
    72    32    30   ar
    73    53    51   am
    74     6     5    1
    75    30    29    1
    76    42    41    1
    77    55    58    1
    78    55    54    1
    79    58    59    1
    80     5     2    1
    81    41    40    1
    82    18    17    1
    83    18    19    1
    84    51    52    2
    85    51    50    1
    86    25    19   am
    87    25    26    1
    88    60    59   ar
    89    29    26    1
    90    59    61   ar
    91    17    12   am
    92    19    20    2
    93     4     3    2
    94     2     3    1
    95     2     1    1
    96    40    39    1
    97    50    47    1
    98    26    27    1
    99     3    10   am
   100    12    13    2
   101    12    11    1
   102    27    28    2
   103    39    36    1
   104    10    11    1
   105    11    14    1
   106    38    37    2
   107    47    46    1
   108    47    48    1
   109    36    37    1
   110    36    35    1
   111    48    49    2
   112    14    16    1
   113    14    15    1
