@<TRIPOS>MOLECULE
tmp/6bfaA00.pdb
 169 159 0 0 0
SMALL
GASTEIGER

@<TRIPOS>ATOM
      1  N         -7.4680  -20.7190  -34.9480 N.3    14  LEU14      -0.1231
      2  CA        -7.4960  -21.2240  -33.5770 C.3    14  LEU14       0.1693
      3  C         -7.3590  -20.0890  -32.6130 C.2    14  LEU14       0.2593
      4  O         -8.0120  -20.0390  -31.5910 O.2    14  LEU14      -0.2718
      5  CB        -6.3800  -22.2370  -33.3570 C.3    14  LEU14       0.0284
      6  CG        -6.6790  -23.5740  -34.0270 C.3    14  LEU14       0.0019
      7  CD1       -5.4730  -24.4770  -33.9170 C.3    14  LEU14       0.0001
      8  CD2       -7.9370  -24.2340  -33.4510 C.3    14  LEU14       0.0001
      9  N         -6.4660  -19.1750  -32.9210 N.am   15  GLY15      -0.1942
     10  CA        -6.4370  -17.9110  -32.2110 C.3    15  GLY15       0.2014
     11  C         -5.2340  -17.1120  -32.6560 C.2    15  GLY15       0.2639
     12  O         -4.5640  -17.4080  -33.6450 O.2    15  GLY15      -0.2714
     13  N         -4.9790  -16.1050  -31.8590 N.am   16  LYS16      -0.1963
     14  CA        -3.9660  -15.1340  -32.1140 C.3    16  LYS16       0.1728
     15  C         -3.0330  -15.2240  -30.9300 C.2    16  LYS16       0.2616
     16  O         -3.4740  -15.0510  -29.7960 O.2    16  LYS16      -0.2715
     17  CB        -4.6310  -13.7660  -32.2240 C.3    16  LYS16       0.0311
     18  CG        -3.7340  -12.5870  -31.9370 C.3    16  LYS16       0.0038
     19  CD        -2.5300  -12.5140  -32.8660 C.3    16  LYS16       0.0206
     20  CE        -1.5040  -11.5600  -32.2870 C.3    16  LYS16       0.1093
     21  NZ        -0.1710  -11.7130  -32.9120 N.3    16  LYS16      -0.1314
     22  N         -1.7600  -15.5100  -31.2010 N.am   17  GLY17      -0.1955
     23  CA        -0.7650  -15.7090  -30.1650 C.3    17  GLY17       0.1869
     24  C          0.3800  -14.7320  -30.3100 C.2    17  GLY17       0.2309
     25  O          0.3280  -13.7740  -31.0830 O.2    17  GLY17      -0.2863
     26  N         -2.4500  -18.4460  -35.0950 N.3    22  VAL22      -0.1245
     27  CA        -2.3600  -19.8740  -35.1490 C.3    22  VAL22       0.1561
     28  C         -3.5900  -20.3440  -35.8680 C.2    22  VAL22       0.2260
     29  O         -4.7080  -19.9880  -35.4850 O.2    22  VAL22      -0.2867
     30  CB        -2.3320  -20.4800  -33.7560 C.3    22  VAL22       0.0252
     31  CG1       -2.1870  -21.9870  -33.8390 C.3    22  VAL22       0.0019
     32  CG2       -1.1790  -19.8820  -32.9720 C.3    22  VAL22       0.0019
     33  N         -1.6180  -27.4680  -35.8390 N.3    35  ALA35      -0.1245
     34  CA        -1.7490  -26.0790  -35.4410 C.3    35  ALA35       0.1562
     35  C         -0.5300  -25.3420  -35.9950 C.2    35  ALA35       0.2260
     36  O          0.6060  -25.6390  -35.6240 O.2    35  ALA35      -0.2867
     37  CB        -1.8280  -25.9630  -33.9270 C.3    35  ALA35       0.0290
     38  N          1.5220  -21.9000  -36.5100 N.3    37  LYS37      -0.1245
     39  CA         1.7170  -20.5090  -36.1390 C.3    37  LYS37       0.1561
     40  C          2.2930  -19.7930  -37.3480 C.2    37  LYS37       0.2260
     41  O          3.3350  -20.1650  -37.8440 O.2    37  LYS37      -0.2867
     42  CB         2.6200  -20.3710  -34.9220 C.3    37  LYS37       0.0271
     43  CG         2.9480  -18.9270  -34.6280 C.3    37  LYS37       0.0035
     44  CD         3.3160  -18.6770  -33.1700 C.3    37  LYS37       0.0206
     45  CE         2.0780  -18.6490  -32.2810 C.3    37  LYS37       0.1093
     46  NZ         2.3620  -18.2860  -30.8760 N.3    37  LYS37      -0.1314
     47  N         14.7640  -28.1800  -32.4140 N.3    60  LEU60      -0.1245
     48  CA        13.3890  -28.2580  -31.8880 C.3    60  LEU60       0.1561
     49  C         12.5710  -29.4350  -32.4270 C.2    60  LEU60       0.2260
     50  O         11.8630  -30.0980  -31.7070 O.2    60  LEU60      -0.2867
     51  CB        12.6630  -26.9360  -32.1650 C.3    60  LEU60       0.0270
     52  CG        13.0900  -25.8020  -31.2350 C.3    60  LEU60       0.0019
     53  CD1       12.6170  -24.4300  -31.6870 C.3    60  LEU60       0.0001
     54  CD2       12.5260  -26.0580  -29.8610 C.3    60  LEU60       0.0001
     55  N          5.1330  -28.4170  -26.4890 N.3    69  MET69      -0.1245
     56  CA         4.4740  -28.5270  -27.7790 C.3    69  MET69       0.1570
     57  C          5.4260  -29.1130  -28.7940 C.2    69  MET69       0.2261
     58  O          6.5490  -28.7020  -28.8820 O.2    69  MET69      -0.2867
     59  CB         3.9740  -27.2140  -28.3140 C.3    69  MET69       0.0387
     60  CG         3.2590  -27.4040  -29.6670 C.3    69  MET69       0.0595
     61  SD         2.9140  -25.9320  -30.6310 S.3    69  MET69      -0.1393
     62  CE         4.3400  -25.8690  -31.6720 C.3    69  MET69       0.0692
     63  N          6.9120  -29.6340  -32.3320 N.3    71  LEU71      -0.1245
     64  CA         7.0830  -29.0010  -33.6290 C.3    71  LEU71       0.1561
     65  C          7.3850  -30.0620  -34.6890 C.2    71  LEU71       0.2260
     66  O          8.2800  -30.8730  -34.5400 O.2    71  LEU71      -0.2867
     67  CB         8.2250  -27.9860  -33.5780 C.3    71  LEU71       0.0270
     68  CG         8.4660  -27.1780  -34.8790 C.3    71  LEU71       0.0019
     69  CD1        7.3510  -26.1550  -35.1580 C.3    71  LEU71       0.0001
     70  CD2        9.8280  -26.4860  -34.8840 C.3    71  LEU71       0.0001
     71  N          5.1340  -22.2740  -38.6540 N.3    83  LEU83      -0.1231
     72  CA         5.5990  -23.2590  -37.6960 C.3    83  LEU83       0.1693
     73  C          4.4910  -24.2490  -37.4640 C.2    83  LEU83       0.2592
     74  O          3.4190  -23.8920  -36.9560 O.2    83  LEU83      -0.2718
     75  CB         5.9570  -22.6120  -36.3760 C.3    83  LEU83       0.0284
     76  CG         6.6240  -21.2490  -36.3930 C.3    83  LEU83       0.0019
     77  CD1        7.1040  -20.9850  -34.9720 C.3    83  LEU83       0.0001
     78  CD2        7.7820  -21.1360  -37.3730 C.3    83  LEU83       0.0001
     79  N          4.7410  -25.5010  -37.8120 N.am   84  VAL84      -0.1966
     80  CA         3.6850  -26.4840  -37.8120 C.3    84  VAL84       0.1727
     81  C          3.8600  -27.4220  -36.6550 C.2    84  VAL84       0.2617
     82  O          4.8720  -28.1360  -36.5740 O.2    84  VAL84      -0.2715
     83  CB         3.6820  -27.3080  -39.0960 C.3    84  VAL84       0.0290
     84  CG1        2.5050  -28.2840  -39.0770 C.3    84  VAL84       0.0023
     85  CG2        3.6330  -26.3840  -40.2950 C.3    84  VAL84       0.0023
     86  N          2.8570  -27.4400  -35.7900 N.am   85  GLY85      -0.1940
     87  CA         2.9310  -28.2070  -34.5780 C.3    85  GLY85       0.2014
     88  C          1.6680  -28.9830  -34.3330 C.2    85  GLY85       0.2639
     89  O          0.6970  -28.9120  -35.0830 O.2    85  GLY85      -0.2714
     90  N          1.6940  -29.7330  -33.2480 N.am   86  GLU86      -0.1963
     91  CA         0.6020  -30.5720  -32.8880 C.3    86  GLU86       0.1733
     92  C         -0.5340  -29.6770  -32.4060 C.2    86  GLU86       0.2616
     93  O         -0.2600  -28.6400  -31.7960 O.2    86  GLU86      -0.2715
     94  CB         1.0890  -31.4640  -31.7620 C.3    86  GLU86       0.0429
     95  CG         0.2190  -32.6850  -31.5220 C.3    86  GLU86       0.1163
     96  CD         0.6840  -33.5010  -30.3400 C.2    86  GLU86       0.3649
     97  OE1        1.7820  -33.2170  -29.7660 O.co2  86  GLU86      -0.2457
     98  OE2       -0.0970  -34.4040  -29.9670 O.co2  86  GLU86      -0.2457
     99  N         -1.7830  -30.0660  -32.6340 N.am   87  VAL87      -0.1963
    100  CA        -2.9070  -29.2770  -32.1210 C.3    87  VAL87       0.1727
    101  C         -3.3880  -29.8530  -30.8100 C.2    87  VAL87       0.2616
    102  O         -3.5190  -31.0550  -30.6760 O.2    87  VAL87      -0.2715
    103  CB        -4.0730  -29.1490  -33.1280 C.3    87  VAL87       0.0290
    104  CG1       -4.4120  -30.4680  -33.7810 C.3    87  VAL87       0.0023
    105  CG2       -5.3440  -28.5870  -32.4750 C.3    87  VAL87       0.0023
    106  N         -3.6370  -28.9740  -29.8460 N.am   88  TYR88      -0.1974
    107  CA        -4.2080  -29.3340  -28.5410 C.3    88  TYR88       0.1639
    108  C         -5.5260  -28.5870  -28.3080 C.2    88  TYR88       0.2290
    109  O         -5.6890  -27.4210  -28.6660 O.2    88  TYR88      -0.2864
    110  CB        -3.2040  -29.0310  -27.4270 C.3    88  TYR88       0.0560
    111  CG        -1.7940  -29.5430  -27.7190 C.ar   88  TYR88      -0.0198
    112  CD1       -1.5090  -30.9110  -27.7280 C.ar   88  TYR88      -0.0009
    113  CD2       -0.7390  -28.6660  -27.9780 C.ar   88  TYR88      -0.0009
    114  CE1       -0.2130  -31.3830  -27.9820 C.ar   88  TYR88       0.0417
    115  CE2        0.5580  -29.1320  -28.2330 C.ar   88  TYR88       0.0417
    116  CZ         0.8240  -30.4930  -28.2460 C.ar   88  TYR88       0.1957
    117  OH         2.0980  -30.9780  -28.5140 O.3    88  TYR88      -0.2866
    118  N         -6.5460  -22.9180  -22.6840 N.3    92  GLU92      -0.1245
    119  CA        -5.5580  -22.4040  -21.7540 C.3    92  GLU92       0.1567
    120  C         -5.8600  -22.8870  -20.3410 C.2    92  GLU92       0.2260
    121  O         -7.0140  -22.9840  -19.9120 O.2    92  GLU92      -0.2867
    122  CB        -5.4740  -20.8900  -21.8320 C.3    92  GLU92       0.0388
    123  CG        -5.0070  -20.4230  -23.1960 C.3    92  GLU92       0.1160
    124  CD        -5.2310  -18.9470  -23.4640 C.2    92  GLU92       0.3649
    125  OE1       -5.3580  -18.1530  -22.4960 O.co2  92  GLU92      -0.2457
    126  OE2       -5.2680  -18.5790  -24.6660 O.co2  92  GLU92      -0.2457
    127  N         -1.0720  -24.7100  -22.3950 N.3   138  LEU138     -0.1245
    128  CA        -2.2790  -25.3070  -22.9610 C.3   138  LEU138      0.1561
    129  C         -2.5170  -26.6570  -22.3530 C.2   138  LEU138      0.2260
    130  O         -1.5890  -27.2890  -21.9000 O.2   138  LEU138     -0.2867
    131  CB        -2.1290  -25.4830  -24.4820 C.3   138  LEU138      0.0270
    132  CG        -2.0170  -24.2120  -25.3240 C.3   138  LEU138      0.0019
    133  CD1       -2.1330  -24.6180  -26.7840 C.3   138  LEU138      0.0001
    134  CD2       -3.0890  -23.1980  -24.9190 C.3   138  LEU138      0.0001
    135  N          3.7250  -23.8380  -24.9040 N.3   151  ILE151     -0.1231
    136  CA         3.9020  -23.3910  -26.2740 C.3   151  ILE151      0.1692
    137  C          4.9220  -22.2830  -26.3280 C.2   151  ILE151      0.2592
    138  O          5.1160  -21.5730  -25.3530 O.2   151  ILE151     -0.2718
    139  CB         2.5680  -22.9430  -26.9210 C.3   151  ILE151      0.0266
    140  CG1        1.9530  -21.7790  -26.1740 C.3   151  ILE151      0.0019
    141  CG2        1.6020  -24.1090  -26.9410 C.3   151  ILE151      0.0020
    142  CD1        0.7690  -21.1400  -26.8480 C.3   151  ILE151      0.0001
    143  N          5.5560  -22.1650  -27.4780 N.am  152  ASP152     -0.1960
    144  CA         6.4310  -21.0390  -27.8220 C.3   152  ASP152      0.1840
    145  C          7.8250  -21.0860  -27.2200 C.2   152  ASP152      0.2622
    146  O          8.5540  -20.0990  -27.2450 O.2   152  ASP152     -0.2715
    147  CB         5.7820  -19.6730  -27.4960 C.3   152  ASP152      0.1450
    148  CG         4.7050  -19.2790  -28.4680 C.2   152  ASP152      0.3671
    149  OD1        4.4350  -20.0190  -29.4390 O.co2 152  ASP152     -0.2456
    150  OD2        4.1660  -18.1710  -28.2420 O.co2 152  ASP152     -0.2456
    151  N          8.2190  -22.2640  -26.7820 N.am  153  PHE153     -0.1974
    152  CA         9.5550  -22.4480  -26.2660 C.3   153  PHE153      0.1639
    153  C         10.5200  -22.1660  -27.4020 C.2   153  PHE153      0.2290
    154  O         10.3970  -22.7450  -28.4610 O.2   153  PHE153     -0.2864
    155  CB         9.7460  -23.8530  -25.6810 C.3   153  PHE153      0.0560
    156  CG        10.2450  -23.8370  -24.2630 C.ar  153  PHE153     -0.0200
    157  CD1       11.5410  -23.4250  -23.9910 C.ar  153  PHE153     -0.0042
    158  CD2        9.4240  -24.2070  -23.1870 C.ar  153  PHE153     -0.0042
    159  CE1       12.0350  -23.4060  -22.6680 C.ar  153  PHE153     -0.0003
    160  CE2        9.9200  -24.1990  -21.8720 C.ar  153  PHE153     -0.0003
    161  CZ        11.2290  -23.8020  -21.6120 C.ar  153  PHE153     -0.0000
    162  N         11.0200  -19.3360  -29.3070 N.3   155  LEU155     -0.1245
    163  CA        10.7840  -18.3100  -30.3380 C.3   155  LEU155      0.1561
    164  C         11.3100  -16.9390  -29.9770 C.2   155  LEU155      0.2260
    165  O         11.7380  -16.1880  -30.8310 O.2   155  LEU155     -0.2867
    166  CB         9.2990  -18.1980  -30.6660 C.3   155  LEU155      0.0270
    167  CG         8.6500  -19.4890  -31.1440 C.3   155  LEU155      0.0019
    168  CD1        7.2250  -19.2420  -31.6370 C.3   155  LEU155      0.0001
    169  CD2        9.4940  -20.1170  -32.2510 C.3   155  LEU155      0.0001
@<TRIPOS>BOND
     1    85    83    1
     2    83    84    1
     3    83    80    1
     4    71    72    1
     5    41    40    2
     6    80    79    1
     7    80    81    1
     8    79    73   am
     9    72    73    1
    10    72    75    1
    11    73    74    2
    12    78    76    1
    13    40    39    1
    14    81    82    2
    15    81    86   am
    16    38    39    1
    17    76    75    1
    18    76    77    1
    19    39    42    1
    20    35    36    2
    21    35    34    1
    22    28    29    2
    23    28    27    1
    24    33    34    1
    25    86    87    1
    26    34    37    1
    27    69    68    1
    28    27    26    1
    29    27    30    1
    30    89    88    2
    31     1     2    1
    32    42    43    1
    33    70    68    1
    34    68    67    1
    35    65    66    2
    36    65    64    1
    37    43    44    1
    38    87    88    1
    39    88    90   am
    40     6     7    1
    41     6     8    1
    42     6     5    1
    43    31    30    1
    44   104   103    1
    45    30    32    1
    46    12    11    2
    47    64    67    1
    48    64    63    1
    49     2     5    1
    50     2     3    1
    51    90    91    1
    52    44    45    1
    53   103   105    1
    54   103   100    1
    55     9     3   am
    56     9    10    1
    57    21    20    1
    58    91    92    1
    59    91    94    1
    60    19    20    1
    61    19    18    1
    62    11    10    1
    63    11    13   am
    64    99    92   am
    65    99   100    1
    66     3     4    2
    67    49    48    1
    68    49    50    2
    69    47    48    1
    70    92    93    2
    71    45    46    1
    72   169   167    1
    73    17    14    1
    74    17    18    1
    75    51    48    1
    76    51    52    1
    77   100   101    1
    78    14    13    1
    79    14    15    1
    80    94    95    1
    81    53    52    1
    82    62    61    1
    83   168   167    1
    84    95    96    1
    85    52    54    1
    86    22    15   am
    87    22    23    1
    88   167   166    1
    89    25    24    2
    90    15    16    2
    91   165   164    2
    92   101   102    2
    93   101   106   am
    94   166   163    1
    95    61    60    1
    96    96    98   ar
    97    96    97   ar
    98   163   164    1
    99   163   162    1
   100    24    23    1
   101   106   107    1
   102    60    59    1
   103   149   148   ar
   104    58    57    2
   105    57    56    1
   106   109   108    2
   107   107   108    1
   108   107   110    1
   109   117   116    1
   110   148   150   ar
   111   148   147    1
   112   154   153    2
   113    59    56    1
   114   116   115   ar
   115   116   114   ar
   116   115   113   ar
   117   114   112   ar
   118   113   111   ar
   119   144   147    1
   120   144   143    1
   121   144   145    1
   122    56    55    1
   123   112   111   ar
   124   111   110    1
   125   143   137   am
   126   153   152    1
   127   146   145    2
   128   145   151   am
   129   141   139    1
   130   139   136    1
   131   139   140    1
   132   142   140    1
   133   133   132    1
   134   151   152    1
   135   137   136    1
   136   137   138    2
   137   136   135    1
   138   152   155    1
   139   155   156    1
   140   132   134    1
   141   132   131    1
   142   126   124   ar
   143   131   128    1
   144   156   157   ar
   145   156   158   ar
   146   157   159   ar
   147   124   123    1
   148   124   125   ar
   149   123   122    1
   150   158   160   ar
   151   128   127    1
   152   128   129    1
   153   118   119    1
   154   159   161   ar
   155   129   130    2
   156   160   161   ar
   157   122   119    1
   158   119   120    1
   159   120   121    2
