@<TRIPOS>MOLECULE
tmp/6bfdA00.pdb
 219 209 0 0 0
SMALL
GASTEIGER

@<TRIPOS>ATOM
      1  N         35.7660   52.4060   89.4540 N.3    18  SER18      -0.1202
      2  CA        34.7180   53.1010   90.2100 C.3    18  SER18       0.2020
      3  C         34.1500   54.3460   89.5360 C.2    18  SER18       0.2619
      4  O         32.9430   54.5820   89.6840 O.2    18  SER18      -0.2717
      5  CB        35.2210   53.5070   91.6030 C.3    18  SER18       0.2103
      6  OG        36.3490   54.3570   91.4740 O.3    18  SER18      -0.2182
      7  N         35.0060   55.1060   88.8130 N.am   19  GLY19      -0.1942
      8  CA        34.5710   56.3670   88.2130 C.3    19  GLY19       0.2014
      9  C         33.6310   56.2130   87.0240 C.2    19  GLY19       0.2639
     10  O         32.8570   57.1310   86.7320 O.2    19  GLY19      -0.2714
     11  N         33.7040   55.0690   86.3200 N.am   20  GLN20      -0.1963
     12  CA        32.9080   54.8620   85.0910 C.3    20  GLN20       0.1733
     13  C         31.9930   53.6430   85.1240 C.2    20  GLN20       0.2617
     14  O         31.1130   53.5360   84.2640 O.2    20  GLN20      -0.2715
     15  CB        33.8310   54.8190   83.8730 C.3    20  GLN20       0.0408
     16  CG        34.4670   56.1870   83.6040 C.3    20  GLN20       0.0908
     17  CD        35.2850   56.2210   82.3330 C.2    20  GLN20       0.2608
     18  OE1       35.6940   55.1940   81.7860 O.2    20  GLN20      -0.2717
     19  NE2       35.5440   57.4130   81.8530 N.am   20  GLN20      -0.0878
     20  N         32.1940   52.7640   86.1000 N.am   21  GLY21      -0.1940
     21  CA        31.3170   51.6230   86.2880 C.3    21  GLY21       0.2014
     22  C         31.9830   50.2900   86.0530 C.2    21  GLY21       0.2638
     23  O         32.9560   50.1800   85.2730 O.2    21  GLY21      -0.2714
     24  N         31.4490   49.2730   86.7470 N.am   22  TYR22      -0.1973
     25  CA        31.9280   47.8860   86.5890 C.3    22  TYR22       0.1639
     26  C         30.8830   47.1710   85.7580 C.2    22  TYR22       0.2290
     27  O         29.6840   47.3480   86.0100 O.2    22  TYR22      -0.2864
     28  CB        32.0380   47.2180   87.9610 C.3    22  TYR22       0.0560
     29  CG        33.2620   47.7000   88.7120 C.ar   22  TYR22      -0.0198
     30  CD1       34.5060   47.1160   88.4930 C.ar   22  TYR22      -0.0009
     31  CD2       33.1840   48.7770   89.6050 C.ar   22  TYR22      -0.0009
     32  CE1       35.6590   47.5940   89.1260 C.ar   22  TYR22       0.0417
     33  CE2       34.3320   49.2340   90.2840 C.ar   22  TYR22       0.0417
     34  CZ        35.5570   48.6170   90.0450 C.ar   22  TYR22       0.1957
     35  OH        36.7370   48.9840   90.6580 O.3    22  TYR22      -0.2866
     36  N         26.6630   47.4610   82.6320 N.3    38  LEU38      -0.1245
     37  CA        27.0210   47.9870   83.9510 C.3    38  LEU38       0.1561
     38  C         26.2020   47.2820   85.0390 C.2    38  LEU38       0.2260
     39  O         24.9790   47.1650   84.9270 O.2    38  LEU38      -0.2867
     40  CB        26.7470   49.4960   83.9780 C.3    38  LEU38       0.0270
     41  CG        27.2150   50.2190   85.2670 C.3    38  LEU38       0.0019
     42  CD1       27.7760   51.6420   84.9810 C.3    38  LEU38       0.0001
     43  CD2       26.0750   50.3320   86.2820 C.3    38  LEU38       0.0001
     44  N         24.4040   47.3670   88.4510 N.3    40  ASP40      -0.1239
     45  CA        23.8920   48.4150   89.3160 C.3    40  ASP40       0.1674
     46  C         22.9490   47.8760   90.3950 C.2    40  ASP40       0.2266
     47  O         21.7590   47.6280   90.1300 O.2    40  ASP40      -0.2867
     48  CB        23.1310   49.4360   88.4390 C.3    40  ASP40       0.1410
     49  CG        22.5970   50.6110   89.2290 C.2    40  ASP40       0.3668
     50  OD1       23.0860   50.8320   90.3760 O.co2  40  ASP40      -0.2456
     51  OD2       21.7600   51.3650   88.6710 O.co2  40  ASP40      -0.2456
     52  N         21.7540   49.6590   92.5840 N.3    42  GLY42      -0.1210
     53  CA        20.9410   50.8160   92.9840 C.3    42  GLY42       0.1956
     54  C         19.7920   51.1470   92.0530 C.2    42  GLY42       0.2612
     55  O         19.2540   52.2620   92.1070 O.2    42  GLY42      -0.2717
     56  N         19.4220   50.2130   91.1590 N.am   43  SER43      -0.1952
     57  CA        18.2480   50.4290   90.2890 C.3    43  SER43       0.1924
     58  C         17.7230   49.0720   89.8990 C.2    43  SER43       0.2314
     59  O         18.3310   48.0650   90.2840 O.2    43  SER43      -0.2863
     60  CB        18.5480   51.2970   89.0710 C.3    43  SER43       0.2116
     61  OG        19.3320   50.5540   88.1570 O.3    43  SER43      -0.2180
     62  N         18.1990   59.1030   86.8830 N.3    79  TYR79      -0.1227
     63  CA        19.1590   58.6880   87.9020 C.3    79  TYR79       0.1736
     64  C         19.7110   59.9380   88.5880 C.2    79  TYR79       0.2596
     65  O         19.1810   61.0200   88.3640 O.2    79  TYR79      -0.2718
     66  CB        20.2920   57.8690   87.2630 C.3    79  TYR79       0.0548
     67  CG        19.8400   56.6260   86.5310 C.ar   79  TYR79      -0.0200
     68  CD1       19.6400   55.4260   87.2090 C.ar   79  TYR79      -0.0009
     69  CD2       19.7710   56.6020   85.1410 C.ar   79  TYR79      -0.0009
     70  CE1       19.3070   54.2510   86.5260 C.ar   79  TYR79       0.0417
     71  CE2       19.4110   55.4400   84.4520 C.ar   79  TYR79       0.0417
     72  CZ        19.2380   54.2550   85.1410 C.ar   79  TYR79       0.1957
     73  OH        18.8950   53.1100   84.4480 O.3    79  TYR79      -0.2866
     74  N         20.7660   59.8080   89.4010 N.am   80  THR80      -0.1939
     75  CA        21.3230   61.0010   90.0430 C.3    80  THR80       0.2028
     76  C         21.9800   61.8330   88.9470 C.2    80  THR80       0.2642
     77  O         21.8080   63.0460   88.9200 O.2    80  THR80      -0.2714
     78  CB        22.4110   60.6060   91.0330 C.3    80  THR80       0.1808
     79  OG1       21.9030   59.5720   91.8560 O.3    80  THR80      -0.2208
     80  CG2       22.8960   61.8190   91.8850 C.3    80  THR80       0.0379
     81  N         22.7850   61.1510   88.1070 N.am   81  GLN81      -0.1976
     82  CA        23.4440   61.6750   86.9370 C.3    81  GLN81       0.1601
     83  C         22.8850   60.8570   85.7880 C.2    81  GLN81       0.2287
     84  O         22.8730   59.6150   85.8260 O.2    81  GLN81      -0.2864
     85  CB        24.9900   61.6000   87.0080 C.3    81  GLN81       0.0394
     86  CG        25.6310   60.2250   86.8320 C.3    81  GLN81       0.0908
     87  CD        27.1280   60.3040   86.7190 C.2    81  GLN81       0.2608
     88  OE1       27.7390   59.8060   85.7650 O.2    81  GLN81      -0.2717
     89  NE2       27.7530   60.8950   87.7210 N.am   81  GLN81      -0.0878
     90  N         23.9480   59.9360   80.2220 N.3   116  PHE116     -0.1241
     91  CA        23.8810   58.5680   80.7440 C.3   116  PHE116      0.1605
     92  C         25.1200   57.7720   80.2930 C.2   116  PHE116      0.2264
     93  O         25.9550   57.3790   81.1200 O.2   116  PHE116     -0.2867
     94  CB        22.5550   57.9060   80.2970 C.3   116  PHE116      0.0534
     95  CG        22.4580   56.4800   80.7820 C.ar  116  PHE116     -0.0203
     96  CD1       22.3800   56.1940   82.1480 C.ar  116  PHE116     -0.0042
     97  CD2       22.4750   55.4210   79.8780 C.ar  116  PHE116     -0.0042
     98  CE1       22.3410   54.8700   82.5990 C.ar  116  PHE116     -0.0003
     99  CE2       22.4130   54.0950   80.3280 C.ar  116  PHE116     -0.0003
    100  CZ        22.3650   53.8280   81.6820 C.ar  116  PHE116     -0.0000
    101  N         28.7390   56.9880   78.8600 N.3   118  ILE118     -0.1245
    102  CA        30.0280   57.6210   79.1710 C.3   118  ILE118      0.1561
    103  C         31.0230   57.2780   78.0900 C.2   118  ILE118      0.2260
    104  O         31.2570   56.1070   77.7920 O.2   118  ILE118     -0.2867
    105  CB        30.5370   57.1860   80.5760 C.3   118  ILE118      0.0252
    106  CG1       29.5400   57.6450   81.6480 C.3   118  ILE118      0.0019
    107  CG2       31.9560   57.7550   80.8360 C.3   118  ILE118      0.0019
    108  CD1       29.7840   57.0020   83.1040 C.3   118  ILE118      0.0001
    109  N         30.8450   50.1860   78.2600 N.3   123  TRP123     -0.1241
    110  CA        29.5590   49.5390   78.5160 C.3   123  TRP123      0.1605
    111  C         28.4570   50.1900   77.6730 C.2   123  TRP123      0.2264
    112  O         28.5240   51.3740   77.3450 O.2   123  TRP123     -0.2867
    113  CB        29.1540   49.4320   79.9990 C.3   123  TRP123      0.0550
    114  CG        29.1710   50.7320   80.7280 C.ar  123  TRP123      0.0003
    115  CD1       30.1710   51.1840   81.5520 C.ar  123  TRP123      0.0946
    116  CD2       28.1080   51.6880   80.8250 C.ar  123  TRP123      0.0152
    117  NE1       29.8100   52.3820   82.1090 N.ar  123  TRP123     -0.2442
    118  CE2       28.5590   52.7310   81.6660 C.ar  123  TRP123      0.0810
    119  CE3       26.8110   51.7750   80.2810 C.ar  123  TRP123      0.0012
    120  CZ2       27.7640   53.8560   81.9670 C.ar  123  TRP123      0.0191
    121  CZ3       26.0100   52.8650   80.6110 C.ar  123  TRP123      0.0001
    122  CH2       26.4950   53.9070   81.4210 C.ar  123  TRP123      0.0015
    123  N         22.7120   48.7340   81.2070 N.3   126  ILE126     -0.1245
    124  CA        22.7280   48.6970   82.6800 C.3   126  ILE126      0.1561
    125  C         21.8490   47.5740   83.1680 C.2   126  ILE126      0.2260
    126  O         20.7730   47.3480   82.5960 O.2   126  ILE126     -0.2867
    127  CB        22.2780   50.0810   83.2350 C.3   126  ILE126      0.0252
    128  CG1       22.3760   50.1590   84.7680 C.3   126  ILE126      0.0019
    129  CG2       20.8390   50.4930   82.7460 C.3   126  ILE126      0.0019
    130  CD1       22.4200   51.6760   85.2530 C.3   126  ILE126      0.0001
    131  N         15.3220   49.3650   97.3030 N.3   206  TYR206     -0.1241
    132  CA        16.7750   49.4350   97.1390 C.3   206  TYR206      0.1605
    133  C         17.2920   48.3590   98.1050 C.2   206  TYR206      0.2264
    134  O         16.5110   47.7650   98.8620 O.2   206  TYR206     -0.2867
    135  CB        17.2970   50.7830   97.6570 C.3   206  TYR206      0.0534
    136  CG        16.9250   51.9190   96.7590 C.ar  206  TYR206     -0.0201
    137  CD1       17.6610   52.1900   95.6050 C.ar  206  TYR206     -0.0009
    138  CD2       15.8220   52.7180   97.0390 C.ar  206  TYR206     -0.0009
    139  CE1       17.2680   53.1820   94.7150 C.ar  206  TYR206      0.0417
    140  CE2       15.4530   53.7530   96.1840 C.ar  206  TYR206      0.0417
    141  CZ        16.1730   53.9710   95.0150 C.ar  206  TYR206      0.1957
    142  OH        15.8320   54.9880   94.1550 O.3   206  TYR206     -0.2866
    143  N         21.6600   52.9390  101.4610 N.3   234  ILE234     -0.1245
    144  CA        21.5880   51.8160  100.4980 C.3   234  ILE234      0.1561
    145  C         22.9780   51.3960  100.0680 C.2   234  ILE234      0.2260
    146  O         23.9390   52.1800  100.1740 O.2   234  ILE234     -0.2867
    147  CB        20.7350   52.2190   99.2500 C.3   234  ILE234      0.0252
    148  CG1       21.4430   53.3290   98.4080 C.3   234  ILE234      0.0019
    149  CG2       19.3410   52.7190   99.6750 C.3   234  ILE234      0.0019
    150  CD1       20.7730   53.5890   97.0070 C.3   234  ILE234      0.0001
    151  N         25.0420   50.4740   96.8110 N.3   236  ASP236     -0.1225
    152  CA        24.8330   50.8220   95.4120 C.3   236  ASP236      0.1805
    153  C         26.0830   50.7190   94.5440 C.2   236  ASP236      0.2598
    154  O         26.8780   51.6640   94.4620 O.2   236  ASP236     -0.2718
    155  CB        24.3180   52.2690   95.3830 C.3   236  ASP236      0.1424
    156  CG        23.8300   52.7520   94.0330 C.2   236  ASP236      0.3668
    157  OD1       23.9910   51.9960   93.0240 O.co2 236  ASP236     -0.2456
    158  OD2       23.2910   53.8810   93.9770 O.co2 236  ASP236     -0.2456
    159  N         26.2200   49.5980   93.8020 N.am  237  SER237     -0.1938
    160  CA        27.3780   49.4320   92.9160 C.3   237  SER237      0.2055
    161  C         27.3860   50.3890   91.7210 C.2   237  SER237      0.2644
    162  O         28.4120   50.5150   91.0470 O.2   237  SER237     -0.2714
    163  CB        27.4580   47.9850   92.4150 C.3   237  SER237      0.2130
    164  OG        26.3180   47.6650   91.6170 O.3   237  SER237     -0.2179
    165  N         26.2350   51.0100   91.4320 N.am  238  GLY238     -0.1939
    166  CA        26.0940   51.9140   90.2980 C.3   238  GLY238      0.2014
    167  C         26.3610   53.3790   90.5900 C.2   238  GLY238      0.2640
    168  O         26.1760   54.2200   89.7050 O.2   238  GLY238     -0.2714
    169  N         26.8520   53.6790   91.8200 N.am  239  THR239     -0.1936
    170  CA        27.1950   55.0590   92.2040 C.3   239  THR239      0.2028
    171  C         28.6870   55.0270   92.5520 C.2   239  THR239      0.2643
    172  O         29.1410   54.0960   93.2270 O.2   239  THR239     -0.2714
    173  CB        26.3700   55.4710   93.4350 C.3   239  THR239      0.1808
    174  OG1       25.0250   55.7620   93.0190 O.3   239  THR239     -0.2208
    175  CG2       26.9310   56.7200   94.1020 C.3   239  THR239      0.0379
    176  N         29.4520   56.0330   92.1050 N.am  240  THR240     -0.1936
    177  CA        30.8950   56.0120   92.3880 C.3   240  THR240      0.2028
    178  C         31.2320   56.2230   93.8460 C.2   240  THR240      0.2642
    179  O         31.9930   55.4620   94.4300 O.2   240  THR240     -0.2714
    180  CB        31.6110   57.1240   91.5460 C.3   240  THR240      0.1808
    181  OG1       31.4950   56.8370   90.1550 O.3   240  THR240     -0.2208
    182  CG2       33.1070   57.2730   91.9020 C.3   240  THR240      0.0379
    183  N         30.7110   57.3140   94.4190 N.am  241  ASN241     -0.1971
    184  CA        31.1320   57.7650   95.7320 C.3   241  ASN241      0.1688
    185  C         30.4500   57.1450   96.9150 C.2   241  ASN241      0.2292
    186  O         29.3720   56.5330   96.8020 O.2   241  ASN241     -0.2864
    187  CB        30.8660   59.2730   95.7900 C.3   241  ASN241      0.1181
    188  CG        31.8170   60.1110   94.9530 C.2   241  ASN241      0.2629
    189  OD1       32.7710   59.6120   94.3280 O.2   241  ASN241     -0.2716
    190  ND2       31.5820   61.4270   94.9480 N.am  241  ASN241     -0.0877
    191  N         28.2480   58.5030   99.4170 N.3   243  ARG243     -0.1245
    192  CA        27.4320   59.7430   99.5120 C.3   243  ARG243      0.1563
    193  C         26.7860   59.8010  100.8630 C.2   243  ARG243      0.2260
    194  O         26.3020   58.7740  101.3730 O.2   243  ARG243     -0.2867
    195  CB        26.3730   59.8090   98.3840 C.3   243  ARG243      0.0307
    196  CG        27.0200   59.5930   97.0140 C.3   243  ARG243      0.0489
    197  CD        26.0500   59.8140   95.8930 C.3   243  ARG243      0.2205
    198  NE        25.6290   61.2140   95.8620 N.pl3 243  ARG243     -0.0865
    199  CZ        24.3850   61.5880   95.6240 C.cat 243  ARG243      0.5346
    200  NH1       23.4500   60.6800   95.3760 N.pl3 243  ARG243      0.1354
    201  NH2       24.0580   62.8730   95.6470 N.pl3 243  ARG243      0.1354
    202  N         30.8970   62.4430   99.0530 N.3   333  SER333     -0.1217
    203  CA        30.1760   63.6460   98.6080 C.3   333  SER333      0.1889
    204  C         28.8030   63.7270   99.2670 C.2   333  SER333      0.2288
    205  O         28.3920   62.8080   99.9650 O.2   333  SER333     -0.2866
    206  CB        30.0930   63.6840   97.0890 C.3   333  SER333      0.2089
    207  OG        29.4390   62.5160   96.6320 O.3   333  SER333     -0.2183
    208  N         24.6690   56.6390  100.4780 N.3   340  VAL340     -0.1245
    209  CA        24.8610   55.6990   99.3590 C.3   340  VAL340      0.1561
    210  C         26.2210   55.0800   99.5350 C.2   340  VAL340      0.2260
    211  O         27.2360   55.7870   99.4630 O.2   340  VAL340     -0.2867
    212  CB        24.7540   56.3690   97.9840 C.3   340  VAL340      0.0252
    213  CG1       24.8940   55.3270   96.8790 C.3   340  VAL340      0.0019
    214  CG2       23.4530   57.1470   97.8600 C.3   340  VAL340      0.0019
    215  N         30.5590   52.4490   94.8700 N.3   343  ALA343     -0.1245
    216  CA        31.6210   51.5780   94.4080 C.3   343  ALA343      0.1562
    217  C         32.9250   51.7700   95.1830 C.2   343  ALA343      0.2260
    218  O         33.5940   50.7800   95.4500 O.2   343  ALA343     -0.2867
    219  CB        31.8600   51.8140   92.9260 C.3   343  ALA343      0.0290
@<TRIPOS>BOND
     1   112   111    2
     2   111   110    1
     3   104   103    2
     4   103   102    1
     5   109   110    1
     6   110   113    1
     7   101   102    1
     8   102   105    1
     9    97    99   ar
    10    97    95   ar
    11   113   114    1
    12    90    91    1
    13   119   121   ar
    14   119   116   ar
    15    92    91    1
    16    92    93    2
    17    94    91    1
    18    94    95    1
    19    99   100   ar
    20   105   107    1
    21   105   106    1
    22   121   122   ar
    23   114   116   ar
    24   114   115   ar
    25    95    96   ar
    26   116   118   ar
    27   123   124    1
    28   122   120   ar
    29   115   117   ar
    30   106   108    1
    31   118   120   ar
    32   118   117   ar
    33   100    98   ar
    34    18    17    2
    35    19    17   am
    36    96    98   ar
    37    17    16    1
    38   126   125    2
    39    36    37    1
    40   124   125    1
    41   124   127    1
    42   129   127    1
    43   127   128    1
    44    16    15    1
    45    15    12    1
    46    37    40    1
    47    37    38    1
    48    40    41    1
    49    14    13    2
    50    73    72    1
    51    71    72   ar
    52    71    69   ar
    53   128   130    1
    54    39    38    2
    55    42    41    1
    56    12    13    1
    57    12    11    1
    58    13    20   am
    59    72    70   ar
    60    69    67   ar
    61    41    43    1
    62    23    22    2
    63    26    27    2
    64    26    25    1
    65    88    87    2
    66    83    84    2
    67    83    82    1
    68    22    21    1
    69    22    24   am
    70    20    21    1
    71    11     9   am
    72    70    68   ar
    73    67    68   ar
    74    67    66    1
    75    25    24    1
    76    25    28    1
    77    87    86    1
    78    87    89   am
    79    10     9    2
    80    86    85    1
    81    62    63    1
    82    82    85    1
    83    82    81    1
    84     9     8    1
    85    66    63    1
    86    63    64    1
    87    28    29    1
    88    81    76   am
    89    61    60    1
    90     8     7    1
    91    65    64    2
    92    48    49    1
    93    48    45    1
    94    44    45    1
    95    30    29   ar
    96    30    32   ar
    97    64    74   am
    98    51    49   ar
    99    29    31   ar
   100     7     3   am
   101    77    76    2
   102    76    75    1
   103    60    57    1
   104    32    34   ar
   105    49    50   ar
   106    45    46    1
   107    74    75    1
   108     1     2    1
   109     3     4    2
   110     3     2    1
   111    31    33   ar
   112   168   167    2
   113    58    59    2
   114    58    57    1
   115    75    78    1
   116    34    33   ar
   117    34    35    1
   118    47    46    2
   119   181   180    1
   120     2     5    1
   121    57    56    1
   122   166   167    1
   123   166   165    1
   124   167   169   am
   125    78    79    1
   126    78    80    1
   127   162   161    2
   128    56    54   am
   129   165   161   am
   130     6     5    1
   131   180   182    1
   132   180   177    1
   133   164   163    1
   134   161   160    1
   135   169   170    1
   136    54    55    2
   137    54    53    1
   138   176   177    1
   139   176   171   am
   140   170   171    1
   141   170   173    1
   142   177   178    1
   143   163   160    1
   144   171   172    2
   145    52    53    1
   146   160   159    1
   147   219   216    1
   148   174   173    1
   149   157   156   ar
   150   173   175    1
   151   159   153   am
   152   178   183   am
   153   178   179    2
   154   158   156   ar
   155   156   155    1
   156   142   141    1
   157   189   188    2
   158   216   215    1
   159   216   217    1
   160   183   184    1
   161   154   153    2
   162   153   152    1
   163   139   141   ar
   164   139   137   ar
   165   190   188   am
   166   188   187    1
   167   141   140   ar
   168   217   218    2
   169   200   199    1
   170   155   152    1
   171   152   151    1
   172   137   136   ar
   173   199   201    1
   174   199   198    2
   175   184   187    1
   176   184   185    1
   177   198   197    1
   178   197   196    1
   179   140   138   ar
   180   207   206    1
   181   136   138   ar
   182   136   135    1
   183   186   185    2
   184   213   212    1
   185   150   148    1
   186   196   195    1
   187   206   203    1
   188   132   131    1
   189   132   135    1
   190   132   133    1
   191   214   212    1
   192   212   209    1
   193   133   134    2
   194   195   192    1
   195   148   147    1
   196   203   202    1
   197   203   204    1
   198   147   149    1
   199   147   144    1
   200   204   205    2
   201   209   210    1
   202   209   208    1
   203   191   192    1
   204   211   210    2
   205   192   193    1
   206   145   146    2
   207   145   144    1
   208   144   143    1
   209   193   194    2
