@<TRIPOS>MOLECULE
tmp/6bfeA00.pdb
 230 219 0 0 0
SMALL
GASTEIGER

@<TRIPOS>ATOM
      1  N         33.4830   55.1690   86.1480 N.3    20  GLN20      -0.1231
      2  CA        32.6830   54.9300   84.9320 C.3    20  GLN20       0.1698
      3  C         31.8000   53.6940   85.0020 C.2    20  GLN20       0.2592
      4  O         30.9820   53.5060   84.1000 O.2    20  GLN20      -0.2718
      5  CB        33.5900   54.8660   83.7090 C.3    20  GLN20       0.0381
      6  CG        34.2310   56.2310   83.3820 C.3    20  GLN20       0.0905
      7  CD        34.9850   56.2660   82.0770 C.2    20  GLN20       0.2608
      8  OE1       35.5140   55.2600   81.5910 O.2    20  GLN20      -0.2717
      9  NE2       35.0800   57.4480   81.4980 N.am   20  GLN20      -0.0878
     10  N         31.9210   52.9320   86.0750 N.am   21  GLY21      -0.1957
     11  CA        31.0940   51.7640   86.3480 C.3    21  GLY21       0.1869
     12  C         31.7770   50.4600   85.9940 C.2    21  GLY21       0.2309
     13  O         32.6910   50.4110   85.1440 O.2    21  GLY21      -0.2863
     14  N         26.4190   47.6000   82.4110 N.3    38  LEU38      -0.1245
     15  CA        26.7560   48.1430   83.7250 C.3    38  LEU38       0.1561
     16  C         26.0040   47.3880   84.8330 C.2    38  LEU38       0.2260
     17  O         24.7890   47.2070   84.7500 O.2    38  LEU38      -0.2867
     18  CB        26.3740   49.6270   83.7580 C.3    38  LEU38       0.0270
     19  CG        26.5270   50.3010   85.1230 C.3    38  LEU38       0.0019
     20  CD1       27.9770   50.5540   85.3920 C.3    38  LEU38       0.0001
     21  CD2       25.7170   51.6060   85.1880 C.3    38  LEU38       0.0001
     22  N         24.3110   47.4390   88.1840 N.3    40  ASP40      -0.1239
     23  CA        23.7630   48.4750   89.0390 C.3    40  ASP40       0.1674
     24  C         22.8510   47.9610   90.1320 C.2    40  ASP40       0.2266
     25  O         21.6710   47.7100   89.8780 O.2    40  ASP40      -0.2867
     26  CB        23.0170   49.5010   88.1780 C.3    40  ASP40       0.1410
     27  CG        22.4980   50.6570   89.0060 C.2    40  ASP40       0.3668
     28  OD1       23.0480   50.8810   90.1300 O.co2  40  ASP40      -0.2456
     29  OD2       21.6220   51.4030   88.4930 O.co2  40  ASP40      -0.2456
     30  N         21.6980   49.7410   92.3390 N.3    42  GLY42      -0.1210
     31  CA        20.8990   50.8970   92.7420 C.3    42  GLY42       0.1956
     32  C         19.6990   51.2100   91.8660 C.2    42  GLY42       0.2613
     33  O         19.1440   52.3080   91.9660 O.2    42  GLY42      -0.2717
     34  N         19.3270   50.3010   90.9630 N.am   43  SER43      -0.1938
     35  CA        18.1430   50.4850   90.1240 C.3    43  SER43       0.2055
     36  C         17.6230   49.1260   89.7310 C.2    43  SER43       0.2644
     37  O         18.2370   48.1200   90.0530 O.2    43  SER43      -0.2714
     38  CB        18.3980   51.3600   88.9210 C.3    43  SER43       0.2130
     39  OG        19.1940   50.6410   87.9880 O.3    43  SER43      -0.2179
     40  N         16.4740   49.0830   89.0180 N.am   44  SER44      -0.1935
     41  CA        15.8190   47.7910   88.8100 C.3    44  SER44       0.2055
     42  C         15.3550   47.5520   87.3860 C.2    44  SER44       0.2643
     43  O         14.6120   46.5860   87.1630 O.2    44  SER44      -0.2714
     44  CB        14.6220   47.7240   89.7470 C.3    44  SER44       0.2130
     45  OG        15.0840   47.8050   91.0950 O.3    44  SER44      -0.2179
     46  N         15.8510   48.3470   86.4310 N.am   45  ASN45      -0.1971
     47  CA        15.5270   48.1690   85.0080 C.3    45  ASN45       0.1688
     48  C         16.7310   47.6130   84.2390 C.2    45  ASN45       0.2292
     49  O         17.8660   48.0790   84.4160 O.2    45  ASN45      -0.2864
     50  CB        15.1070   49.4980   84.3300 C.3    45  ASN45       0.1181
     51  CG        13.6760   49.8430   84.6140 C.2    45  ASN45       0.2629
     52  OD1       13.3390   50.3820   85.6800 O.2    45  ASN45      -0.2716
     53  ND2       12.7740   49.4550   83.6780 N.am   45  ASN45      -0.0877
     54  N         13.3860   56.3300   82.5110 N.3    77  VAL77      -0.1231
     55  CA        14.0400   56.2170   83.7960 C.3    77  VAL77       0.1678
     56  C         14.9480   57.4180   84.0260 C.2    77  VAL77       0.2434
     57  O         15.9260   57.5940   83.3060 O.2    77  VAL77      -0.2733
     58  CB        14.8140   54.8860   84.0790 C.3    77  VAL77       0.0265
     59  CG1       15.4680   54.9380   85.4560 C.3    77  VAL77       0.0020
     60  CG2       13.9110   53.6580   84.0150 C.3    77  VAL77       0.0020
     61  N         14.6250   58.1980   85.0960 N.am   78  PRO78      -0.2718
     62  CA        15.4650   59.3390   85.4840 C.3    78  PRO78       0.1535
     63  C         16.3780   58.9330   86.6650 C.2    78  PRO78       0.2599
     64  O         15.8780   58.6030   87.7330 O.2    78  PRO78      -0.2715
     65  CB        14.4020   60.3840   85.9100 C.3    78  PRO78       0.0310
     66  CG        13.2430   59.5770   86.4770 C.3    78  PRO78       0.0237
     67  CD        13.4180   58.1030   85.9430 C.3    78  PRO78       0.0939
     68  N         17.6810   58.9480   86.4670 N.am   79  TYR79      -0.1960
     69  CA        18.6130   58.5940   87.5430 C.3    79  TYR79       0.1771
     70  C         19.1530   59.8750   88.1480 C.2    79  TYR79       0.2620
     71  O         18.6250   60.9520   87.8750 O.2    79  TYR79      -0.2715
     72  CB        19.7710   57.7230   87.0110 C.3    79  TYR79       0.0574
     73  CG        19.3430   56.4560   86.2960 C.ar   79  TYR79      -0.0198
     74  CD1       19.1100   56.4560   84.9200 C.ar   79  TYR79      -0.0009
     75  CD2       19.2700   55.2430   86.9730 C.ar   79  TYR79      -0.0009
     76  CE1       18.8190   55.2750   84.2340 C.ar   79  TYR79       0.0417
     77  CE2       18.9830   54.0470   86.2960 C.ar   79  TYR79       0.0417
     78  CZ        18.7510   54.0750   84.9280 C.ar   79  TYR79       0.1957
     79  OH        18.4560   52.9190   84.2220 O.3    79  TYR79      -0.2866
     80  N         20.1830   59.7640   88.9740 N.am   80  THR80      -0.1937
     81  CA        20.7760   60.9440   89.5970 C.3    80  THR80       0.2028
     82  C         21.5800   61.6730   88.5230 C.2    80  THR80       0.2642
     83  O         21.4000   62.8660   88.3120 O.2    80  THR80      -0.2714
     84  CB        21.6400   60.4990   90.8000 C.3    80  THR80       0.1808
     85  OG1       20.7500   59.8890   91.7620 O.3    80  THR80      -0.2208
     86  CG2       22.3420   61.7330   91.4840 C.3    80  THR80       0.0379
     87  N         22.4220   60.9070   87.8150 N.am   81  GLN81      -0.1963
     88  CA        23.3560   61.3670   86.8120 C.3    81  GLN81       0.1733
     89  C         22.7640   61.7540   85.4560 C.2    81  GLN81       0.2616
     90  O         23.1550   62.7590   84.8680 O.2    81  GLN81      -0.2715
     91  CB        24.3920   60.2590   86.6210 C.3    81  GLN81       0.0408
     92  CG        25.6340   60.7300   85.8880 C.3    81  GLN81       0.0908
     93  CD        26.8170   59.8580   86.1670 C.2    81  GLN81       0.2608
     94  OE1       27.3110   59.1600   85.2850 O.2    81  GLN81      -0.2717
     95  NE2       27.3300   59.9180   87.3930 N.am   81  GLN81      -0.0878
     96  N         21.8910   60.9120   84.9480 N.am   82  GLY82      -0.1955
     97  CA        21.3450   61.0370   83.6060 C.3    82  GLY82       0.1869
     98  C         20.0070   60.3670   83.4960 C.2    82  GLY82       0.2309
     99  O         19.3980   60.0050   84.5030 O.2    82  GLY82      -0.2863
    100  N         22.9780   62.3360   79.1220 N.3   115  LYS115     -0.1231
    101  CA        23.9940   62.1780   80.1680 C.3   115  LYS115      0.1693
    102  C         23.9540   60.7790   80.7890 C.2   115  LYS115      0.2592
    103  O         24.3150   60.6090   81.9550 O.2   115  LYS115     -0.2718
    104  CB        23.8770   63.2730   81.2530 C.3   115  LYS115      0.0285
    105  CG        24.1010   64.6940   80.7200 C.3   115  LYS115      0.0035
    106  CD        23.8290   65.7270   81.8110 C.3   115  LYS115      0.0206
    107  CE        23.8370   67.1340   81.2670 C.3   115  LYS115      0.1093
    108  NZ        23.6310   68.1390   82.3450 N.3   115  LYS115     -0.1314
    109  N         23.5010   59.7850   80.0020 N.am  116  PHE116     -0.1976
    110  CA        23.4310   58.3910   80.4630 C.3   116  PHE116      0.1639
    111  C         24.6810   57.6470   80.0430 C.2   116  PHE116      0.2290
    112  O         25.4800   57.2340   80.9070 O.2   116  PHE116     -0.2864
    113  CB        22.1520   57.7090   79.9510 C.3   116  PHE116      0.0560
    114  CG        22.0500   56.2720   80.4070 C.ar  116  PHE116     -0.0200
    115  CD1       21.8650   55.9660   81.7520 C.ar  116  PHE116     -0.0042
    116  CD2       22.1850   55.2290   79.5030 C.ar  116  PHE116     -0.0042
    117  CE1       21.8240   54.6310   82.1850 C.ar  116  PHE116     -0.0003
    118  CE2       22.1280   53.9010   79.9330 C.ar  116  PHE116     -0.0003
    119  CZ        21.9560   53.6150   81.2700 C.ar  116  PHE116     -0.0000
    120  N         28.3930   57.0000   78.7950 N.3   118  ILE118     -0.1245
    121  CA        29.6540   57.6480   79.1390 C.3   118  ILE118      0.1561
    122  C         30.6550   57.3510   78.0330 C.2   118  ILE118      0.2260
    123  O         30.9300   56.1910   77.7320 O.2   118  ILE118     -0.2867
    124  CB        30.1490   57.1230   80.5230 C.3   118  ILE118      0.0252
    125  CG1       29.1690   57.4720   81.6500 C.3   118  ILE118      0.0019
    126  CG2       31.5950   57.6290   80.8290 C.3   118  ILE118      0.0019
    127  CD1       29.5170   56.8680   83.0400 C.3   118  ILE118      0.0001
    128  N         30.5610   50.2810   78.0590 N.3   123  TRP123     -0.1241
    129  CA        29.2820   49.6130   78.2870 C.3   123  TRP123      0.1605
    130  C         28.1750   50.2680   77.4670 C.2   123  TRP123      0.2264
    131  O         28.2530   51.4550   77.1030 O.2   123  TRP123     -0.2867
    132  CB        28.8960   49.4120   79.7510 C.3   123  TRP123      0.0550
    133  CG        28.9160   50.6580   80.5780 C.ar  123  TRP123      0.0003
    134  CD1       29.9120   51.0320   81.4390 C.ar  123  TRP123      0.0946
    135  CD2       27.8580   51.6080   80.7500 C.ar  123  TRP123      0.0152
    136  NE1       29.5490   52.1630   82.1140 N.ar  123  TRP123     -0.2442
    137  CE2       28.3100   52.5680   81.6850 C.ar  123  TRP123      0.0810
    138  CE3       26.5910   51.7830   80.1650 C.ar  123  TRP123      0.0012
    139  CZ2       27.5330   53.6850   82.0560 C.ar  123  TRP123      0.0191
    140  CZ3       25.7930   52.8460   80.5790 C.ar  123  TRP123      0.0001
    141  CH2       26.2690   53.7990   81.4960 C.ar  123  TRP123      0.0015
    142  N         22.4990   48.7720   80.9770 N.3   126  ILE126     -0.1245
    143  CA        22.5020   48.7400   82.4460 C.3   126  ILE126      0.1561
    144  C         21.6700   47.6040   82.9460 C.2   126  ILE126      0.2260
    145  O         20.5850   47.3410   82.3900 O.2   126  ILE126     -0.2867
    146  CB        21.9860   50.0950   82.9960 C.3   126  ILE126      0.0252
    147  CG1       22.0610   50.1370   84.5140 C.3   126  ILE126      0.0019
    148  CG2       20.5440   50.4440   82.4800 C.3   126  ILE126      0.0019
    149  CD1       22.0510   51.6550   85.0440 C.3   126  ILE126      0.0001
    150  N         11.0030   49.6520   92.7110 N.3   134  ILE134     -0.1245
    151  CA        11.5300   50.8550   92.0820 C.3   134  ILE134      0.1561
    152  C         11.6800   50.7610   90.5440 C.2   134  ILE134      0.2260
    153  O         12.2480   51.6620   89.9140 O.2   134  ILE134     -0.2867
    154  CB        12.8320   51.3210   92.7530 C.3   134  ILE134      0.0252
    155  CG1       13.9690   50.2880   92.5250 C.3   134  ILE134      0.0019
    156  CG2       12.5940   51.6790   94.2430 C.3   134  ILE134      0.0019
    157  CD1       15.3700   50.8060   92.9860 C.3   134  ILE134      0.0001
    158  N         10.6600   50.9880   86.6660 N.3   136  ARG136     -0.1245
    159  CA         9.8190   51.8500   85.8290 C.3   136  ARG136      0.1563
    160  C          9.2930   50.9810   84.6660 C.2   136  ARG136      0.2260
    161  O         10.0140   50.1200   84.1800 O.2   136  ARG136     -0.2867
    162  CB        10.5570   53.1030   85.3060 C.3   136  ARG136      0.0307
    163  CG        11.0110   54.0680   86.4140 C.3   136  ARG136      0.0489
    164  CD         9.8710   54.5960   87.2970 C.3   136  ARG136      0.2205
    165  NE        10.3660   55.5290   88.3290 N.pl3 136  ARG136     -0.0865
    166  CZ        10.4630   56.8540   88.1780 C.cat 136  ARG136      0.5346
    167  NH1       10.0950   57.4310   87.0400 N.pl3 136  ARG136      0.1354
    168  NH2       10.9050   57.6100   89.1740 N.pl3 136  ARG136      0.1354
    169  N         15.2530   49.5100   97.0040 N.3   206  TYR206     -0.1241
    170  CA        16.6930   49.5310   96.8690 C.3   206  TYR206      0.1605
    171  C         17.2060   48.4530   97.8460 C.2   206  TYR206      0.2264
    172  O         16.4440   47.8570   98.6330 O.2   206  TYR206     -0.2867
    173  CB        17.2330   50.8560   97.4150 C.3   206  TYR206      0.0534
    174  CG        16.8450   52.0200   96.5690 C.ar  206  TYR206     -0.0201
    175  CD1       17.5680   52.3470   95.4170 C.ar  206  TYR206     -0.0009
    176  CD2       15.7650   52.8230   96.9160 C.ar  206  TYR206     -0.0009
    177  CE1       17.1960   53.4220   94.6150 C.ar  206  TYR206      0.0417
    178  CE2       15.4050   53.9180   96.1390 C.ar  206  TYR206      0.0417
    179  CZ        16.1400   54.2320   95.0090 C.ar  206  TYR206      0.1957
    180  OH        15.7610   55.3220   94.2590 O.3   206  TYR206     -0.2866
    181  N         17.2720   57.4380  103.5510 N.3   232  LYS232     -0.1245
    182  CA        17.5270   55.9990  103.4280 C.3   232  LYS232      0.1561
    183  C         19.0410   55.8200  103.3200 C.2   232  LYS232      0.2260
    184  O         19.7400   56.8040  103.0900 O.2   232  LYS232     -0.2867
    185  CB        16.8740   55.4220  102.1340 C.3   232  LYS232      0.0271
    186  CG        17.3730   56.0910  100.8480 C.3   232  LYS232      0.0035
    187  CD        16.5470   55.6150   99.6590 C.3   232  LYS232      0.0206
    188  CE        16.8940   56.3510   98.3880 C.3   232  LYS232      0.1093
    189  NZ        16.4640   57.7820   98.4450 N.3   232  LYS232     -0.1314
    190  N         21.5760   53.1170  101.1250 N.3   234  ILE234     -0.1245
    191  CA        21.5080   51.9920  100.1780 C.3   234  ILE234      0.1561
    192  C         22.8950   51.5370   99.7510 C.2   234  ILE234      0.2260
    193  O         23.8740   52.2900   99.8870 O.2   234  ILE234     -0.2867
    194  CB        20.6830   52.4260   98.9230 C.3   234  ILE234      0.0252
    195  CG1       21.4580   53.4490   98.0680 C.3   234  ILE234      0.0019
    196  CG2       19.2990   52.9460   99.3270 C.3   234  ILE234      0.0019
    197  CD1       20.8100   53.7790   96.6410 C.3   234  ILE234      0.0001
    198  N         24.9920   50.5670   96.5290 N.3   236  ASP236     -0.1239
    199  CA        24.7810   50.9110   95.1290 C.3   236  ASP236      0.1674
    200  C         26.0480   50.8720   94.2690 C.2   236  ASP236      0.2266
    201  O         26.8260   51.8400   94.2200 O.2   236  ASP236     -0.2867
    202  CB        24.2110   52.3360   95.1200 C.3   236  ASP236      0.1410
    203  CG        23.7740   52.8410   93.7680 C.2   236  ASP236      0.3668
    204  OD1       23.9010   52.0820   92.7840 O.co2 236  ASP236     -0.2456
    205  OD2       23.2960   54.0170   93.6910 O.co2 236  ASP236     -0.2456
    206  N         26.1620   51.2380   91.1710 N.3   238  GLY238     -0.1210
    207  CA        25.9670   52.2070   90.0900 C.3   238  GLY238      0.1956
    208  C         26.2830   53.6470   90.4370 C.2   238  GLY238      0.2613
    209  O         26.0670   54.5330   89.6010 O.2   238  GLY238     -0.2717
    210  N         26.7980   53.8940   91.6570 N.am  239  THR239     -0.1938
    211  CA        27.1910   55.2490   92.0610 C.3   239  THR239      0.2028
    212  C         28.6610   55.1600   92.4020 C.2   239  THR239      0.2642
    213  O         29.0860   54.2090   93.0620 O.2   239  THR239     -0.2714
    214  CB        26.4050   55.6650   93.2920 C.3   239  THR239      0.1808
    215  OG1       25.0600   55.8970   92.8640 O.3   239  THR239     -0.2208
    216  CG2       26.9560   56.9720   93.9170 C.3   239  THR239      0.0379
    217  N         29.4360   56.1720   91.9930 N.am  240  THR240     -0.1950
    218  CA        30.8740   56.1310   92.2670 C.3   240  THR240      0.1897
    219  C         31.2010   56.3550   93.7390 C.2   240  THR240      0.2313
    220  O         31.8980   55.5650   94.3500 O.2   240  THR240     -0.2863
    221  CB        31.5690   57.2500   91.4320 C.3   240  THR240      0.1794
    222  OG1       31.3390   57.0030   90.0370 O.3   240  THR240     -0.2208
    223  CG2       33.0820   57.3070   91.7110 C.3   240  THR240      0.0378
    224  N         24.5320   56.8230  100.1860 N.3   340  VAL340     -0.1245
    225  CA        24.7560   55.8950   99.0710 C.3   340  VAL340      0.1561
    226  C         26.1230   55.2630   99.3110 C.2   340  VAL340      0.2260
    227  O         27.1570   55.9390   99.2610 O.2   340  VAL340     -0.2867
    228  CB        24.7150   56.5340   97.6730 C.3   340  VAL340      0.0252
    229  CG1       24.8590   55.4540   96.5950 C.3   340  VAL340      0.0019
    230  CG2       23.4270   57.3340   97.4610 C.3   340  VAL340      0.0019
@<TRIPOS>BOND
     1   131   130    2
     2   130   129    1
     3   123   122    2
     4   122   121    1
     5   128   129    1
     6   129   132    1
     7   120   121    1
     8   100   101    1
     9   121   124    1
    10   116   118   ar
    11   116   114   ar
    12   132   133    1
    13   118   119   ar
    14   113   114    1
    15   113   110    1
    16   109   110    1
    17   109   102   am
    18   111   110    1
    19   111   112    2
    20   138   140   ar
    21   138   135   ar
    22   101   102    1
    23   101   104    1
    24   114   115   ar
    25   124   126    1
    26   124   125    1
    27   133   135   ar
    28   133   134   ar
    29   140   141   ar
    30   105   104    1
    31   105   106    1
    32   135   137   ar
    33   102   103    2
    34   142   143    1
    35   107   106    1
    36   107   108    1
    37   119   117   ar
    38   134   136   ar
    39   141   139   ar
    40     9     7   am
    41     8     7    2
    42   125   127    1
    43   137   139   ar
    44   137   136   ar
    45   115   117   ar
    46     7     6    1
    47   145   144    2
    48    14    15    1
    49   143   144    1
    50   143   146    1
    51   148   146    1
    52    54    55    1
    53   146   147    1
    54    57    56    2
    55     6     5    1
    56    98    97    1
    57    98    99    2
    58    97    96    1
    59    53    51   am
    60     5     2    1
    61    15    18    1
    62    15    16    1
    63    18    19    1
    64    55    56    1
    65    55    58    1
    66    60    58    1
    67    56    61   am
    68    58    59    1
    69     4     3    2
    70   161   160    2
    71    79    78    1
    72    76    74   ar
    73    76    78   ar
    74    48    49    2
    75    48    47    1
    76    50    51    1
    77    50    47    1
    78   147   149    1
    79    51    52    2
    80   160   159    1
    81    17    16    2
    82    90    89    2
    83    74    73   ar
    84    78    77   ar
    85     2     3    1
    86     2     1    1
    87    96    89   am
    88     3    10   am
    89    47    46    1
    90    61    62    1
    91    61    67    1
    92    19    21    1
    93    19    20    1
    94    13    12    2
    95    94    93    2
    96   162   159    1
    97   162   163    1
    98    89    88    1
    99    62    65    1
   100    62    63    1
   101   159   158    1
   102    92    93    1
   103    92    91    1
   104    65    66    1
   105    67    66    1
   106    12    11    1
   107    10    11    1
   108    93    95   am
   109    77    75   ar
   110    73    75   ar
   111    73    72    1
   112   163   164    1
   113    46    42   am
   114    68    63   am
   115    68    69    1
   116    91    88    1
   117    63    64    2
   118    88    87    1
   119    72    69    1
   120   167   166    1
   121    43    42    2
   122   164   165    1
   123    42    41    1
   124    69    70    1
   125    87    82   am
   126    71    70    2
   127    39    38    1
   128    70    80   am
   129   166   165    2
   130   166   168    1
   131    26    27    1
   132    26    23    1
   133    22    23    1
   134    83    82    2
   135    29    27   ar
   136    82    81    1
   137    41    40    1
   138    41    44    1
   139    38    35    1
   140    80    81    1
   141    27    28   ar
   142    40    36   am
   143    23    24    1
   144    81    84    1
   145   209   208    2
   146    36    37    2
   147    36    35    1
   148    44    45    1
   149    25    24    2
   150   153   152    2
   151   222   221    1
   152   207   208    1
   153   207   206    1
   154    35    34    1
   155   208   210   am
   156   152   151    1
   157    84    86    1
   158    84    85    1
   159    34    32   am
   160   221   223    1
   161   221   218    1
   162   210   211    1
   163    32    33    2
   164    32    31    1
   165   217   218    1
   166   217   212   am
   167   211   212    1
   168   211   214    1
   169   151   150    1
   170   151   154    1
   171   218   219    1
   172    30    31    1
   173   212   213    2
   174   155   154    1
   175   155   157    1
   176   154   156    1
   177   204   203   ar
   178   215   214    1
   179   214   216    1
   180   205   203   ar
   181   219   220    2
   182   203   202    1
   183   201   200    2
   184   180   179    1
   185   200   199    1
   186   177   179   ar
   187   177   175   ar
   188   179   178   ar
   189   202   199    1
   190   199   198    1
   191   175   174   ar
   192   178   176   ar
   193   174   176   ar
   194   174   173    1
   195   229   228    1
   196   197   195    1
   197   170   169    1
   198   170   173    1
   199   170   171    1
   200   230   228    1
   201   228   225    1
   202   171   172    2
   203   195   194    1
   204   188   189    1
   205   188   187    1
   206   194   196    1
   207   194   191    1
   208   225   226    1
   209   225   224    1
   210   227   226    2
   211   187   186    1
   212   192   193    2
   213   192   191    1
   214   191   190    1
   215   186   185    1
   216   185   182    1
   217   184   183    2
   218   183   182    1
   219   182   181    1
