@<TRIPOS>MOLECULE
tmp/6bfgB01.pdb
 213 205 0 0 0
SMALL
GASTEIGER

@<TRIPOS>ATOM
      1  N          1.3320   27.1100   48.8260 N.3    18  PRO18      -0.2116
      2  CA         0.1370   26.4630   49.3700 C.3    18  PRO18       0.1372
      3  C         -0.5720   25.6420   48.3010 C.2    18  PRO18       0.2244
      4  O         -0.5430   25.9550   47.1060 O.2    18  PRO18      -0.2868
      5  CB        -0.7150   27.6370   49.8730 C.3    18  PRO18       0.0268
      6  CG        -0.2160   28.8310   49.1310 C.3    18  PRO18       0.0207
      7  CD         1.2220   28.5820   48.7930 C.3    18  PRO18       0.0892
      8  N         -3.3680   25.2980   47.1920 N.3    20  MET20      -0.1230
      9  CA        -4.2940   25.9920   46.3160 C.3    20  MET20       0.1702
     10  C         -3.5780   26.7130   45.1840 C.2    20  MET20       0.2592
     11  O         -4.0520   26.6930   44.0400 O.2    20  MET20      -0.2718
     12  CB        -5.0890   26.9680   47.1680 C.3    20  MET20       0.0401
     13  CG        -6.4770   27.1530   46.7240 C.3    20  MET20       0.0596
     14  SD        -7.3240   28.4040   47.6920 S.3    20  MET20      -0.1393
     15  CE        -7.2290   27.6700   49.3370 C.3    20  MET20       0.0692
     16  N         -2.4330   27.3530   45.4750 N.am   21  VAL21      -0.1980
     17  CA        -1.6900   28.0470   44.4260 C.3    21  VAL21       0.1595
     18  C         -0.9590   27.0460   43.5500 C.2    21  VAL21       0.2287
     19  O         -0.9080   27.1980   42.3210 O.2    21  VAL21      -0.2864
     20  CB        -0.7290   29.0750   45.0360 C.3    21  VAL21       0.0276
     21  CG1        0.0920   29.7670   43.9430 C.3    21  VAL21       0.0022
     22  CG2       -1.5080   30.1090   45.8530 C.3    21  VAL21       0.0022
     23  N         -3.3470   25.7830   41.0640 N.3    24  TYR24      -0.1241
     24  CA        -3.5630   26.6980   39.9510 C.3    24  TYR24       0.1605
     25  C         -2.4340   26.5950   38.9350 C.2    24  TYR24       0.2264
     26  O         -2.6610   26.6670   37.7120 O.2    24  TYR24      -0.2867
     27  CB        -3.7030   28.1330   40.4710 C.3    24  TYR24       0.0534
     28  CG        -3.4500   29.1940   39.4350 C.ar   24  TYR24      -0.0201
     29  CD1       -4.4190   29.5630   38.5070 C.ar   24  TYR24      -0.0009
     30  CD2       -2.2460   29.8640   39.4170 C.ar   24  TYR24      -0.0009
     31  CE1       -4.1510   30.5450   37.5630 C.ar   24  TYR24       0.0417
     32  CE2       -1.9690   30.8210   38.4900 C.ar   24  TYR24       0.0417
     33  CZ        -2.9090   31.1640   37.5550 C.ar   24  TYR24       0.1957
     34  OH        -2.5760   32.1870   36.6470 O.3    24  TYR24      -0.2866
     35  N         -0.4710   35.9760   36.4990 N.3    80  LEU80      -0.1245
     36  CA        -0.4380   35.8700   37.9650 C.3    80  LEU80       0.1561
     37  C          0.9050   35.3530   38.5100 C.2    80  LEU80       0.2260
     38  O          0.9670   34.8170   39.6150 O.2    80  LEU80      -0.2867
     39  CB        -1.5890   35.0220   38.4670 C.3    80  LEU80       0.0270
     40  CG        -2.9550   35.5110   38.0060 C.3    80  LEU80       0.0019
     41  CD1       -4.0060   34.5620   38.5350 C.3    80  LEU80       0.0001
     42  CD2       -3.2580   36.9640   38.4220 C.3    80  LEU80       0.0001
     43  N          2.9480   36.9600   40.0980 N.3    82  GLY82      -0.1210
     44  CA         3.1400   37.5520   41.4140 C.3    82  GLY82       0.1956
     45  C          2.5270   36.7540   42.5530 C.2    82  GLY82       0.2611
     46  O          2.8310   37.0030   43.7220 O.2    82  GLY82      -0.2717
     47  N          1.6590   35.8080   42.2500 N.am   83  ALA83      -0.1979
     48  CA         1.2720   34.8680   43.2840 C.3    83  ALA83       0.1597
     49  C          2.3950   33.8830   43.6140 C.2    83  ALA83       0.2287
     50  O          2.3940   33.2730   44.7020 O.2    83  ALA83      -0.2864
     51  CB         0.0450   34.1200   42.8080 C.3    83  ALA83       0.0319
     52  N        -13.1980   30.2560   29.3580 N.3   160  ASN160     -0.1240
     53  CA       -12.2570   29.6490   30.3010 C.3   160  ASN160      0.1653
     54  C        -12.3420   28.1330   30.3070 C.2   160  ASN160      0.2266
     55  O        -13.4290   27.5590   30.3210 O.2   160  ASN160     -0.2867
     56  CB       -12.5370   30.1670   31.7140 C.3   160  ASN160      0.1155
     57  CG       -12.6410   31.7050   31.7700 C.2   160  ASN160      0.2627
     58  OD1      -13.5700   32.2500   32.3760 O.2   160  ASN160     -0.2716
     59  ND2      -11.6730   32.4040   31.1480 N.am  160  ASN160     -0.0877
     60  N        -11.2190   23.8150   34.7730 N.3   163  ARG163     -0.1245
     61  CA       -10.1420   23.3530   35.6360 C.3   163  ARG163      0.1563
     62  C        -10.7140   23.0090   36.9960 C.2   163  ARG163      0.2260
     63  O        -11.0190   23.9040   37.7980 O.2   163  ARG163     -0.2867
     64  CB        -9.0730   24.4210   35.7590 C.3   163  ARG163      0.0307
     65  CG        -8.5850   24.7930   34.4090 C.3   163  ARG163      0.0489
     66  CD        -7.2760   25.4620   34.4920 C.3   163  ARG163      0.2205
     67  NE        -7.1710   26.3840   33.3800 N.pl3 163  ARG163     -0.0865
     68  CZ        -7.0890   27.6860   33.4970 C.cat 163  ARG163      0.5346
     69  NH1       -7.0740   28.2590   34.7010 N.pl3 163  ARG163      0.1354
     70  NH2       -6.9710   28.3990   32.3870 N.pl3 163  ARG163      0.1354
     71  N         -9.2310   24.1150   40.5450 N.3   166  ASP166     -0.1225
     72  CA        -9.6290   25.4430   41.0060 C.3   166  ASP166      0.1805
     73  C        -11.0600   25.4130   41.5280 C.2   166  ASP166      0.2597
     74  O        -11.3930   26.0840   42.5180 O.2   166  ASP166     -0.2718
     75  CB        -9.4940   26.4770   39.8840 C.3   166  ASP166      0.1424
     76  CG        -8.0390   26.6820   39.4360 C.2   166  ASP166      0.3668
     77  OD1       -7.0990   26.2940   40.1790 O.co2 166  ASP166     -0.2456
     78  OD2       -7.8340   27.2610   38.3390 O.co2 166  ASP166     -0.2456
     79  N        -11.9320   24.6320   40.8730 N.am  167  LEU167     -0.1979
     80  CA       -13.3080   24.5170   41.3500 C.3   167  LEU167      0.1596
     81  C        -13.3680   23.8360   42.7150 C.2   167  LEU167      0.2287
     82  O        -14.0600   24.3070   43.6170 O.2   167  LEU167     -0.2864
     83  CB       -14.1680   23.7730   40.3290 C.3   167  LEU167      0.0297
     84  CG       -14.1980   24.4030   38.9320 C.3   167  LEU167      0.0022
     85  CD1      -14.9270   23.4990   37.9510 C.3   167  LEU167      0.0001
     86  CD2      -14.8100   25.7820   38.9670 C.3   167  LEU167      0.0001
     87  N        -10.8340   28.5500   44.0460 N.3   171  PHE171     -0.1227
     88  CA        -9.7760   29.4810   43.7100 C.3   171  PHE171      0.1736
     89  C        -10.3140   30.4040   42.6320 C.2   171  PHE171      0.2595
     90  O        -10.2770   30.0910   41.4430 O.2   171  PHE171     -0.2718
     91  CB        -8.5520   28.6980   43.2760 C.3   171  PHE171      0.0547
     92  CG        -7.2960   29.4780   43.3280 C.ar  171  PHE171     -0.0202
     93  CD1       -6.6970   29.7460   44.5440 C.ar  171  PHE171     -0.0042
     94  CD2       -6.6880   29.9070   42.1740 C.ar  171  PHE171     -0.0042
     95  CE1       -5.5270   30.4560   44.6050 C.ar  171  PHE171     -0.0003
     96  CE2       -5.5080   30.6210   42.2410 C.ar  171  PHE171     -0.0003
     97  CZ        -4.9390   30.8860   43.4600 C.ar  171  PHE171     -0.0000
     98  N        -10.8710   31.5340   43.0720 N.am  172  LYS172     -0.1966
     99  CA       -11.5540   32.5190   42.2350 C.3   172  LYS172      0.1728
    100  C        -11.2520   33.8990   42.8200 C.2   172  LYS172      0.2616
    101  O        -10.9970   34.0100   44.0190 O.2   172  LYS172     -0.2715
    102  CB       -13.0740   32.1960   42.1820 C.3   172  LYS172      0.0311
    103  CG       -13.8240   32.7200   40.9600 C.3   172  LYS172      0.0038
    104  CD       -15.2200   32.1130   40.8640 C.3   172  LYS172      0.0206
    105  CE       -16.2400   33.1320   40.3790 C.3   172  LYS172      0.1093
    106  NZ       -16.4700   34.1940   41.3990 N.3   172  LYS172     -0.1314
    107  N        -11.3090   34.9550   41.9830 N.am  173  ILE173     -0.1977
    108  CA       -10.6870   36.2410   42.3680 C.3   173  ILE173      0.1596
    109  C        -11.2790   36.8300   43.6360 C.2   173  ILE173      0.2287
    110  O        -10.5290   37.4260   44.4270 O.2   173  ILE173     -0.2864
    111  CB       -10.7370   37.2290   41.1860 C.3   173  ILE173      0.0276
    112  CG1       -9.4160   37.2520   40.4250 C.3   173  ILE173      0.0022
    113  CG2      -10.9750   38.6620   41.6700 C.3   173  ILE173      0.0022
    114  CD1       -9.1790   36.0280   39.6980 C.3   173  ILE173      0.0001
    115  N        -11.7170   36.0160   46.9590 N.3   175  MET175     -0.1230
    116  CA       -11.2440   34.8810   47.7530 C.3   175  MET175      0.1702
    117  C        -11.8920   34.8020   49.1360 C.2   175  MET175      0.2593
    118  O        -12.5960   33.8410   49.4510 O.2   175  MET175     -0.2718
    119  CB        -9.7240   34.9580   47.9060 C.3   175  MET175      0.0401
    120  CG        -8.9010   34.1760   46.8790 C.3   175  MET175      0.0596
    121  SD        -9.3700   32.4450   46.5540 S.3   175  MET175     -0.1393
    122  CE        -9.3620   31.7810   48.2150 C.3   175  MET175      0.0692
    123  N        -11.6520   35.8040   49.9790 N.am  176  SER176     -0.1938
    124  CA       -11.9880   35.7550   51.3990 C.3   176  SER176      0.2055
    125  C        -11.2090   34.6920   52.1600 C.2   176  SER176      0.2643
    126  O        -10.2280   34.1460   51.6560 O.2   176  SER176     -0.2714
    127  CB       -13.4880   35.4820   51.5690 C.3   176  SER176      0.2130
    128  OG       -13.7270   34.0930   51.5820 O.3   176  SER176     -0.2179
    129  N        -11.6770   34.3630   53.3610 N.am  177  TYR177     -0.1973
    130  CA       -10.9730   33.4760   54.2720 C.3   177  TYR177      0.1639
    131  C        -11.7970   32.2210   54.4410 C.2   177  TYR177      0.2290
    132  O        -12.9760   32.1630   54.1000 O.2   177  TYR177     -0.2864
    133  CB       -10.7310   34.0840   55.6560 C.3   177  TYR177      0.0560
    134  CG        -9.7170   35.1920   55.6530 C.ar  177  TYR177     -0.0198
    135  CD1       -9.9460   36.3440   54.9280 C.ar  177  TYR177     -0.0009
    136  CD2       -8.5290   35.0840   56.3650 C.ar  177  TYR177     -0.0009
    137  CE1       -9.0300   37.3600   54.8990 C.ar  177  TYR177      0.0417
    138  CE2       -7.6000   36.0990   56.3460 C.ar  177  TYR177      0.0417
    139  CZ        -7.8630   37.2390   55.6080 C.ar  177  TYR177      0.1957
    140  OH        -6.9510   38.2590   55.5760 O.3   177  TYR177     -0.2866
    141  N         -8.5460   27.9470   53.4690 N.3   181  VAL181     -0.1245
    142  CA        -7.6340   29.0320   53.1100 C.3   181  VAL181      0.1561
    143  C         -6.6360   29.2750   54.2290 C.2   181  VAL181      0.2260
    144  O         -5.4200   29.3610   54.0020 O.2   181  VAL181     -0.2867
    145  CB        -8.4090   30.3250   52.7870 C.3   181  VAL181      0.0252
    146  CG1       -7.5750   31.5490   53.1390 C.3   181  VAL181      0.0019
    147  CG2       -8.7400   30.4100   51.3190 C.3   181  VAL181      0.0019
    148  N         -4.3900   26.2980   54.7340 N.3   184  ASP184     -0.1225
    149  CA        -3.4100   26.2170   53.6560 C.3   184  ASP184      0.1805
    150  C         -2.3050   27.2510   53.8590 C.2   184  ASP184      0.2598
    151  O         -1.1150   26.9250   53.7800 O.2   184  ASP184     -0.2718
    152  CB        -4.1220   26.4040   52.3130 C.3   184  ASP184      0.1424
    153  CG        -3.3950   25.7410   51.1460 C.2   184  ASP184      0.3668
    154  OD1       -2.3960   25.0110   51.3640 O.co2 184  ASP184     -0.2456
    155  OD2       -3.8640   25.9290   49.9950 O.co2 184  ASP184     -0.2456
    156  N         -2.6860   28.5030   54.1500 N.am  185  GLY185     -0.1957
    157  CA        -1.7040   29.5440   54.3950 C.3   185  GLY185      0.1869
    158  C         -0.8120   29.2700   55.5910 C.2   185  GLY185      0.2309
    159  O          0.3730   29.6310   55.5930 O.2   185  GLY185     -0.2863
    160  N          5.6490   31.3630   52.2720 N.3   191  TRP191     -0.1227
    161  CA         4.8690   32.0270   51.2350 C.3   191  TRP191      0.1737
    162  C          3.8880   33.0250   51.8450 C.2   191  TRP191      0.2596
    163  O          3.7540   34.1560   51.3570 O.2   191  TRP191     -0.2718
    164  CB         4.1380   30.9790   50.3960 C.3   191  TRP191      0.0564
    165  CG         3.3210   31.5390   49.2730 C.ar  191  TRP191      0.0003
    166  CD1        3.6950   31.6780   47.9740 C.ar  191  TRP191      0.0946
    167  CD2        1.9830   32.0160   49.3620 C.ar  191  TRP191      0.0152
    168  NE1        2.6760   32.2390   47.2440 N.ar  191  TRP191     -0.2442
    169  CE2        1.6070   32.4460   48.0790 C.ar  191  TRP191      0.0810
    170  CE3        1.0680   32.1390   50.4080 C.ar  191  TRP191      0.0012
    171  CZ2        0.3610   32.9980   47.8180 C.ar  191  TRP191      0.0191
    172  CZ3       -0.1680   32.6960   50.1410 C.ar  191  TRP191      0.0001
    173  CH2       -0.5060   33.1170   48.8600 C.ar  191  TRP191      0.0015
    174  N          3.2180   32.6270   52.9300 N.am  192  SER192     -0.1952
    175  CA         2.2230   33.4910   53.5580 C.3   192  SER192      0.1924
    176  C          2.8660   34.7640   54.0890 C.2   192  SER192      0.2314
    177  O          2.3200   35.8660   53.9310 O.2   192  SER192     -0.2863
    178  CB         1.5180   32.7390   54.6820 C.3   192  SER192      0.2116
    179  OG         0.7300   31.6980   54.1590 O.3   192  SER192     -0.2180
    180  N          3.3880   36.9480   51.4500 N.3   195  PHE195     -0.1241
    181  CA         2.1060   37.4610   50.9700 C.3   195  PHE195      0.1605
    182  C          1.5950   38.6090   51.8310 C.2   195  PHE195      0.2264
    183  O          1.1270   39.6250   51.3060 O.2   195  PHE195     -0.2867
    184  CB         1.0760   36.3340   50.9340 C.3   195  PHE195      0.0534
    185  CG        -0.3020   36.7680   50.4840 C.ar  195  PHE195     -0.0203
    186  CD1       -0.5340   37.2410   49.2040 C.ar  195  PHE195     -0.0042
    187  CD2       -1.3740   36.6880   51.3570 C.ar  195  PHE195     -0.0042
    188  CE1       -1.8170   37.6390   48.8180 C.ar  195  PHE195     -0.0003
    189  CE2       -2.6460   37.0720   50.9670 C.ar  195  PHE195     -0.0003
    190  CZ        -2.8610   37.5480   49.6950 C.ar  195  PHE195     -0.0000
    191  N         -1.9300   41.7850   48.2370 N.3   200  MET200     -0.1231
    192  CA        -2.6020   41.0690   47.1560 C.3   200  MET200      0.1687
    193  C         -2.0240   41.5230   45.8220 C.2   200  MET200      0.2434
    194  O         -1.9560   42.7280   45.5670 O.2   200  MET200     -0.2733
    195  CB        -4.1140   41.3090   47.1610 C.3   200  MET200      0.0400
    196  CG        -4.9290   40.0930   47.5660 C.3   200  MET200      0.0596
    197  SD        -5.1380   38.8990   46.2440 S.3   200  MET200     -0.1393
    198  CE        -6.6180   38.0750   46.8330 C.3   200  MET200      0.0692
    199  N         -1.5910   40.6070   44.9560 N.am  201  PRO201     -0.2729
    200  CA        -1.1340   41.0250   43.6290 C.3   201  PRO201      0.1401
    201  C         -2.2800   41.6170   42.8180 C.2   201  PRO201      0.2269
    202  O         -3.4560   41.3320   43.0520 O.2   201  PRO201     -0.2865
    203  CB        -0.5780   39.7270   43.0130 C.3   201  PRO201      0.0296
    204  CG        -1.1290   38.6420   43.8020 C.3   201  PRO201      0.0237
    205  CD        -1.4000   39.1600   45.1690 C.3   201  PRO201      0.0939
    206  N         -8.0680   44.1650   43.0160 N.3   214  LEU214     -0.1245
    207  CA        -7.9870   42.9870   42.1530 C.3   214  LEU214      0.1561
    208  C         -9.3730   42.5500   41.6980 C.2   214  LEU214      0.2260
    209  O         -9.5800   42.2540   40.5160 O.2   214  LEU214     -0.2867
    210  CB        -7.2700   41.8360   42.8660 C.3   214  LEU214      0.0270
    211  CG        -7.1980   40.5100   42.0820 C.3   214  LEU214      0.0019
    212  CD1       -6.4040   40.6730   40.8020 C.3   214  LEU214      0.0001
    213  CD2       -6.6240   39.3870   42.9210 C.3   214  LEU214      0.0001
@<TRIPOS>BOND
     1    52    53    1
     2    53    54    1
     3    53    56    1
     4    54    55    2
     5    59    57   am
     6    56    57    1
     7    57    58    2
     8    70    68    1
     9    67    68    2
    10    67    66    1
    11    68    69    1
    12    65    66    1
    13    65    64    1
    14    60    61    1
    15    61    64    1
    16    61    62    1
    17    35    36    1
    18    34    33    1
    19    62    63    2
    20    33    31   ar
    21    33    32   ar
    22    31    29   ar
    23    26    25    2
    24    85    84    1
    25    36    39    1
    26    36    37    1
    27    40    42    1
    28    40    39    1
    29    40    41    1
    30    78    76   ar
    31    32    30   ar
    32    29    28   ar
    33    37    38    2
    34    84    86    1
    35    84    83    1
    36    25    24    1
    37    30    28   ar
    38    28    27    1
    39    76    75    1
    40    76    77   ar
    41   114   112    1
    42    75    72    1
    43    24    27    1
    44    24    23    1
    45    43    44    1
    46    83    80    1
    47   105   104    1
    48   105   106    1
    49   112   111    1
    50   209   208    2
    51    71    72    1
    52   212   211    1
    53   104   103    1
    54    79    80    1
    55    79    73   am
    56   103   102    1
    57    72    73    1
    58   111   113    1
    59   111   108    1
    60    80    81    1
    61    44    45    1
    62    90    89    2
    63    73    74    2
    64   208   207    1
    65   107   108    1
    66   107   100   am
    67   211   210    1
    68   211   213    1
    69   207   210    1
    70   207   206    1
    71    94    96   ar
    72    94    92   ar
    73   102    99    1
    74    99   100    1
    75    99    98    1
    76    96    97   ar
    77    47    45   am
    78    47    48    1
    79    19    18    2
    80   108   109    1
    81    45    46    2
    82    89    98   am
    83    89    88    1
    84    81    82    2
    85    51    48    1
    86   201   202    2
    87   201   200    1
    88   100   101    2
    89   203   200    1
    90   203   204    1
    91    91    92    1
    92    91    88    1
    93    48    49    1
    94    92    93   ar
    95    97    95   ar
    96    18    17    1
    97    49    50    2
    98   200   199    1
    99   109   110    2
   100    88    87    1
   101   204   205    1
   102    21    20    1
   103    11    10    2
   104    17    20    1
   105    17    16    1
   106    93    95   ar
   107   199   205    1
   108   199   193   am
   109    20    22    1
   110    10    16   am
   111    10     9    1
   112   194   193    2
   113   193   192    1
   114   197   198    1
   115   197   196    1
   116     9    12    1
   117     9     8    1
   118   121   120    1
   119   121   122    1
   120    13    12    1
   121    13    14    1
   122   120   119    1
   123   115   116    1
   124     4     3    2
   125   192   195    1
   126   192   191    1
   127   195   196    1
   128   168   166   ar
   129   168   169   ar
   130    14    15    1
   131   116   119    1
   132   116   117    1
   133   171   169   ar
   134   171   173   ar
   135   166   165   ar
   136   169   167   ar
   137     3     2    1
   138     7     1    1
   139     7     6    1
   140   188   186   ar
   141   188   190   ar
   142     1     2    1
   143   173   172   ar
   144     6     5    1
   145   117   118    2
   146   117   123   am
   147   186   185   ar
   148   165   167   ar
   149   165   164    1
   150   167   170   ar
   151     2     5    1
   152   190   189   ar
   153   123   124    1
   154   155   153   ar
   155   172   170   ar
   156   164   161    1
   157   185   184    1
   158   185   187   ar
   159   184   181    1
   160   189   187   ar
   161   181   180    1
   162   181   182    1
   163   153   154   ar
   164   153   152    1
   165   161   162    1
   166   161   160    1
   167   183   182    2
   168   147   145    1
   169   163   162    2
   170   124   127    1
   171   124   125    1
   172   127   128    1
   173   126   125    2
   174   162   174   am
   175   125   129   am
   176   152   149    1
   177   145   142    1
   178   145   146    1
   179   174   175    1
   180   142   141    1
   181   142   143    1
   182   129   130    1
   183   175   176    1
   184   175   178    1
   185   149   150    1
   186   149   148    1
   187   151   150    2
   188   150   156   am
   189   177   176    2
   190   144   143    2
   191   132   131    2
   192   156   157    1
   193   179   178    1
   194   130   131    1
   195   130   133    1
   196   157   158    1
   197   137   135   ar
   198   137   139   ar
   199   135   134   ar
   200   140   139    1
   201   158   159    2
   202   139   138   ar
   203   134   133    1
   204   134   136   ar
   205   138   136   ar
