@<TRIPOS>MOLECULE
tmp/6bfgA00.pdb
 216 206 0 0 0
SMALL
GASTEIGER

@<TRIPOS>ATOM
      1  N         25.5740    3.5360   40.9490 N.3    24  TYR24      -0.1227
      2  CA        26.5000    3.7230   39.8330 C.3    24  TYR24       0.1736
      3  C         26.4210    2.5510   38.8530 C.2    24  TYR24       0.2595
      4  O         26.3800    2.7370   37.6270 O.2    24  TYR24      -0.2718
      5  CB        27.9310    3.8840   40.3500 C.3    24  TYR24       0.0548
      6  CG        28.9840    3.6610   39.2840 C.ar   24  TYR24      -0.0200
      7  CD1       29.3360    4.6630   38.3890 C.ar   24  TYR24      -0.0009
      8  CD2       29.6310    2.4470   39.1780 C.ar   24  TYR24      -0.0009
      9  CE1       30.3100    4.4400   37.3920 C.ar   24  TYR24       0.0417
     10  CE2       30.5710    2.2130   38.2120 C.ar   24  TYR24       0.0417
     11  CZ        30.9050    3.1870   37.3140 C.ar   24  TYR24       0.1957
     12  OH        31.8890    2.8910   36.3680 O.3    24  TYR24      -0.2866
     13  N         26.3460    1.3320   39.3730 N.am   25  LEU25      -0.1980
     14  CA        26.2660    0.1760   38.4870 C.3    25  LEU25       0.1596
     15  C         24.9360    0.1270   37.7440 C.2    25  LEU25       0.2287
     16  O         24.8980   -0.1160   36.5300 O.2    25  LEU25      -0.2864
     17  CB        26.4590   -1.0940   39.2980 C.3    25  LEU25       0.0297
     18  CG        26.0810   -2.4160   38.6280 C.3    25  LEU25       0.0022
     19  CD1       26.9570   -2.6000   37.4020 C.3    25  LEU25       0.0001
     20  CD2       26.3920   -3.4880   39.6060 C.3    25  LEU25       0.0001
     21  N         15.5020   -0.6340   26.6780 N.3    38  ASN38      -0.1240
     22  CA        16.4630   -1.6660   26.3000 C.3    38  ASN38       0.1653
     23  C         15.9540   -3.0630   26.6400 C.2    38  ASN38       0.2266
     24  O         16.1700   -4.0010   25.8670 O.2    38  ASN38      -0.2867
     25  CB        17.8080   -1.4120   26.9800 C.3    38  ASN38       0.1155
     26  CG        18.6280   -0.3380   26.2750 C.2    38  ASN38       0.2627
     27  OD1       18.1940    0.2350   25.2800 O.2    38  ASN38      -0.2716
     28  ND2       19.8270   -0.0840   26.7750 N.am   38  ASN38      -0.0877
     29  N         31.9400   -7.5860   28.0870 N.3    76  GLY76      -0.1210
     30  CA        32.3390   -6.3260   27.5120 C.3    76  GLY76       0.1940
     31  C         32.9930   -5.4180   28.5400 C.2    76  GLY76       0.2454
     32  O         33.0960   -5.7330   29.7490 O.2    76  GLY76      -0.2732
     33  N         33.4680   -4.2680   28.0580 N.am   77  PRO77      -0.2717
     34  CA        34.2430   -3.3570   28.9000 C.3    77  PRO77       0.1536
     35  C         33.3540   -2.5390   29.8110 C.2    77  PRO77       0.2599
     36  O         32.4110   -1.8780   29.3500 O.2    77  PRO77      -0.2715
     37  CB        34.9240   -2.4340   27.8890 C.3    77  PRO77       0.0310
     38  CG        33.9100   -2.3640   26.7610 C.3    77  PRO77       0.0237
     39  CD        33.3820   -3.7850   26.6700 C.3    77  PRO77       0.0939
     40  N         33.7220   -2.5090   31.0930 N.am   78  THR78      -0.1937
     41  CA        33.0670   -1.6540   32.0770 C.3    78  THR78       0.2028
     42  C         34.1400   -1.0570   32.9840 C.2    78  THR78       0.2642
     43  O         35.0200   -1.7950   33.4450 O.2    78  THR78      -0.2714
     44  CB        32.0710   -2.4750   32.9020 C.3    78  THR78       0.1808
     45  OG1       32.7630   -3.5830   33.5330 O.3    78  THR78      -0.2208
     46  CG2       30.9640   -3.0190   31.9740 C.3    78  THR78       0.0379
     47  N         34.0670    0.2550   33.2780 N.am   79  GLY79      -0.1954
     48  CA        35.0170    0.8390   34.2000 C.3    79  GLY79       0.1869
     49  C         34.6630    0.6520   35.6750 C.2    79  GLY79       0.2309
     50  O         33.5260    0.4330   36.0500 O.2    79  GLY79      -0.2863
     51  N         33.4490   -2.9730   42.7880 N.3    84  LEU84      -0.1245
     52  CA        32.4640   -4.0250   43.0110 C.3    84  LEU84       0.1561
     53  C         33.0640   -5.1910   43.7660 C.2    84  LEU84       0.2260
     54  O         32.3710   -5.8540   44.5500 O.2    84  LEU84      -0.2867
     55  CB        31.9280   -4.5020   41.6700 C.3    84  LEU84       0.0270
     56  CG        31.3070   -3.4180   40.7960 C.3    84  LEU84       0.0019
     57  CD1       30.7660   -4.0520   39.5230 C.3    84  LEU84       0.0001
     58  CD2       30.2410   -2.6590   41.5380 C.3    84  LEU84       0.0001
     59  N         38.5610   -2.2930   30.0580 N.3   106  SER106     -0.1217
     60  CA        38.1980   -0.8950   29.8770 C.3   106  SER106      0.1889
     61  C         39.4030    0.0380   30.0370 C.2   106  SER106      0.2288
     62  O         40.2160   -0.1360   30.9510 O.2   106  SER106     -0.2866
     63  CB        37.1420   -0.4990   30.9040 C.3   106  SER106      0.2089
     64  OG        36.9530    0.9120   30.9310 O.3   106  SER106     -0.2183
     65  N         39.5040   -1.8150   25.0960 N.3   127  GLN127     -0.1245
     66  CA        38.6780   -0.7450   24.5690 C.3   127  GLN127      0.1566
     67  C         39.2950    0.6030   24.9040 C.2   127  GLN127      0.2260
     68  O         39.5410    0.9220   26.0740 O.2   127  GLN127     -0.2867
     69  CB        37.2140   -0.7620   25.0530 C.3   127  GLN127      0.0367
     70  CG        36.9390   -0.2940   26.4420 C.3   127  GLN127      0.0905
     71  CD        36.6200    1.1490   26.6690 C.2   127  GLN127      0.2608
     72  OE1       36.4620    1.5110   27.8390 O.2   127  GLN127     -0.2717
     73  NE2       36.5870    2.0200   25.6260 N.am  127  GLN127     -0.0878
     74  N         38.7680    4.7370   24.6670 N.3   129  TYR129     -0.1241
     75  CA        37.8390    5.8530   24.4930 C.3   129  TYR129      0.1605
     76  C         38.3040    6.7970   23.3790 C.2   129  TYR129      0.2264
     77  O         39.4710    6.7970   22.9800 O.2   129  TYR129     -0.2867
     78  CB        37.7180    6.6610   25.7720 C.3   129  TYR129      0.0534
     79  CG        36.9250    6.0630   26.8930 C.ar  129  TYR129     -0.0201
     80  CD1       35.6380    5.6150   26.6950 C.ar  129  TYR129     -0.0009
     81  CD2       37.4320    6.0440   28.1820 C.ar  129  TYR129     -0.0009
     82  CE1       34.8930    5.1170   27.7450 C.ar  129  TYR129      0.0417
     83  CE2       36.6990    5.5410   29.2320 C.ar  129  TYR129      0.0417
     84  CZ        35.4410    5.0800   29.0210 C.ar  129  TYR129      0.1957
     85  OH        34.7100    4.5940   30.1050 O.3   129  TYR129     -0.2866
     86  N         35.4330    2.9930   21.6580 N.3   154  THR154     -0.1218
     87  CA        34.1270    3.4400   22.1510 C.3   154  THR154      0.1862
     88  C         33.9400    4.9090   21.7810 C.2   154  THR154      0.2287
     89  O         34.7410    5.7610   22.1880 O.2   154  THR154     -0.2866
     90  CB        34.0010    3.2570   23.6670 C.3   154  THR154      0.1770
     91  OG1       34.1160    1.8660   24.0180 O.3   154  THR154     -0.2211
     92  CG2       32.6290    3.7510   24.1530 C.3   154  THR154      0.0375
     93  N         32.6020    0.7270   18.6090 N.3   248  LYS248     -0.1245
     94  CA        31.5280    0.4760   19.5620 C.3   248  LYS248      0.1561
     95  C         30.7100    1.7370   19.8080 C.2   248  LYS248      0.2260
     96  O         31.2540    2.8400   19.8460 O.2   248  LYS248     -0.2867
     97  CB        32.1040   -0.0050   20.9070 C.3   248  LYS248      0.0271
     98  CG        31.0680   -0.2450   22.0440 C.3   248  LYS248      0.0035
     99  CD        31.7060   -0.9660   23.2440 C.3   248  LYS248      0.0206
    100  CE        30.7800   -1.0130   24.4590 C.3   248  LYS248      0.1093
    101  NZ        30.6370    0.3100   25.1140 N.3   248  LYS248     -0.1314
    102  N         25.3890   -0.3480   20.1050 N.3   270  SER270     -0.1217
    103  CA        25.3530   -0.1000   21.5420 C.3   270  SER270      0.1889
    104  C         24.8030    1.2950   21.8230 C.2   270  SER270      0.2288
    105  O         25.0190    2.2380   21.0400 O.2   270  SER270     -0.2866
    106  CB        26.7540   -0.2430   22.1460 C.3   270  SER270      0.2089
    107  OG        26.7560    0.0080   23.5460 O.3   270  SER270     -0.2183
    108  N         25.3970    1.9720   25.2250 N.3   272  HIS272     -0.1226
    109  CA        26.1590    2.1190   26.4550 C.3   272  HIS272      0.1752
    110  C         25.2950    1.7650   27.6440 C.2   272  HIS272      0.2596
    111  O         25.4530    2.3220   28.7430 O.2   272  HIS272     -0.2718
    112  CB        26.7070    3.5430   26.5770 C.3   272  HIS272      0.0759
    113  CG        27.9600    3.6760   27.3870 C.ar  272  HIS272      0.0818
    114  ND1       29.1890    3.9230   26.8140 N.ar  272  HIS272     -0.2268
    115  CD2       28.1680    3.6560   28.7260 C.ar  272  HIS272      0.1154
    116  CE1       30.1000    4.0370   27.7660 C.ar  272  HIS272      0.1986
    117  NE2       29.5070    3.8870   28.9360 N.ar  272  HIS272     -0.2212
    118  N         24.4020    0.8100   27.4000 N.am  273  GLY273     -0.1957
    119  CA        23.4760    0.3330   28.4170 C.3   273  GLY273      0.1869
    120  C         22.5520    1.4030   28.9610 C.2   273  GLY273      0.2309
    121  O         22.2840    1.4220   30.1720 O.2   273  GLY273     -0.2863
    122  N         23.1590    4.5020   29.4780 N.3   275  ARG275     -0.1245
    123  CA        23.8600    5.3430   30.4420 C.3   275  ARG275      0.1563
    124  C         24.2490    6.6990   29.8870 C.2   275  ARG275      0.2260
    125  O         24.6060    7.5890   30.6740 O.2   275  ARG275     -0.2867
    126  CB        25.1080    4.6240   30.9420 C.3   275  ARG275      0.0307
    127  CG        24.8240    3.4250   31.8530 C.3   275  ARG275      0.0489
    128  CD        26.0370    2.5350   32.0020 C.3   275  ARG275      0.2205
    129  NE        27.0570    3.1260   32.8980 N.pl3 275  ARG275     -0.0865
    130  CZ        26.9640    3.1630   34.2280 C.cat 275  ARG275      0.5346
    131  NH1       25.8930    2.6770   34.8400 N.pl3 275  ARG275      0.1354
    132  NH2       27.9270    3.6760   34.9490 N.pl3 275  ARG275      0.1354
    133  N         25.3520   -5.0000   22.2160 N.3   301  ASP301     -0.1225
    134  CA        25.1130   -5.0690   23.6570 C.3   301  ASP301      0.1805
    135  C         23.9370   -4.1410   23.9800 C.2   301  ASP301      0.2598
    136  O         23.2980   -3.6050   23.0740 O.2   301  ASP301     -0.2718
    137  CB        26.3910   -4.7310   24.4310 C.3   301  ASP301      0.1424
    138  CG        26.7730   -3.2410   24.3450 C.2   301  ASP301      0.3668
    139  OD1       25.9070   -2.3520   24.0370 O.co2 301  ASP301     -0.2456
    140  OD2       27.9660   -2.9680   24.5920 O.co2 301  ASP301     -0.2456
    141  N         23.6340   -3.9820   25.2800 N.am  302  SER302     -0.1938
    142  CA        22.6110   -3.0760   25.8190 C.3   302  SER302      0.2055
    143  C         21.2620   -3.7420   26.0280 C.2   302  SER302      0.2644
    144  O         20.4690   -3.9010   25.0810 O.2   302  SER302     -0.2714
    145  CB        22.4280   -1.8340   24.9390 C.3   302  SER302      0.2130
    146  OG        23.6360   -1.1080   24.8330 O.3   302  SER302     -0.2179
    147  N         20.9970   -4.1500   27.2760 N.am  303  GLY303     -0.1939
    148  CA        19.7360   -4.7720   27.6520 C.3   303  GLY303      0.2014
    149  C         19.7350   -6.2840   27.8600 C.2   303  GLY303      0.2639
    150  O         18.6950   -6.8180   28.2430 O.2   303  GLY303     -0.2714
    151  N         20.8340   -7.0070   27.6470 N.am  304  PHE304     -0.1959
    152  CA        20.7250   -8.4690   27.6150 C.3   304  PHE304      0.1771
    153  C         20.7690   -9.0550   29.0250 C.2   304  PHE304      0.2619
    154  O         21.7370   -8.8320   29.7680 O.2   304  PHE304     -0.2715
    155  CB        21.8210   -9.0580   26.7560 C.3   304  PHE304      0.0574
    156  CG        21.6870   -8.6840   25.3030 C.ar  304  PHE304     -0.0200
    157  CD1       22.1630   -7.4630   24.8490 C.ar  304  PHE304     -0.0042
    158  CD2       21.0700   -9.5320   24.4020 C.ar  304  PHE304     -0.0042
    159  CE1       22.0330   -7.1150   23.5200 C.ar  304  PHE304     -0.0003
    160  CE2       20.9240   -9.1770   23.0560 C.ar  304  PHE304     -0.0003
    161  CZ        21.4070   -7.9600   22.6170 C.ar  304  PHE304     -0.0000
    162  N         19.7270   -9.8220   29.3840 N.am  305  ARG305     -0.1977
    163  CA        19.6210  -10.4510   30.6960 C.3   305  ARG305      0.1597
    164  C         19.2040  -11.9160   30.6430 C.2   305  ARG305      0.2287
    165  O         19.4970  -12.6550   31.5890 O.2   305  ARG305     -0.2864
    166  CB        18.6010   -9.7180   31.5790 C.3   305  ARG305      0.0334
    167  CG        18.8640   -8.1710   31.7650 C.3   305  ARG305      0.0492
    168  CD        20.0390   -7.8510   32.7000 C.3   305  ARG305      0.2205
    169  NE        20.1730   -6.3970   32.8110 N.pl3 305  ARG305     -0.0865
    170  CZ        20.7720   -5.6320   31.9100 C.cat 305  ARG305      0.5346
    171  NH1       21.3370   -6.1990   30.8340 N.pl3 305  ARG305      0.1354
    172  NH2       20.7600   -4.3020   32.0720 N.pl3 305  ARG305      0.1354
    173  N         27.7440   -8.8250   23.8030 N.3   322  LEU322     -0.1231
    174  CA        28.5620   -8.4600   24.9440 C.3   322  LEU322      0.1693
    175  C         27.6720   -8.2300   26.1550 C.2   322  LEU322      0.2592
    176  O         26.5610   -7.7010   26.0350 O.2   322  LEU322     -0.2718
    177  CB        29.3950   -7.1880   24.6720 C.3   322  LEU322      0.0284
    178  CG        30.5060   -7.3310   23.6310 C.3   322  LEU322      0.0019
    179  CD1       29.9560   -7.1380   22.2320 C.3   322  LEU322      0.0001
    180  CD2       31.6020   -6.2890   23.8940 C.3   322  LEU322      0.0001
    181  N         28.1470   -8.6780   27.3060 N.am  323  LEU323     -0.1966
    182  CA        27.4620   -8.5090   28.5710 C.3   323  LEU323      0.1728
    183  C         28.0940   -7.3780   29.3580 C.2   323  LEU323      0.2617
    184  O         29.3280   -7.2930   29.4630 O.2   323  LEU323     -0.2715
    185  CB        27.5240   -9.7990   29.3770 C.3   323  LEU323      0.0311
    186  CG        26.8760  -10.9720   28.6090 C.3   323  LEU323      0.0022
    187  CD1       27.1440  -12.2550   29.3110 C.3   323  LEU323      0.0001
    188  CD2       25.3530  -10.7810   28.4470 C.3   323  LEU323      0.0001
    189  N         27.2470   -6.5130   29.9040 N.am  324  GLY324     -0.1940
    190  CA        27.7040   -5.5460   30.8450 C.3   324  GLY324      0.2014
    191  C         27.2370   -5.9060   32.2300 C.2   324  GLY324      0.2639
    192  O         27.9220   -6.6480   32.9480 O.2   324  GLY324     -0.2714
    193  N         26.0700   -5.4030   32.6140 N.am  325  ARG325     -0.1963
    194  CA        25.6250   -5.5760   33.9970 C.3   325  ARG325      0.1729
    195  C         25.4290   -7.0370   34.3740 C.2   325  ARG325      0.2616
    196  O         25.6150   -7.3970   35.5440 O.2   325  ARG325     -0.2715
    197  CB        24.3210   -4.8110   34.2170 C.3   325  ARG325      0.0348
    198  CG        24.5420   -3.2960   34.1540 C.3   325  ARG325      0.0492
    199  CD        23.2520   -2.6170   34.4550 C.3   325  ARG325      0.2205
    200  NE        23.1590   -1.1880   34.2510 N.pl3 325  ARG325     -0.0865
    201  CZ        22.9410   -0.6030   33.0770 C.cat 325  ARG325      0.5346
    202  NH1       22.8630   -1.3080   31.9660 N.pl3 325  ARG325      0.1354
    203  NH2       22.7540    0.7370   33.0230 N.pl3 325  ARG325      0.1354
    204  N         24.9750   -7.8790   33.4400 N.am  326  ALA326     -0.1977
    205  CA        24.6310   -9.2570   33.8130 C.3   326  ALA326      0.1597
    206  C         25.7890   -9.9310   34.5360 C.2   326  ALA326      0.2287
    207  O         25.6310  -10.4030   35.6630 O.2   326  ALA326     -0.2864
    208  CB        24.2190  -10.0670   32.5870 C.3   326  ALA326      0.0319
    209  N         28.3810   -8.2650   35.7360 N.3   328  LEU328     -0.1245
    210  CA        28.7460   -7.4450   36.8890 C.3   328  LEU328      0.1561
    211  C         27.9300   -7.8020   38.1260 C.2   328  LEU328      0.2260
    212  O         28.4280   -7.6740   39.2510 O.2   328  LEU328     -0.2867
    213  CB        28.5740   -5.9540   36.5660 C.3   328  LEU328      0.0270
    214  CG        29.5710   -5.2950   35.5990 C.3   328  LEU328      0.0019
    215  CD1       29.4170   -3.7720   35.6500 C.3   328  LEU328      0.0001
    216  CD2       31.0030   -5.7170   35.8910 C.3   328  LEU328      0.0001
@<TRIPOS>BOND
     1    93    94    1
     2    94    95    1
     3    94    97    1
     4    95    96    2
     5   102   103    1
     6    97    98    1
     7   105   104    2
     8   103   104    1
     9   103   106    1
    10    86    87    1
    11    88    87    1
    12    88    89    2
    13    98    99    1
    14   106   107    1
    15    87    90    1
    16   133   134    1
    17   179   178    1
    18   161   160   ar
    19   161   159   ar
    20    77    76    2
    21   160   158   ar
    22   136   135    2
    23    99   100    1
    24    76    75    1
    25   159   157   ar
    26   178   180    1
    27   178   177    1
    28   134   135    1
    29   134   137    1
    30    90    91    1
    31    90    92    1
    32   173   174    1
    33   135   141   am
    34   139   138   ar
    35   138   137    1
    36   138   140   ar
    37   158   156   ar
    38   100   101    1
    39    75    74    1
    40    75    78    1
    41    66    67    1
    42    66    69    1
    43    66    65    1
    44   177   174    1
    45   146   145    1
    46   157   156   ar
    47    67    68    2
    48   145   142    1
    49   174   175    1
    50    69    70    1
    51   144   143    2
    52   108   109    1
    53   141   142    1
    54    27    26    2
    55   156   155    1
    56    73    71   am
    57    78    79    1
    58   142   143    1
    59    24    23    2
    60   143   147   am
    61   176   175    2
    62   175   181   am
    63    26    28   am
    64    26    25    1
    65    22    23    1
    66    22    21    1
    67    22    25    1
    68    70    71    1
    69   109   112    1
    70   109   110    1
    71   112   113    1
    72    71    72    2
    73    39    38    1
    74    39    33    1
    75    80    79   ar
    76    80    82   ar
    77   155   152    1
    78    38    37    1
    79   114   113   ar
    80   114   116   ar
    81    79    81   ar
    82   147   148    1
    83   181   182    1
    84   113   115   ar
    85   118   110   am
    86   118   119    1
    87    30    29    1
    88    30    31    1
    89   152   151    1
    90   152   153    1
    91   110   111    2
    92   151   149   am
    93   148   149    1
    94    82    84   ar
    95   116   117   ar
    96   149   150    2
    97    37    34    1
    98    33    31   am
    99    33    34    1
   100    81    83   ar
   101   119   120    1
   102   188   186    1
   103    31    32    2
   104   182   183    1
   105   182   185    1
   106   186   187    1
   107   186   185    1
   108   115   117   ar
   109    34    35    1
   110   120   121    2
   111    84    83   ar
   112    84    85    1
   113   153   162   am
   114   153   154    2
   115    36    35    2
   116   183   184    2
   117   183   189   am
   118   162   163    1
   119   122   123    1
   120    35    40   am
   121    60    61    1
   122    60    59    1
   123    60    63    1
   124   124   123    1
   125   124   125    2
   126   189   190    1
   127    61    62    2
   128   123   126    1
   129   164   163    1
   130   164   165    2
   131   163   166    1
   132   171   170    1
   133   190   191    1
   134    63    64    1
   135   126   127    1
   136    40    41    1
   137   166   167    1
   138   167   168    1
   139   127   128    1
   140   170   172    1
   141   170   169    2
   142   202   201    1
   143    46    44    1
   144   128   129    1
   145    41    44    1
   146    41    42    1
   147   191   193   am
   148   191   192    2
   149   208   205    1
   150   193   194    1
   151   168   169    1
   152   129   130    2
   153    44    45    1
   154    42    47   am
   155    42    43    2
   156   203   201    1
   157   201   200    2
   158    47    48    1
   159   204   205    1
   160   204   195   am
   161   205   206    1
   162   194   197    1
   163   194   195    1
   164   198   197    1
   165   198   199    1
   166    48    49    1
   167   130   131    1
   168   130   132    1
   169   200   199    1
   170   195   196    2
   171   206   207    2
   172   214   215    1
   173   214   216    1
   174   214   213    1
   175    49    50    2
   176   209   210    1
   177    12    11    1
   178    16    15    2
   179   213   210    1
   180   210   211    1
   181    11     9   ar
   182    11    10   ar
   183     9     7   ar
   184    19    18    1
   185     4     3    2
   186    15    14    1
   187   211   212    2
   188    10     8   ar
   189     7     6   ar
   190    14    17    1
   191    14    13    1
   192    18    17    1
   193    18    20    1
   194     3    13   am
   195     3     2    1
   196     8     6   ar
   197     6     5    1
   198    57    56    1
   199     2     5    1
   200     2     1    1
   201    56    58    1
   202    56    55    1
   203    55    52    1
   204    51    52    1
   205    52    53    1
   206    53    54    2
