@<TRIPOS>MOLECULE
tmp/6bfhA00.pdb
 207 206 0 0 0
SMALL
GASTEIGER

@<TRIPOS>ATOM
      1  N         31.3090  -27.2810  -15.5460 N.3    30  PHE30      -0.1227
      2  CA        30.9290  -28.3720  -14.6620 C.3    30  PHE30       0.1736
      3  C         30.4230  -27.9260  -13.2920 C.2    30  PHE30       0.2595
      4  O         29.7260  -28.7010  -12.6320 O.2    30  PHE30      -0.2718
      5  CB        32.1130  -29.3320  -14.4900 C.3    30  PHE30       0.0547
      6  CG        32.6210  -29.8930  -15.7950 C.ar   30  PHE30      -0.0202
      7  CD1       31.8910  -30.8510  -16.4850 C.ar   30  PHE30      -0.0042
      8  CD2       33.8180  -29.4460  -16.3440 C.ar   30  PHE30      -0.0042
      9  CE1       32.3460  -31.3640  -17.7110 C.ar   30  PHE30      -0.0003
     10  CE2       34.2850  -29.9580  -17.5600 C.ar   30  PHE30      -0.0003
     11  CZ        33.5440  -30.9200  -18.2400 C.ar   30  PHE30      -0.0000
     12  N         30.7140  -26.6990  -12.8640 N.am   31  TYR31      -0.1962
     13  CA        30.3160  -26.2200  -11.5400 C.3    31  TYR31       0.1771
     14  C         29.8550  -24.7740  -11.6570 C.2    31  TYR31       0.2619
     15  O         30.6090  -23.9380  -12.1660 O.2    31  TYR31      -0.2715
     16  CB        31.4920  -26.3100  -10.5570 C.3    31  TYR31       0.0574
     17  CG        31.1240  -26.1970   -9.0900 C.ar   31  TYR31      -0.0198
     18  CD1       31.0040  -24.9530   -8.4690 C.ar   31  TYR31      -0.0009
     19  CD2       30.9160  -27.3220   -8.3340 C.ar   31  TYR31      -0.0009
     20  CE1       30.6730  -24.8510   -7.1140 C.ar   31  TYR31       0.0417
     21  CE2       30.5920  -27.2300   -6.9780 C.ar   31  TYR31       0.0417
     22  CZ        30.4630  -26.0050   -6.3830 C.ar   31  TYR31       0.1957
     23  OH        30.1270  -25.9600   -5.0450 O.3    31  TYR31      -0.2866
     24  N         28.6300  -24.4850  -11.1840 N.am   32  ASP32      -0.1971
     25  CA        28.0110  -23.1530  -11.1670 C.3    32  ASP32       0.1709
     26  C         27.4260  -22.7550  -12.5270 C.2    32  ASP32       0.2293
     27  O         26.3110  -22.2270  -12.5840 O.2    32  ASP32      -0.2864
     28  CB        28.9950  -22.0780  -10.6810 C.3    32  ASP32       0.1436
     29  CG        28.5710  -21.4550   -9.3510 C.2    32  ASP32       0.3671
     30  OD1       27.4370  -21.7380   -8.9100 O.co2  32  ASP32      -0.2456
     31  OD2       29.3620  -20.6930   -8.7400 O.co2  32  ASP32      -0.2456
     32  N         28.4750  -15.6170   -1.8340 N.3    46  HIS46      -0.1226
     33  CA        28.0520  -17.0080   -1.9730 C.3    46  HIS46       0.1752
     34  C         28.9470  -17.9620   -1.2020 C.2    46  HIS46       0.2596
     35  O         28.4640  -18.9840   -0.7070 O.2    46  HIS46      -0.2718
     36  CB        27.9910  -17.4160   -3.4510 C.3    46  HIS46       0.0759
     37  CG        26.8090  -16.8470   -4.1750 C.ar   46  HIS46       0.0818
     38  ND1       26.8940  -15.7330   -4.9840 N.ar   46  HIS46      -0.2268
     39  CD2       25.5050  -17.2160   -4.1780 C.ar   46  HIS46       0.1154
     40  CE1       25.6990  -15.4560   -5.4750 C.ar   46  HIS46       0.1986
     41  NE2       24.8380  -16.3390   -5.0000 N.ar   46  HIS46      -0.2212
     42  N         30.2360  -17.6640   -1.0650 N.am   47  TYR47      -0.1976
     43  CA        31.1330  -18.6450   -0.4780 C.3    47  TYR47       0.1639
     44  C         31.4770  -18.3420    0.9720 C.2    47  TYR47       0.2290
     45  O         32.3600  -18.9930    1.5330 O.2    47  TYR47      -0.2864
     46  CB        32.3780  -18.8240   -1.3650 C.3    47  TYR47       0.0560
     47  CG        31.9350  -19.5710   -2.6000 C.ar   47  TYR47      -0.0198
     48  CD1       31.7330  -20.9500   -2.5560 C.ar   47  TYR47      -0.0009
     49  CD2       31.5990  -18.8940   -3.7750 C.ar   47  TYR47      -0.0009
     50  CE1       31.2660  -21.6390   -3.6480 C.ar   47  TYR47       0.0417
     51  CE2       31.1290  -19.5830   -4.8870 C.ar   47  TYR47       0.0417
     52  CZ        30.9670  -20.9670   -4.8120 C.ar   47  TYR47       0.1957
     53  OH        30.4890  -21.6770   -5.9020 O.3    47  TYR47      -0.2866
     54  N         28.3760  -17.7530    2.8940 N.3    49  GLU49      -0.1245
     55  CA        27.0170  -17.8530    3.4030 C.3    49  GLU49       0.1567
     56  C         26.8310  -19.1130    4.2470 C.2    49  GLU49       0.2260
     57  O         27.2140  -20.2160    3.8470 O.2    49  GLU49      -0.2867
     58  CB        26.0250  -17.8510    2.2410 C.3    49  GLU49       0.0388
     59  CG        24.5900  -17.9000    2.7000 C.3    49  GLU49       0.1160
     60  CD        23.5990  -17.7520    1.5590 C.2    49  GLU49       0.3649
     61  OE1       24.0290  -17.7170    0.3800 O.co2  49  GLU49      -0.2457
     62  OE2       22.3840  -17.6750    1.8480 O.co2  49  GLU49      -0.2457
     63  N         24.3100  -21.1860    4.9780 N.3    51  TRP51      -0.1241
     64  CA        22.9690  -21.6910    4.6870 C.3    51  TRP51       0.1605
     65  C         22.7190  -23.0940    5.2430 C.2    51  TRP51       0.2264
     66  O         21.6830  -23.6940    4.9390 O.2    51  TRP51      -0.2867
     67  CB        22.7010  -21.6550    3.1820 C.3    51  TRP51       0.0550
     68  CG        23.8470  -22.0980    2.3020 C.ar   51  TRP51       0.0003
     69  CD1       24.6170  -21.3020    1.4980 C.ar   51  TRP51       0.0946
     70  CD2       24.3250  -23.4390    2.1150 C.ar   51  TRP51       0.0152
     71  NE1       25.5440  -22.0670    0.8170 N.ar   51  TRP51      -0.2442
     72  CE2       25.3860  -23.3800    1.1820 C.ar   51  TRP51       0.0810
     73  CE3       23.9370  -24.6860    2.6180 C.ar   51  TRP51       0.0012
     74  CZ2       26.0760  -24.5210    0.7610 C.ar   51  TRP51       0.0191
     75  CZ3       24.6400  -25.8210    2.2090 C.ar   51  TRP51       0.0001
     76  CH2       25.6890  -25.7260    1.2880 C.ar   51  TRP51       0.0015
     77  N         32.4750  -28.2120   -0.5070 N.3    71  GLN71      -0.1245
     78  CA        31.6170  -27.8300    0.6010 C.3    71  GLN71       0.1566
     79  C         30.9440  -29.0880    1.1260 C.2    71  GLN71       0.2260
     80  O         30.3930  -29.8780    0.3530 O.2    71  GLN71      -0.2867
     81  CB        30.5930  -26.7820    0.1810 C.3    71  GLN71       0.0367
     82  CG        29.8880  -27.0700   -1.1510 C.3    71  GLN71       0.0905
     83  CD        29.0680  -25.8760   -1.5970 C.2    71  GLN71       0.2608
     84  OE1       29.5290  -24.7210   -1.5160 O.2    71  GLN71      -0.2717
     85  NE2       27.8410  -26.1350   -2.0440 N.am   71  GLN71      -0.0878
     86  N         28.2850  -30.5280    4.1880 N.3    73  TYR73      -0.1241
     87  CA        27.2830  -30.0140    5.1060 C.3    73  TYR73       0.1605
     88  C         26.4050  -31.1590    5.5930 C.2    73  TYR73       0.2264
     89  O         26.0930  -32.0880    4.8450 O.2    73  TYR73      -0.2867
     90  CB        26.4310  -28.9000    4.4720 C.3    73  TYR73       0.0534
     91  CG        26.0710  -29.1210    3.0090 C.ar   73  TYR73      -0.0201
     92  CD1       27.0210  -28.9780    2.0090 C.ar   73  TYR73      -0.0009
     93  CD2       24.7800  -29.4760    2.6410 C.ar   73  TYR73      -0.0009
     94  CE1       26.6980  -29.1970    0.6610 C.ar   73  TYR73       0.0417
     95  CE2       24.4390  -29.6830    1.3180 C.ar   73  TYR73       0.0417
     96  CZ        25.4010  -29.5440    0.3280 C.ar   73  TYR73       0.1957
     97  OH        25.0720  -29.7500   -0.9900 O.3    73  TYR73      -0.2866
     98  N         15.0030  -29.0090    6.7550 N.3    78  GLU78      -0.1231
     99  CA        14.4570  -28.8760    5.4120 C.3    78  GLU78       0.1699
    100  C         15.4140  -29.3960    4.3460 C.2    78  GLU78       0.2592
    101  O         14.9850  -29.6580    3.2190 O.2    78  GLU78      -0.2718
    102  CB        14.0870  -27.4100    5.1400 C.3    78  GLU78       0.0402
    103  CG        15.2760  -26.4500    5.0180 C.3    78  GLU78       0.1161
    104  CD        16.0110  -26.1950    6.3340 C.2    78  GLU78       0.3649
    105  OE1       15.4350  -26.4350    7.4210 O.co2  78  GLU78      -0.2457
    106  OE2       17.1780  -25.7470    6.2770 O.co2  78  GLU78      -0.2457
    107  N         16.6940  -29.5770    4.6800 N.am   79  LEU79      -0.1980
    108  CA        17.6430  -30.0430    3.6830 C.3    79  LEU79       0.1596
    109  C         17.3250  -31.4520    3.1840 C.2    79  LEU79       0.2287
    110  O         17.6570  -31.7740    2.0390 O.2    79  LEU79      -0.2864
    111  CB        19.0610  -29.9910    4.2360 C.3    79  LEU79       0.0297
    112  CG        19.5280  -28.5930    4.6710 C.3    79  LEU79       0.0022
    113  CD1       21.0210  -28.6170    4.9600 C.3    79  LEU79       0.0001
    114  CD2       19.1880  -27.5310    3.6390 C.3    79  LEU79       0.0001
    115  N         15.3060  -31.5000   -0.0250 N.3    82  GLU82      -0.1231
    116  CA        15.9990  -31.1250   -1.2530 C.3    82  GLU82       0.1699
    117  C         16.4890  -32.3360   -2.0310 C.2    82  GLU82       0.2592
    118  O         16.8080  -32.2050   -3.2190 O.2    82  GLU82      -0.2718
    119  CB        17.1720  -30.1900   -0.9310 C.3    82  GLU82       0.0402
    120  CG        16.7340  -28.8130   -0.4060 C.3    82  GLU82       0.1161
    121  CD        17.9000  -27.8590   -0.1000 C.2    82  GLU82       0.3649
    122  OE1       19.0160  -28.0640   -0.6290 O.co2  82  GLU82      -0.2457
    123  OE2       17.6930  -26.8910    0.6780 O.co2  82  GLU82      -0.2457
    124  N         16.5540  -33.5060   -1.3950 N.am   83  TYR83      -0.1976
    125  CA        16.9430  -34.7500   -2.0580 C.3    83  TYR83       0.1639
    126  C         15.8230  -35.7990   -2.0570 C.2    83  TYR83       0.2290
    127  O         16.0900  -36.9550   -2.3920 O.2    83  TYR83      -0.2864
    128  CB        18.2060  -35.3340   -1.4000 C.3    83  TYR83       0.0560
    129  CG        19.4100  -34.4020   -1.3540 C.ar   83  TYR83      -0.0198
    130  CD1       19.5400  -33.4330   -0.3660 C.ar   83  TYR83      -0.0009
    131  CD2       20.4280  -34.4980   -2.3020 C.ar   83  TYR83      -0.0009
    132  CE1       20.6360  -32.5750   -0.3450 C.ar   83  TYR83       0.0417
    133  CE2       21.5280  -33.6560   -2.2700 C.ar   83  TYR83       0.0417
    134  CZ        21.6250  -32.6970   -1.2910 C.ar   83  TYR83       0.1957
    135  OH        22.7250  -31.8620   -1.2720 O.3    83  TYR83      -0.2866
    136  N         29.5130  -31.0560   -2.2790 N.3    96  ASP96      -0.1225
    137  CA        29.7340  -30.5830   -3.6450 C.3    96  ASP96       0.1805
    138  C         31.2170  -30.2660   -3.7620 C.2    96  ASP96       0.2597
    139  O         31.8320  -29.8270   -2.7920 O.2    96  ASP96      -0.2718
    140  CB        28.9030  -29.3280   -3.9490 C.3    96  ASP96       0.1424
    141  CG        27.4260  -29.5070   -3.6300 C.2    96  ASP96       0.3668
    142  OD1       26.7700  -30.2840   -4.3540 O.co2  96  ASP96      -0.2456
    143  OD2       26.9300  -28.8830   -2.6490 O.co2  96  ASP96      -0.2456
    144  N         31.7970  -30.4660   -4.9490 N.am   97  GLN97      -0.1979
    145  CA        33.2300  -30.2270   -5.0640 C.3    97  GLN97       0.1601
    146  C         33.5820  -29.9820   -6.5210 C.2    97  GLN97       0.2287
    147  O         32.8250  -30.3410   -7.4320 O.2    97  GLN97      -0.2864
    148  CB        34.0530  -31.4060   -4.5230 C.3    97  GLN97       0.0394
    149  CG        34.0620  -32.6120   -5.4460 C.3    97  GLN97       0.0908
    150  CD        33.3030  -33.7840   -4.8620 C.2    97  GLN97       0.2608
    151  OE1       32.1640  -33.6440   -4.4120 O.2    97  GLN97      -0.2717
    152  NE2       33.9350  -34.9470   -4.8530 N.am   97  GLN97      -0.0878
    153  N         25.2190  -35.5770   -5.5840 N.3   133  ASP133     -0.1225
    154  CA        24.1630  -35.5130   -6.6040 C.3   133  ASP133      0.1790
    155  C         24.6850  -34.9810   -7.9460 C.2   133  ASP133      0.2440
    156  O         24.2270  -33.9540   -8.4430 O.2   133  ASP133     -0.2733
    157  CB        22.9830  -34.6760   -6.0960 C.3   133  ASP133      0.1423
    158  CG        23.3650  -33.2220   -5.7630 C.2   133  ASP133      0.3668
    159  OD1       24.5720  -32.9100   -5.6380 O.co2 133  ASP133     -0.2456
    160  OD2       22.4370  -32.3910   -5.6480 O.co2 133  ASP133     -0.2456
    161  N         25.6290  -35.6820   -8.5730 N.am  134  PRO134     -0.2718
    162  CA        26.1360  -35.2290   -9.8810 C.3   134  PRO134      0.1535
    163  C         25.0490  -35.2410  -10.9520 C.2   134  PRO134      0.2598
    164  O         24.0790  -36.0010  -10.8790 O.2   134  PRO134     -0.2715
    165  CB        27.2300  -36.2580  -10.2100 C.3   134  PRO134      0.0310
    166  CG        26.7850  -37.5100   -9.4690 C.3   134  PRO134      0.0237
    167  CD        26.2270  -36.9690   -8.1670 C.3   134  PRO134      0.0939
    168  N         25.2360  -34.4060  -11.9820 N.am  135  ARG135     -0.1978
    169  CA        24.3350  -34.4630  -13.1230 C.3   135  ARG135      0.1597
    170  C         24.5250  -35.7880  -13.8430 C.2   135  ARG135      0.2287
    171  O         25.6360  -36.3220  -13.9170 O.2   135  ARG135     -0.2864
    172  CB        24.5610  -33.2890  -14.0910 C.3   135  ARG135      0.0334
    173  CG        24.3060  -31.9370  -13.4250 C.3   135  ARG135      0.0492
    174  CD        24.4200  -30.7620  -14.3910 C.3   135  ARG135      0.2205
    175  NE        25.6680  -30.7800  -15.1420 N.pl3 135  ARG135     -0.0865
    176  CZ        26.8300  -30.3430  -14.6650 C.cat 135  ARG135      0.5346
    177  NH1       26.9050  -29.8510  -13.4320 N.pl3 135  ARG135      0.1354
    178  NH2       27.9180  -30.4040  -15.4230 N.pl3 135  ARG135      0.1354
    179  N         16.5920  -31.8190  -11.3730 N.3   159  HIS159     -0.1226
    180  CA        17.0530  -31.5570  -10.0140 C.3   159  HIS159      0.1752
    181  C         17.8180  -30.2450   -9.8750 C.2   159  HIS159      0.2595
    182  O         17.6940  -29.5630   -8.8490 O.2   159  HIS159     -0.2718
    183  CB        17.9400  -32.7160   -9.5550 C.3   159  HIS159      0.0759
    184  CG        18.4410  -32.5820   -8.1510 C.ar  159  HIS159      0.0818
    185  ND1       17.5990  -32.5540   -7.0580 N.ar  159  HIS159     -0.2268
    186  CD2       19.7010  -32.4850   -7.6610 C.ar  159  HIS159      0.1154
    187  CE1       18.3200  -32.4440   -5.9550 C.ar  159  HIS159      0.1986
    188  NE2       19.5980  -32.3980   -6.2910 N.ar  159  HIS159     -0.2212
    189  N         18.6300  -29.8860  -10.8690 N.am  160  GLU160     -0.1979
    190  CA        19.6100  -28.8150  -10.7260 C.3   160  GLU160      0.1602
    191  C         19.5370  -27.9030  -11.9400 C.2   160  GLU160      0.2287
    192  O         19.7620  -28.3530  -13.0660 O.2   160  GLU160     -0.2864
    193  CB        21.0260  -29.3900  -10.5690 C.3   160  GLU160      0.0415
    194  CG        22.1490  -28.4070  -10.8860 C.3   160  GLU160      0.1163
    195  CD        23.5430  -29.0010  -10.7130 C.2   160  GLU160      0.3649
    196  OE1       23.8570  -29.4340   -9.5890 O.co2 160  GLU160     -0.2457
    197  OE2       24.3230  -29.0300  -11.7000 O.co2 160  GLU160     -0.2457
    198  N         21.1090  -25.6470  -14.3560 N.3   162  HIS162     -0.1241
    199  CA        22.5010  -25.5020  -14.7650 C.3   162  HIS162      0.1621
    200  C         22.5140  -24.9130  -16.1600 C.2   162  HIS162      0.2264
    201  O         22.0460  -25.5570  -17.1020 O.2   162  HIS162     -0.2867
    202  CB        23.2400  -26.8410  -14.7360 C.3   162  HIS162      0.0745
    203  CG        24.6920  -26.7290  -15.0810 C.ar  162  HIS162      0.0817
    204  ND1       25.6090  -26.1270  -14.2450 N.ar  162  HIS162     -0.2268
    205  CD2       25.3830  -27.1190  -16.1780 C.ar  162  HIS162      0.1154
    206  CE1       26.8040  -26.1660  -14.8050 C.ar  162  HIS162      0.1986
    207  NE2       26.6950  -26.7630  -15.9780 N.ar  162  HIS162     -0.2212
@<TRIPOS>BOND
     1    11     9   ar
     2    11    10   ar
     3     9     7   ar
     4    10     8   ar
     5   201   200    2
     6     7     6   ar
     7     8     6   ar
     8   205   207   ar
     9   205   203   ar
    10   200   199    1
    11   207   206   ar
    12     6     5    1
    13     1     2    1
    14   178   176    1
    15   175   176    2
    16   175   174    1
    17   203   202    1
    18   203   204   ar
    19   206   204   ar
    20   199   202    1
    21   199   198    1
    22   176   177    1
    23     2     5    1
    24     2     3    1
    25   174   173    1
    26   172   173    1
    27   172   169    1
    28   171   170    2
    29   170   169    1
    30     3    12   am
    31     3     4    2
    32   169   168    1
    33   192   191    2
    34    12    13    1
    35    27    26    2
    36    26    25    1
    37    15    14    2
    38   168   163   am
    39   191   190    1
    40   197   195   ar
    41    14    13    1
    42    14    24   am
    43    13    16    1
    44   179   180    1
    45    24    25    1
    46    25    28    1
    47   163   164    2
    48   163   162    1
    49   194   195    1
    50   194   193    1
    51   189   190    1
    52   189   181   am
    53   190   193    1
    54   195   196   ar
    55    28    29    1
    56    16    17    1
    57   165   162    1
    58   165   166    1
    59   180   181    1
    60   180   183    1
    61   162   161    1
    62   181   182    2
    63   183   184    1
    64   166   167    1
    65    29    30   ar
    66    29    31   ar
    67    17    18   ar
    68    17    19   ar
    69   161   167    1
    70   161   155   am
    71    18    20   ar
    72   156   155    2
    73    19    21   ar
    74   184   186   ar
    75   184   185   ar
    76   155   154    1
    77   186   188   ar
    78   147   146    2
    79    20    22   ar
    80   185   187   ar
    81    21    22   ar
    82   154   157    1
    83   154   153    1
    84   146   145    1
    85    22    23    1
    86   188   187   ar
    87   157   158    1
    88    53    52    1
    89   158   160   ar
    90   158   159   ar
    91    40    41   ar
    92    40    38   ar
    93   149   150    1
    94   149   148    1
    95   145   144    1
    96   145   148    1
    97    41    39   ar
    98    38    37   ar
    99   144   138   am
   100    51    52   ar
   101    51    49   ar
   102   150   152   am
   103   150   151    2
   104    52    50   ar
   105   142   141   ar
   106    39    37   ar
   107    37    36    1
   108   140   137    1
   109   140   141    1
   110    49    47   ar
   111   138   137    1
   112   138   139    2
   113    50    48   ar
   114   137   136    1
   115   141   143   ar
   116    36    33    1
   117   118   117    2
   118    47    48   ar
   119    47    46    1
   120   127   126    2
   121   131   133   ar
   122   131   129   ar
   123   133   134   ar
   124   125   126    1
   125   125   128    1
   126   125   124    1
   127    85    83   am
   128   117   124   am
   129   117   116    1
   130    33    32    1
   131    33    34    1
   132    83    84    2
   133    83    82    1
   134   128   129    1
   135    46    43    1
   136   129   130   ar
   137   134   135    1
   138   134   132   ar
   139   116   119    1
   140   116   115    1
   141    34    42   am
   142    34    35    2
   143    82    81    1
   144    42    43    1
   145    97    96    1
   146   119   120    1
   147   122   121   ar
   148    77    78    1
   149    43    44    1
   150   120   121    1
   151   130   132   ar
   152   121   123   ar
   153    81    78    1
   154    96    94   ar
   155    96    95   ar
   156    80    79    2
   157    61    60   ar
   158    78    79    1
   159    94    92   ar
   160    74    72   ar
   161    74    76   ar
   162    71    72   ar
   163    71    69   ar
   164    44    45    2
   165    72    70   ar
   166    76    75   ar
   167    95    93   ar
   168    69    68   ar
   169    60    62   ar
   170    60    59    1
   171    92    91   ar
   172   110   109    2
   173    70    68   ar
   174    70    73   ar
   175    75    73   ar
   176    58    59    1
   177    58    55    1
   178    68    67    1
   179    93    91   ar
   180    54    55    1
   181    91    90    1
   182    67    64    1
   183   109   108    1
   184   101   100    2
   185    55    56    1
   186   114   112    1
   187   108   111    1
   188   108   107    1
   189    57    56    2
   190    86    87    1
   191   111   112    1
   192   100   107   am
   193   100    99    1
   194    90    87    1
   195   112   113    1
   196    64    63    1
   197    64    65    1
   198    89    88    2
   199    66    65    2
   200   103   102    1
   201   103   104    1
   202    87    88    1
   203   102    99    1
   204    99    98    1
   205   106   104   ar
   206   104   105   ar
