@<TRIPOS>MOLECULE
tmp/6bfpA00.pdb
 213 211 0 0 0
SMALL
GASTEIGER

@<TRIPOS>ATOM
      1  N          5.8070   16.0750  -36.1180 N.3    22  TYR22      -0.1227
      2  CA         6.6060   15.6900  -34.9490 C.3    22  TYR22       0.1736
      3  C          5.6380   14.9600  -34.0260 C.2    22  TYR22       0.2595
      4  O          4.4130   15.1770  -34.0960 O.2    22  TYR22      -0.2718
      5  CB         7.1680   16.9240  -34.2190 C.3    22  TYR22       0.0548
      6  CG         6.1270   18.0110  -34.1210 C.ar   22  TYR22      -0.0200
      7  CD1        5.2080   18.0500  -33.0840 C.ar   22  TYR22      -0.0009
      8  CD2        6.0160   18.9600  -35.1280 C.ar   22  TYR22      -0.0009
      9  CE1        4.2270   19.0210  -33.0550 C.ar   22  TYR22       0.0417
     10  CE2        5.0490   19.9180  -35.0970 C.ar   22  TYR22       0.0417
     11  CZ         4.1610   19.9370  -34.0720 C.ar   22  TYR22       0.1957
     12  OH         3.1750   20.8960  -34.0510 O.3    22  TYR22      -0.2866
     13  N          6.1670   14.0780  -33.1800 N.am   23  HIS23      -0.1961
     14  CA         5.3810   13.4460  -32.1360 C.3    23  HIS23       0.1787
     15  C          4.8620   14.5000  -31.1670 C.2    23  HIS23       0.2620
     16  O          5.6380   15.3260  -30.7080 O.2    23  HIS23      -0.2715
     17  CB         6.2480   12.4690  -31.3580 C.3    23  HIS23       0.0785
     18  CG         5.6240   12.0210  -30.0890 C.ar   23  HIS23       0.0821
     19  ND1        4.7360   10.9780  -30.0310 N.ar   23  HIS23      -0.2267
     20  CD2        5.7270   12.5080  -28.8300 C.ar   23  HIS23       0.1154
     21  CE1        4.3270   10.8240  -28.7790 C.ar   23  HIS23       0.1986
     22  NE2        4.9090   11.7450  -28.0390 N.ar   23  HIS23      -0.2212
     23  N          3.5730   14.4750  -30.8190 N.am   24  PHE24      -0.1960
     24  CA         3.0620   15.4170  -29.8140 C.3    24  PHE24       0.1771
     25  C          2.1790   14.7710  -28.7500 C.2    24  PHE24       0.2619
     26  O          1.8690   15.4250  -27.7570 O.2    24  PHE24      -0.2715
     27  CB         2.3280   16.6010  -30.4690 C.3    24  PHE24       0.0574
     28  CG         1.0310   16.2220  -31.1100 C.ar   24  PHE24      -0.0200
     29  CD1       -0.1470   16.2240  -30.3690 C.ar   24  PHE24      -0.0042
     30  CD2        0.9720   15.8250  -32.4300 C.ar   24  PHE24      -0.0042
     31  CE1       -1.3410   15.8630  -30.9570 C.ar   24  PHE24      -0.0003
     32  CE2       -0.2190   15.4560  -33.0070 C.ar   24  PHE24      -0.0003
     33  CZ        -1.3660   15.4760  -32.2740 C.ar   24  PHE24      -0.0000
     34  N          1.7540   13.5280  -28.9440 N.am   25  CYS25      -0.1968
     35  CA         0.9110   12.8390  -27.9630 C.3    25  CYS25       0.1712
     36  C          0.9060   11.3630  -28.2680 C.2    25  CYS25       0.2296
     37  O          1.2130   10.9600  -29.3960 O.2    25  CYS25      -0.2864
     38  CB        -0.5490   13.3360  -28.0160 C.3    25  CYS25       0.0983
     39  SG        -0.9690   14.7730  -26.9920 S.3    25  CYS25      -0.0798
     40  N         -7.2100   16.7510  -24.6610 N.3    40  HIS40      -0.1241
     41  CA        -6.2930   17.8660  -24.7010 C.3    40  HIS40       0.1621
     42  C         -5.2200   17.6780  -25.7720 C.2    40  HIS40       0.2264
     43  O         -4.4720   18.6170  -26.0540 O.2    40  HIS40      -0.2867
     44  CB        -5.7030   18.1660  -23.3250 C.3    40  HIS40       0.0745
     45  CG        -4.5390   17.3140  -22.9280 C.ar   40  HIS40       0.0817
     46  ND1       -4.6350   16.2320  -22.0760 N.ar   40  HIS40      -0.2268
     47  CD2       -3.2250   17.4440  -23.2240 C.ar   40  HIS40       0.1154
     48  CE1       -3.4310   15.7240  -21.8810 C.ar   40  HIS40       0.1986
     49  NE2       -2.5590   16.4460  -22.5610 N.ar   40  HIS40      -0.2212
     50  N        -16.0220   17.4290  -22.5390 N.3    76  TYR76      -0.1241
     51  CA       -14.6630   17.8090  -22.1590 C.3    76  TYR76       0.1605
     52  C        -14.6050   19.2680  -21.7380 C.2    76  TYR76       0.2264
     53  O        -15.0920   20.1360  -22.4420 O.2    76  TYR76      -0.2867
     54  CB       -13.7160   17.6010  -23.3170 C.3    76  TYR76       0.0534
     55  CG       -12.3130   18.1330  -23.0610 C.ar   76  TYR76      -0.0201
     56  CD1      -11.5650   17.6940  -21.9780 C.ar   76  TYR76      -0.0009
     57  CD2      -11.7300   19.0550  -23.9270 C.ar   76  TYR76      -0.0009
     58  CE1      -10.2860   18.1770  -21.7490 C.ar   76  TYR76       0.0417
     59  CE2      -10.4430   19.5260  -23.7040 C.ar   76  TYR76       0.0417
     60  CZ        -9.7440   19.0740  -22.6140 C.ar   76  TYR76       0.1957
     61  OH        -8.4570   19.5110  -22.3640 O.3    76  TYR76      -0.2866
     62  N        -11.7250   21.9830  -20.7900 N.3    78  SER78      -0.1217
     63  CA       -10.2810   22.1600  -20.8820 C.3    78  SER78       0.1889
     64  C         -9.6900   22.9250  -19.7010 C.2    78  SER78       0.2288
     65  O         -8.4630   22.9370  -19.5450 O.2    78  SER78      -0.2866
     66  CB        -9.9000   22.8700  -22.1770 C.3    78  SER78       0.2089
     67  OG       -10.5790   24.0930  -22.3000 O.3    78  SER78      -0.2183
     68  N        -10.1520   19.8020  -16.9520 N.3    81  LEU81      -0.1245
     69  CA        -9.7050   18.5640  -17.5580 C.3    81  LEU81       0.1561
     70  C        -10.6690   17.3880  -17.3270 C.2    81  LEU81       0.2260
     71  O        -10.3450   16.2310  -17.6070 O.2    81  LEU81      -0.2867
     72  CB        -8.2890   18.2200  -17.0930 C.3    81  LEU81       0.0270
     73  CG        -7.3990   19.4700  -17.1010 C.3    81  LEU81       0.0019
     74  CD1       -5.9900   19.1390  -16.6190 C.3    81  LEU81       0.0001
     75  CD2       -7.3900   20.0910  -18.4950 C.3    81  LEU81       0.0001
     76  N        -11.3690   14.0320  -20.1760 N.3    84  ASP84      -0.1239
     77  CA       -10.2280   14.2290  -21.0630 C.3    84  ASP84       0.1674
     78  C        -10.0230   12.9930  -21.9360 C.2    84  ASP84       0.2266
     79  O         -9.1250   12.1700  -21.7110 O.2    84  ASP84      -0.2867
     80  CB        -8.9600   14.5550  -20.2560 C.3    84  ASP84       0.1410
     81  CG        -7.8000   15.0000  -21.1210 C.2    84  ASP84       0.3668
     82  OD1       -8.0090   15.3060  -22.3190 O.co2  84  ASP84      -0.2456
     83  OD2       -6.6660   15.0880  -20.6010 O.co2  84  ASP84      -0.2456
     84  N         13.9510   14.1790  -24.2770 N.3   129  TYR129     -0.1241
     85  CA        12.9080   13.4380  -24.9480 C.3   129  TYR129      0.1605
     86  C         13.5040   12.2440  -25.6510 C.2   129  TYR129      0.2264
     87  O         14.4440   12.3850  -26.4410 O.2   129  TYR129     -0.2867
     88  CB        12.1650   14.3280  -25.9360 C.3   129  TYR129      0.0534
     89  CG        11.2610   15.2750  -25.2130 C.ar  129  TYR129     -0.0201
     90  CD1        9.9640   14.9010  -24.8910 C.ar  129  TYR129     -0.0009
     91  CD2       11.7130   16.5150  -24.7910 C.ar  129  TYR129     -0.0009
     92  CE1        9.1310   15.7440  -24.2050 C.ar  129  TYR129      0.0417
     93  CE2       10.8770   17.3700  -24.1040 C.ar  129  TYR129      0.0417
     94  CZ         9.5920   16.9730  -23.8130 C.ar  129  TYR129      0.1957
     95  OH         8.7680   17.8240  -23.1180 O.3   129  TYR129     -0.2866
     96  N          6.9200    8.4220  -12.9470 N.3   169  ASP169     -0.1225
     97  CA         5.6620    9.0270  -13.3840 C.3   169  ASP169      0.1805
     98  C          5.6410    9.1400  -14.9080 C.2   169  ASP169      0.2598
     99  O          6.6780    8.9800  -15.5620 O.2   169  ASP169     -0.2718
    100  CB         5.6090   10.4430  -12.7640 C.3   169  ASP169      0.1424
    101  CG         4.2280   11.1040  -12.7670 C.2   169  ASP169      0.3668
    102  OD1        3.1990   10.5100  -13.1540 O.co2 169  ASP169     -0.2456
    103  OD2        4.1960   12.2840  -12.3240 O.co2 169  ASP169     -0.2456
    104  N          4.4730    9.4180  -15.4750 N.am  170  SER170     -0.1938
    105  CA         4.4080    9.8830  -16.8570 C.3   170  SER170      0.2055
    106  C          4.7100   11.3870  -16.8590 C.2   170  SER170      0.2643
    107  O          4.8890   11.9930  -15.8000 O.2   170  SER170     -0.2714
    108  CB         3.0570    9.5520  -17.4930 C.3   170  SER170      0.2130
    109  OG         1.9850   10.0700  -16.7460 O.3   170  SER170     -0.2179
    110  N          4.7930   11.9890  -18.0400 N.am  171  CYS171     -0.1953
    111  CA         5.2220   13.3830  -18.1380 C.3   171  CYS171      0.1843
    112  C          4.7490   13.9740  -19.4610 C.2   171  CYS171      0.2625
    113  O          4.0920   13.3100  -20.2590 O.2   171  CYS171     -0.2714
    114  CB         6.7560   13.4660  -17.9850 C.3   171  CYS171      0.0997
    115  SG         7.4260   15.0660  -17.4950 S.3   171  CYS171     -0.0797
    116  N          5.0940   15.2460  -19.6720 N.am  172  GLN172     -0.1963
    117  CA         4.7650   15.9440  -20.9070 C.3   172  GLN172      0.1733
    118  C          5.1970   15.1050  -22.1130 C.2   172  GLN172      0.2616
    119  O          6.3200   14.6040  -22.1540 O.2   172  GLN172     -0.2715
    120  CB         5.4630   17.3130  -20.9450 C.3   172  GLN172      0.0408
    121  CG         4.7840   18.4240  -20.1230 C.3   172  GLN172      0.0908
    122  CD         4.9430   18.2650  -18.6110 C.2   172  GLN172      0.2608
    123  OE1        6.0450   18.1060  -18.1000 O.2   172  GLN172     -0.2717
    124  NE2        3.8350   18.3310  -17.8960 N.am  172  GLN172     -0.0878
    125  N          4.3060   14.9550  -23.0850 N.am  173  GLY173     -0.1955
    126  CA         4.5880   14.1640  -24.2650 C.3   173  GLY173      0.1869
    127  C          4.0720   12.7430  -24.1760 C.2   173  GLY173      0.2309
    128  O          3.9510   12.0670  -25.1940 O.2   173  GLY173     -0.2863
    129  N          1.1070   12.3450  -22.7960 N.3   175  SER175     -0.1217
    130  CA        -0.3150   12.6380  -22.8180 C.3   175  SER175      0.1889
    131  C         -1.0420   11.8970  -23.9020 C.2   175  SER175      0.2288
    132  O         -0.5660   11.8100  -25.0400 O.2   175  SER175     -0.2866
    133  CB        -0.5400   14.1210  -23.0360 C.3   175  SER175      0.2089
    134  OG        -0.2640   14.8380  -21.8420 O.3   175  SER175     -0.2183
    135  N         -3.2390    8.9440  -20.1800 N.3   189  VAL189     -0.1231
    136  CA        -2.3770    9.9400  -19.5700 C.3   189  VAL189      0.1692
    137  C         -3.0020   11.3200  -19.7490 C.2   189  VAL189      0.2593
    138  O         -3.2000   11.7830  -20.8830 O.2   189  VAL189     -0.2718
    139  CB        -0.9670    9.9280  -20.1930 C.3   189  VAL189      0.0266
    140  CG1       -0.0720   10.9560  -19.5160 C.3   189  VAL189      0.0020
    141  CG2       -0.3210    8.5530  -20.1250 C.3   189  VAL189      0.0020
    142  N         -3.2970   11.9920  -18.6400 N.am  190  SER190     -0.1938
    143  CA        -4.0610   13.2400  -18.6780 C.3   190  SER190      0.2055
    144  C         -3.2860   14.4180  -18.0920 C.2   190  SER190      0.2643
    145  O         -2.9160   15.3230  -18.8390 O.2   190  SER190     -0.2714
    146  CB        -5.4130   13.0590  -18.0030 C.3   190  SER190      0.2130
    147  OG        -6.2100   14.2330  -18.0900 O.3   190  SER190     -0.2179
    148  N         -3.0200   14.4380  -16.7850 N.am  191  TRP191     -0.1959
    149  CA        -2.3840   15.6100  -16.1930 C.3   191  TRP191      0.1771
    150  C         -1.6450   15.2820  -14.8990 C.2   191  TRP191      0.2620
    151  O         -1.6000   14.1320  -14.4790 O.2   191  TRP191     -0.2715
    152  CB        -3.4060   16.7310  -15.9790 C.3   191  TRP191      0.0590
    153  CG        -4.5460   16.4570  -15.0160 C.ar  191  TRP191      0.0006
    154  CD1       -5.7150   15.8170  -15.2820 C.ar  191  TRP191      0.0946
    155  CD2       -4.6260   16.8770  -13.6520 C.ar  191  TRP191      0.0152
    156  NE1       -6.5280   15.8170  -14.1680 N.ar  191  TRP191     -0.2442
    157  CE2       -5.8760   16.4590  -13.1510 C.ar  191  TRP191      0.0810
    158  CE3       -3.7660   17.5840  -12.8010 C.ar  191  TRP191      0.0012
    159  CZ2       -6.2780   16.7190  -11.8350 C.ar  191  TRP191      0.0191
    160  CZ3       -4.1670   17.8330  -11.4920 C.ar  191  TRP191      0.0001
    161  CH2       -5.4100   17.4000  -11.0280 C.ar  191  TRP191      0.0015
    162  N         -1.0430   16.2970  -14.2870 N.am  192  GLY192     -0.1940
    163  CA        -0.3360   16.1500  -13.0280 C.3   192  GLY192      0.2014
    164  C          0.4860   17.4060  -12.7920 C.2   192  GLY192      0.2640
    165  O          0.7810   18.1530  -13.7260 O.2   192  GLY192     -0.2714
    166  N          0.8980   17.6390  -11.5630 N.am  193  SER193     -0.1935
    167  CA         1.6740   18.8270  -11.2710 C.3   193  SER193      0.2055
    168  C          3.1520   18.5230  -11.4260 C.2   193  SER193      0.2644
    169  O          3.7360   17.8020  -10.6100 O.2   193  SER193     -0.2714
    170  CB         1.3850   19.2850   -9.8530 C.3   193  SER193      0.2130
    171  OG         2.0980   20.4780   -9.5800 O.3   193  SER193     -0.2179
    172  N          3.7700   19.0790  -12.4580 N.am  194  GLY194     -0.1939
    173  CA         5.1130   18.6640  -12.8250 C.3   194  GLY194      0.2014
    174  C          5.1050   17.1780  -13.1630 C.2   194  GLY194      0.2639
    175  O          4.0870   16.6460  -13.6050 O.2   194  GLY194     -0.2714
    176  N          6.2420   16.5170  -12.9690 N.am  195  CYS195     -0.1967
    177  CA         6.3480   15.0780  -13.2000 C.3   195  CYS195      0.1712
    178  C          7.2090   14.4700  -12.1360 C.2   195  CYS195      0.2296
    179  O          8.2610   15.0040  -11.8250 O.2   195  CYS195     -0.2864
    180  CB         7.0040   14.7740  -14.5490 C.3   195  CYS195      0.0983
    181  SG         6.2770   15.6560  -15.9240 S.3   195  CYS195     -0.0798
    182  N          2.5960   14.1990   -5.7830 N.3   200  LYS200     -0.1245
    183  CA         1.9070   14.6570   -6.9810 C.3   200  LYS200      0.1561
    184  C          1.9310   13.5680   -8.0360 C.2   200  LYS200      0.2260
    185  O          2.6230   13.6570   -9.0470 O.2   200  LYS200     -0.2867
    186  CB         2.5320   15.9540   -7.5000 C.3   200  LYS200      0.0271
    187  CG         2.3580   17.1270   -6.5500 C.3   200  LYS200      0.0035
    188  CD         0.8790   17.5090   -6.4240 C.3   200  LYS200      0.0206
    189  CE         0.6860   18.7140   -5.5230 C.3   200  LYS200      0.1093
    190  NZ        -0.7540   19.1070   -5.4010 N.3   200  LYS200     -0.1314
    191  N          0.5980   11.0230  -11.0920 N.3   202  GLY202     -0.1210
    192  CA        -0.0940   11.2510  -12.3440 C.3   202  GLY202      0.1956
    193  C         -1.5890   11.0600  -12.2050 C.2   202  GLY202      0.2612
    194  O         -2.0480   10.2200  -11.4160 O.2   202  GLY202     -0.2717
    195  N         -2.3330   11.8470  -12.9770 N.am  203  VAL203     -0.1965
    196  CA        -3.7850   11.7580  -13.0390 C.3   203  VAL203      0.1727
    197  C         -4.1820   11.3120  -14.4330 C.2   203  VAL203      0.2616
    198  O         -3.6620   11.8050  -15.4430 O.2   203  VAL203     -0.2715
    199  CB        -4.4610   13.0970  -12.6700 C.3   203  VAL203      0.0290
    200  CG1       -5.9750   12.8880  -12.5370 C.3   203  VAL203      0.0023
    201  CG2       -3.8700   13.6650  -11.3700 C.3   203  VAL203      0.0023
    202  N         -5.1130   10.3680  -14.4710 N.am  204  TYR204     -0.1974
    203  CA        -5.4780    9.6180  -15.6660 C.3   204  TYR204      0.1639
    204  C         -6.9800    9.6320  -15.8720 C.2   204  TYR204      0.2290
    205  O         -7.7500    9.5370  -14.9190 O.2   204  TYR204     -0.2864
    206  CB        -4.9610    8.1660  -15.5160 C.3   204  TYR204      0.0560
    207  CG        -3.4480    8.1530  -15.3660 C.ar  204  TYR204     -0.0198
    208  CD1       -2.6420    8.1860  -16.4790 C.ar  204  TYR204     -0.0009
    209  CD2       -2.8370    8.1830  -14.1270 C.ar  204  TYR204     -0.0009
    210  CE1       -1.2660    8.2230  -16.3760 C.ar  204  TYR204      0.0417
    211  CE2       -1.4600    8.2240  -14.0040 C.ar  204  TYR204      0.0417
    212  CZ        -0.6760    8.2480  -15.1400 C.ar  204  TYR204      0.1957
    213  OH         0.7070    8.2940  -15.0680 O.3   204  TYR204     -0.2866
@<TRIPOS>BOND
     1     1     2    1
     2     8    10   ar
     3     8     6   ar
     4    10    11   ar
     5     2     5    1
     6     2     3    1
     7     5     6    1
     8     6     7   ar
     9     4     3    2
    10    11    12    1
    11    11     9   ar
    12     3    13   am
    13    13    14    1
    14     7     9   ar
    15    32    30   ar
    16    32    33   ar
    17    30    28   ar
    18    33    31   ar
    19    14    17    1
    20    14    15    1
    21    17    18    1
    22    15    23   am
    23    15    16    2
    24    28    27    1
    25    28    29   ar
    26    31    29   ar
    27    23    24    1
    28    27    24    1
    29    18    19   ar
    30    18    20   ar
    31    19    21   ar
    32    24    25    1
    33    37    36    2
    34    34    25   am
    35    34    35    1
    36    20    22   ar
    37    21    22   ar
    38    25    26    2
    39    36    35    1
    40    38    35    1
    41    38    39    1
    42    87    86    2
    43    43    42    2
    44    88    89    1
    45    88    85    1
    46    42    41    1
    47    86    85    1
    48    89    90   ar
    49    89    91   ar
    50   128   127    2
    51   132   131    2
    52    85    84    1
    53    90    92   ar
    54    91    93   ar
    55    41    40    1
    56    41    44    1
    57   126   127    1
    58   126   125    1
    59    92    94   ar
    60    93    94   ar
    61    57    59   ar
    62    57    55   ar
    63   131   130    1
    64    94    95    1
    65    59    60   ar
    66    44    45    1
    67    54    55    1
    68    54    51    1
    69    47    45   ar
    70    47    49   ar
    71   125   118   am
    72    55    56   ar
    73   133   130    1
    74   133   134    1
    75    45    46   ar
    76   130   129    1
    77    60    61    1
    78    60    58   ar
    79    49    48   ar
    80    50    51    1
    81    53    52    2
    82    82    81   ar
    83    67    66    1
    84    66    63    1
    85    51    52    1
    86   119   118    2
    87   118   117    1
    88    46    48   ar
    89    56    58   ar
    90    78    79    2
    91    78    77    1
    92    81    83   ar
    93    81    80    1
    94    77    80    1
    95    77    76    1
    96   120   117    1
    97   120   121    1
    98   117   116    1
    99   138   137    2
   100    63    62    1
   101    63    64    1
   102   113   112    2
   103   139   141    1
   104   139   136    1
   105   139   140    1
   106   135   136    1
   107   121   122    1
   108   137   136    1
   109   137   142   am
   110    64    65    2
   111   116   112   am
   112   112   111    1
   113   145   144    2
   114   143   142    1
   115   143   144    1
   116   143   146    1
   117   122   123    2
   118   122   124   am
   119    75    73    1
   120   111   110    1
   121   111   114    1
   122   144   148   am
   123   147   146    1
   124   110   106   am
   125   114   115    1
   126    71    70    2
   127    69    70    1
   128    69    72    1
   129    69    68    1
   130   115   181    1
   131   108   105    1
   132   108   109    1
   133    73    72    1
   134    73    74    1
   135   106   105    1
   136   106   107    2
   137   105   104    1
   138   148   149    1
   139   208   210   ar
   140   208   207   ar
   141   210   212   ar
   142   149   152    1
   143   149   150    1
   144   152   153    1
   145   181   180    1
   146   204   203    1
   147   204   205    2
   148   203   206    1
   149   203   202    1
   150    99    98    2
   151   206   207    1
   152   104    98   am
   153   198   197    2
   154   207   209   ar
   155   154   153   ar
   156   154   156   ar
   157   212   213    1
   158   212   211   ar
   159   153   155   ar
   160    98    97    1
   161   150   151    2
   162   150   162   am
   163   180   177    1
   164   202   197   am
   165   197   196    1
   166   162   163    1
   167   156   157   ar
   168   209   211   ar
   169   165   164    2
   170   155   157   ar
   171   155   158   ar
   172   175   174    2
   173    97    96    1
   174    97   100    1
   175   177   176    1
   176   177   178    1
   177   174   176   am
   178   174   173    1
   179   102   101   ar
   180   157   159   ar
   181   196   195    1
   182   196   199    1
   183   163   164    1
   184   195   193   am
   185   173   172    1
   186   158   160   ar
   187   164   166   am
   188   101   100    1
   189   101   103   ar
   190   199   200    1
   191   199   201    1
   192   172   168   am
   193   192   193    1
   194   192   191    1
   195   193   194    2
   196   178   179    2
   197   159   161   ar
   198   166   167    1
   199   160   161   ar
   200   168   167    1
   201   168   169    2
   202   167   170    1
   203   170   171    1
   204   185   184    2
   205   184   183    1
   206   186   183    1
   207   186   187    1
   208   183   182    1
   209   187   188    1
   210   188   189    1
   211   189   190    1
