@<TRIPOS>MOLECULE
tmp/6bfvA00.pdb
 93 87 0 0 0
SMALL
GASTEIGER

@<TRIPOS>ATOM
      1  N          1.6010   22.1180   49.3140 N.3   113  LEU113     -0.1231
      2  CA         0.2470   22.6200   49.5410 C.3   113  LEU113      0.1693
      3  C          0.3210   24.0730   50.0130 C.2   113  LEU113      0.2592
      4  O          1.1510   24.4080   50.8760 O.2   113  LEU113     -0.2718
      5  CB        -0.4890   21.7840   50.6080 C.3   113  LEU113      0.0284
      6  CG        -0.6410   20.2670   50.3920 C.3   113  LEU113      0.0019
      7  CD1       -1.2150   19.5140   51.6100 C.3   113  LEU113      0.0001
      8  CD2       -1.5160   20.0350   49.2570 C.3   113  LEU113      0.0001
      9  N         -0.5810   24.9210   49.5190 N.am  114  ALA114     -0.1966
     10  CA        -0.5070   26.3500   49.8310 C.3   114  ALA114      0.1728
     11  C         -1.9010   26.9600   49.9710 C.2   114  ALA114      0.2616
     12  O         -2.9000   26.3750   49.5540 O.2   114  ALA114     -0.2715
     13  CB         0.2910   27.0910   48.7530 C.3   114  ALA114      0.0334
     14  N         -1.9700   28.1360   50.5970 N.am  115  GLY115     -0.1955
     15  CA        -3.2220   28.8960   50.6530 C.3   115  GLY115      0.1869
     16  C         -3.2440   29.8830   49.4930 C.2   115  GLY115      0.2309
     17  O         -2.2110   30.4500   49.1320 O.2   115  GLY115     -0.2863
     18  N          5.5610   31.8550   54.7570 N.3   192  ASN192     -0.1240
     19  CA         5.1820   32.0290   56.1780 C.3   192  ASN192      0.1653
     20  C          5.8760   30.9260   56.9920 C.2   192  ASN192      0.2266
     21  O          5.5800   29.7370   56.8000 O.2   192  ASN192     -0.2867
     22  CB         3.6420   31.9370   56.3150 C.3   192  ASN192      0.1155
     23  CG         3.1470   31.6420   57.7470 C.2   192  ASN192      0.2627
     24  OD1        3.7470   32.0410   58.7180 O.2   192  ASN192     -0.2716
     25  ND2        2.0540   30.9350   57.8550 N.am  192  ASN192     -0.0877
     26  N         -1.6370   28.6220   60.5810 N.3   197  TYR197     -0.1227
     27  CA        -2.1030   29.1200   59.2910 C.3   197  TYR197      0.1736
     28  C         -2.0500   30.6500   59.2470 C.2   197  TYR197      0.2595
     29  O         -2.2020   31.3360   60.2570 O.2   197  TYR197     -0.2718
     30  CB        -3.5360   28.6160   59.0040 C.3   197  TYR197      0.0548
     31  CG        -3.5690   27.1530   58.5910 C.ar  197  TYR197     -0.0200
     32  CD1       -3.0180   26.7390   57.3870 C.ar  197  TYR197     -0.0009
     33  CD2       -4.1260   26.1950   59.4040 C.ar  197  TYR197     -0.0009
     34  CE1       -3.0170   25.3840   57.0150 C.ar  197  TYR197      0.0417
     35  CE2       -4.1460   24.8560   59.0510 C.ar  197  TYR197      0.0417
     36  CZ        -3.5910   24.4560   57.8560 C.ar  197  TYR197      0.1957
     37  OH        -3.6000   23.1290   57.5280 O.3   197  TYR197     -0.2866
     38  N         -1.8350   31.1870   58.0530 N.am  198  GLU198     -0.1979
     39  CA        -1.9700   32.6220   57.8330 C.3   198  GLU198      0.1602
     40  C         -3.2620   33.1410   58.4700 C.2   198  GLU198      0.2287
     41  O         -4.3350   32.5550   58.2900 O.2   198  GLU198     -0.2864
     42  CB        -1.9560   32.9080   56.3180 C.3   198  GLU198      0.0415
     43  CG        -3.1570   32.2590   55.4740 C.3   198  GLU198      0.1163
     44  CD        -2.8420   30.8520   54.9620 C.2   198  GLU198      0.3649
     45  OE1       -1.8610   30.2240   55.4270 O.co2 198  GLU198     -0.2457
     46  OE2       -3.5700   30.3670   54.0760 O.co2 198  GLU198     -0.2457
     47  N          0.4470   31.4410   49.6000 N.3   214  VAL214     -0.1231
     48  CA         1.2630   31.4200   50.8200 C.3   214  VAL214      0.1692
     49  C          1.3900   29.9780   51.3570 C.2   214  VAL214      0.2593
     50  O          0.4280   29.2100   51.3260 O.2   214  VAL214     -0.2718
     51  CB         0.6520   32.3790   51.8790 C.3   214  VAL214      0.0266
     52  CG1       -0.8300   32.0090   52.2060 C.3   214  VAL214      0.0020
     53  CG2        1.5010   32.4440   53.0980 C.3   214  VAL214      0.0020
     54  N          2.5580   29.6320   51.9050 N.am  215  GLY215     -0.1942
     55  CA         2.7680   28.3390   52.5470 C.3   215  GLY215      0.2014
     56  C          4.0010   28.3250   53.4340 C.2   215  GLY215      0.2638
     57  O          4.6950   29.3370   53.6060 O.2   215  GLY215     -0.2714
     58  N          4.2980   27.1320   53.9660 N.am  216  MET216     -0.1976
     59  CA         5.2810   26.9950   55.0400 C.3   216  MET216      0.1605
     60  C          6.5030   26.1610   54.6380 C.2   216  MET216      0.2287
     61  O          7.2000   25.6450   55.5150 O.2   216  MET216     -0.2864
     62  CB         4.6060   26.3700   56.2740 C.3   216  MET216      0.0413
     63  CG         3.3060   27.0040   56.7090 C.3   216  MET216      0.0598
     64  SD         2.6110   25.9950   58.0590 S.3   216  MET216     -0.1393
     65  CE         0.9910   26.7030   58.1020 C.3   216  MET216      0.0692
     66  N         -5.2290   24.7990   48.3470 N.3   239  ALA239     -0.1231
     67  CA        -6.2230   24.1080   49.1620 C.3   239  ALA239      0.1694
     68  C         -7.3070   25.0150   49.7550 C.2   239  ALA239      0.2592
     69  O         -8.2630   24.4940   50.3340 O.2   239  ALA239     -0.2718
     70  CB        -5.5430   23.3480   50.2980 C.3   239  ALA239      0.0304
     71  N         -7.2140   26.3320   49.6070 N.am  240  ASN240     -0.1974
     72  CA        -8.2890   27.2370   50.0220 C.3   240  ASN240      0.1688
     73  C         -8.0120   28.5890   49.3790 C.2   240  ASN240      0.2292
     74  O         -6.9270   28.8120   48.8270 O.2   240  ASN240     -0.2864
     75  CB        -8.3820   27.3370   51.5460 C.3   240  ASN240      0.1181
     76  CG        -7.5040   28.4330   52.1220 C.2   240  ASN240      0.2629
     77  OD1       -6.4390   28.7630   51.5640 O.2   240  ASN240     -0.2716
     78  ND2       -7.9360   28.9980   53.2500 N.am  240  ASN240     -0.0877
     79  N        -10.0850   27.8650   58.1530 N.3   252  ILE252     -0.1245
     80  CA        -9.2860   26.8300   57.4920 C.3   252  ILE252      0.1561
     81  C         -8.9450   25.7490   58.5150 C.2   252  ILE252      0.2260
     82  O         -8.9700   25.9780   59.7260 O.2   252  ILE252     -0.2867
     83  CB        -8.0020   27.4160   56.8710 C.3   252  ILE252      0.0252
     84  CG1       -7.3460   26.5250   55.7800 C.3   252  ILE252      0.0019
     85  CG2       -7.0020   27.8760   57.9370 C.3   252  ILE252      0.0019
     86  CD1       -6.1400   27.1040   54.9830 C.3   252  ILE252      0.0001
     87  N         -7.7150   20.6020   54.2100 N.3   257  VAL257     -0.1245
     88  CA        -6.5440   20.7080   53.3470 C.3   257  VAL257      0.1561
     89  C         -6.1640   19.3370   52.7940 C.2   257  VAL257      0.2260
     90  O         -5.9140   19.1810   51.5940 O.2   257  VAL257     -0.2867
     91  CB        -5.3840   21.3540   54.1330 C.3   257  VAL257      0.0252
     92  CG1       -4.0610   21.1900   53.4120 C.3   257  VAL257      0.0019
     93  CG2       -5.6460   22.8340   54.3240 C.3   257  VAL257      0.0019
@<TRIPOS>BOND
     1    66    67    1
     2    13    10    1
     3    74    73    2
     4    17    16    2
     5    67    68    1
     6    67    70    1
     7     8     6    1
     8     1     2    1
     9    73    72    1
    10    16    15    1
    11     9    10    1
    12     9     3   am
    13     2     3    1
    14     2     5    1
    15    12    11    2
    16    47    48    1
    17    71    68   am
    18    71    72    1
    19    68    69    2
    20    10    11    1
    21    11    14   am
    22     3     4    2
    23    72    75    1
    24     6     5    1
    25     6     7    1
    26    14    15    1
    27    48    49    1
    28    48    51    1
    29    50    49    2
    30    49    54   am
    31    75    76    1
    32    77    76    2
    33    90    89    2
    34    51    52    1
    35    51    53    1
    36    54    55    1
    37    76    78   am
    38    55    56    1
    39    89    88    1
    40    88    91    1
    41    88    87    1
    42    92    91    1
    43    56    57    2
    44    56    58   am
    45    58    59    1
    46    46    44   ar
    47    91    93    1
    48    60    59    1
    49    60    61    2
    50    18    19    1
    51    44    45   ar
    52    44    43    1
    53    86    84    1
    54    59    62    1
    55    43    42    1
    56    84    83    1
    57    19    22    1
    58    19    20    1
    59    62    63    1
    60    22    23    1
    61    42    39    1
    62    63    64    1
    63    21    20    2
    64    83    80    1
    65    83    85    1
    66    34    32   ar
    67    34    36   ar
    68    32    31   ar
    69    80    79    1
    70    80    81    1
    71    37    36    1
    72    23    25   am
    73    23    24    2
    74    39    38    1
    75    39    40    1
    76    36    35   ar
    77    38    28   am
    78    64    65    1
    79    41    40    2
    80    81    82    2
    81    31    30    1
    82    31    33   ar
    83    30    27    1
    84    35    33   ar
    85    28    27    1
    86    28    29    2
    87    27    26    1
