@<TRIPOS>MOLECULE
tmp/6bfxB00.pdb
 234 221 0 0 0
SMALL
GASTEIGER

@<TRIPOS>ATOM
      1  N         76.6820   35.1490   76.3450 N.3    15  GLN15      -0.1231
      2  CA        75.9350   35.4460   77.5770 C.3    15  GLN15       0.1698
      3  C         75.0570   36.7220   77.4780 C.2    15  GLN15       0.2592
      4  O         74.3090   37.0190   78.4050 O.2    15  GLN15      -0.2718
      5  CB        76.8850   35.4900   78.7820 C.3    15  GLN15       0.0381
      6  CG        77.6490   34.1680   78.9670 C.3    15  GLN15       0.0905
      7  CD        78.4000   34.0390   80.2690 C.2    15  GLN15       0.2608
      8  OE1       79.0380   34.9780   80.7560 O.2    15  GLN15      -0.2717
      9  NE2       78.3870   32.8400   80.8340 N.am   15  GLN15      -0.0878
     10  N         75.1080   37.3990   76.3300 N.am   16  GLY16      -0.1957
     11  CA        74.3490   38.6120   76.0390 C.3    16  GLY16       0.1869
     12  C         75.0370   39.9060   76.4220 C.2    16  GLY16       0.2309
     13  O         75.9330   39.9130   77.2660 O.2    16  GLY16      -0.2863
     14  N         69.7650   43.0420   80.0340 N.3    33  LEU33      -0.1245
     15  CA        70.1220   42.5140   78.7120 C.3    33  LEU33       0.1561
     16  C         69.3460   43.2410   77.6140 C.2    33  LEU33       0.2260
     17  O         68.1440   43.4510   77.7480 O.2    33  LEU33      -0.2867
     18  CB        69.8900   40.9820   78.6510 C.3    33  LEU33       0.0270
     19  CG        70.3790   40.2650   77.3530 C.3    33  LEU33       0.0019
     20  CD1       71.0260   38.9540   77.6600 C.3    33  LEU33       0.0001
     21  CD2       69.2220   40.0020   76.3990 C.3    33  LEU33       0.0001
     22  N         67.6260   43.1490   74.2870 N.3    35  ASP35      -0.1239
     23  CA        67.0430   42.1150   73.4460 C.3    35  ASP35       0.1674
     24  C         66.1000   42.6360   72.3480 C.2    35  ASP35       0.2266
     25  O         64.9460   42.9630   72.6260 O.2    35  ASP35      -0.2867
     26  CB        66.3330   41.0610   74.3220 C.3    35  ASP35       0.1410
     27  CG        65.8100   39.8560   73.5530 C.2    35  ASP35       0.3668
     28  OD1       66.3570   39.5570   72.4500 O.co2  35  ASP35      -0.2456
     29  OD2       64.8860   39.1890   74.0600 O.co2  35  ASP35      -0.2456
     30  N         64.9790   40.7000   70.1420 N.3    37  GLY37      -0.1210
     31  CA        64.2270   39.4850   69.8170 C.3    37  GLY37       0.1956
     32  C         62.9860   39.1910   70.6370 C.2    37  GLY37       0.2612
     33  O         62.3600   38.1380   70.4390 O.2    37  GLY37      -0.2717
     34  N         62.6190   40.1150   71.5590 N.am   38  SER38      -0.1952
     35  CA        61.3960   40.0140   72.3970 C.3    38  SER38       0.1924
     36  C         60.8620   41.4050   72.7220 C.2    38  SER38       0.2314
     37  O         61.4860   42.3940   72.3400 O.2    38  SER38      -0.2863
     38  CB        61.6470   39.2040   73.6650 C.3    38  SER38       0.2116
     39  OG        62.3860   39.9840   74.5870 O.3    38  SER38      -0.2180
     40  N         56.5820   34.1560   79.8190 N.3    72  VAL72      -0.1231
     41  CA        57.2810   34.3160   78.5390 C.3    72  VAL72       0.1678
     42  C         58.1350   33.0860   78.2490 C.2    72  VAL72       0.2434
     43  O         59.0670   32.7980   79.0020 O.2    72  VAL72      -0.2733
     44  CB        58.0760   35.6480   78.3180 C.3    72  VAL72       0.0265
     45  CG1       58.7630   35.6670   76.9420 C.3    72  VAL72       0.0020
     46  CG2       57.1810   36.8700   78.4530 C.3    72  VAL72       0.0020
     47  N         57.8230   32.3570   77.1500 N.am   73  PRO73      -0.2718
     48  CA        58.6540   31.2060   76.7750 C.3    73  PRO73       0.1535
     49  C         59.6970   31.6480   75.7280 C.2    73  PRO73       0.2599
     50  O         59.3260   32.1620   74.6690 O.2    73  PRO73      -0.2715
     51  CB        57.6260   30.2300   76.1750 C.3    73  PRO73       0.0310
     52  CG        56.5010   31.1310   75.6310 C.3    73  PRO73       0.0237
     53  CD        56.7210   32.5480   76.1810 C.3    73  PRO73       0.0939
     54  N         60.9920   31.4920   76.0240 N.am   74  TYR74      -0.1960
     55  CA        62.0400   31.8400   75.0530 C.3    74  TYR74       0.1771
     56  C         62.4590   30.5470   74.2950 C.2    74  TYR74       0.2620
     57  O         61.7160   29.5620   74.3590 O.2    74  TYR74      -0.2715
     58  CB        63.2130   32.5830   75.7230 C.3    74  TYR74       0.0574
     59  CG        62.8030   33.8600   76.4300 C.ar   74  TYR74      -0.0198
     60  CD1       62.7950   35.0830   75.7590 C.ar   74  TYR74      -0.0009
     61  CD2       62.4760   33.8580   77.7830 C.ar   74  TYR74      -0.0009
     62  CE1       62.4600   36.2670   76.4170 C.ar   74  TYR74       0.0417
     63  CE2       62.1070   35.0290   78.4410 C.ar   74  TYR74       0.0417
     64  CZ        62.1040   36.2330   77.7570 C.ar   74  TYR74       0.1957
     65  OH        61.7270   37.3910   78.4020 O.3    74  TYR74      -0.2866
     66  N         63.5980   30.5420   73.5600 N.am   75  THR75      -0.1937
     67  CA        64.0290   29.3410   72.8020 C.3    75  THR75       0.2028
     68  C         64.2110   28.1030   73.7120 C.2    75  THR75       0.2642
     69  O         63.6620   27.0370   73.4200 O.2    75  THR75      -0.2714
     70  CB        65.2710   29.6380   71.9470 C.3    75  THR75       0.1808
     71  OG1       65.0180   30.8200   71.1900 O.3    75  THR75      -0.2208
     72  CG2       65.6080   28.4980   70.9940 C.3    75  THR75       0.0379
     73  N         64.9390   28.2740   74.8260 N.am   76  GLN76      -0.1963
     74  CA        65.2070   27.2210   75.8050 C.3    76  GLN76       0.1733
     75  C         64.7600   27.6760   77.2010 C.2    76  GLN76       0.2616
     76  O         64.2510   26.8630   77.9770 O.2    76  GLN76      -0.2715
     77  CB        66.7100   26.8920   75.8040 C.3    76  GLN76       0.0408
     78  CG        67.0920   25.5840   76.4840 C.3    76  GLN76       0.0908
     79  CD        68.5910   25.3900   76.5130 C.2    76  GLN76       0.2608
     80  OE1       69.3100   26.0060   77.3090 O.2    76  GLN76      -0.2717
     81  NE2       69.0970   24.5180   75.6510 N.am   76  GLN76      -0.0878
     82  N         64.9730   28.9570   77.5070 N.am   77  GLY77      -0.1955
     83  CA        64.6240   29.5210   78.8060 C.3    77  GLY77       0.1869
     84  C         63.1890   29.9820   78.9220 C.2    77  GLY77       0.2309
     85  O         62.5020   30.1350   77.9170 O.2    77  GLY77      -0.2863
     86  N         66.1380   27.8740   83.3360 N.3   110  LYS110     -0.1231
     87  CA        67.1980   28.1270   82.3310 C.3   110  LYS110      0.1693
     88  C         67.1560   29.5590   81.7440 C.2   110  LYS110      0.2592
     89  O         67.5070   29.7460   80.5770 O.2   110  LYS110     -0.2718
     90  CB        67.1440   27.0790   81.1900 C.3   110  LYS110      0.0285
     91  CG        67.5280   25.6620   81.5790 C.3   110  LYS110      0.0035
     92  CD        67.7070   24.8100   80.3170 C.3   110  LYS110      0.0206
     93  CE        66.9860   23.4860   80.3580 C.3   110  LYS110      0.1093
     94  NZ        65.5060   23.6390   80.3650 N.3   110  LYS110     -0.1314
     95  N         66.7000   30.5570   82.5350 N.am  111  PHE111     -0.1976
     96  CA        66.6230   31.9470   82.0700 C.3   111  PHE111      0.1639
     97  C         67.8630   32.7370   82.4770 C.2   111  PHE111      0.2290
     98  O         68.6050   33.2030   81.5970 O.2   111  PHE111     -0.2864
     99  CB        65.3110   32.6630   82.4800 C.3   111  PHE111      0.0560
    100  CG        65.2550   34.1250   82.0630 C.ar  111  PHE111     -0.0200
    101  CD1       65.0370   34.4800   80.7360 C.ar  111  PHE111     -0.0042
    102  CD2       65.4740   35.1400   82.9880 C.ar  111  PHE111     -0.0042
    103  CE1       65.0130   35.8280   80.3470 C.ar  111  PHE111     -0.0003
    104  CE2       65.4460   36.4910   82.5980 C.ar  111  PHE111     -0.0003
    105  CZ        65.2110   36.8260   81.2820 C.ar  111  PHE111     -0.0000
    106  N         71.6560   33.4500   83.6440 N.3   113  ILE113     -0.1245
    107  CA        72.9350   32.8050   83.3190 C.3   113  ILE113      0.1561
    108  C         73.9380   33.0520   84.4480 C.2   113  ILE113      0.2260
    109  O         74.1140   34.1920   84.8770 O.2   113  ILE113     -0.2867
    110  CB        73.4760   33.2420   81.9120 C.3   113  ILE113      0.0252
    111  CG1       72.5180   32.7930   80.7690 C.3   113  ILE113      0.0019
    112  CG2       74.9280   32.7330   81.6570 C.3   113  ILE113      0.0019
    113  CD1       72.7780   33.4630   79.3480 C.3   113  ILE113      0.0001
    114  N         73.8550   40.2350   84.4370 N.3   118  TRP118     -0.1241
    115  CA        72.5850   40.9090   84.1550 C.3   118  TRP118      0.1605
    116  C         71.4730   40.2870   85.0200 C.2   118  TRP118      0.2264
    117  O         71.5220   39.0950   85.3510 O.2   118  TRP118     -0.2867
    118  CB        72.2120   41.0430   82.6610 C.3   118  TRP118      0.0550
    119  CG        72.2210   39.7810   81.8560 C.ar  118  TRP118      0.0003
    120  CD1       73.2050   39.3650   81.0080 C.ar  118  TRP118      0.0946
    121  CD2       71.1540   38.8330   81.7290 C.ar  118  TRP118      0.0152
    122  NE1       72.8570   38.1710   80.4310 N.ar  118  TRP118     -0.2442
    123  CE2       71.6020   37.8140   80.8610 C.ar  118  TRP118      0.0810
    124  CE3       69.8800   38.7080   82.3190 C.ar  118  TRP118      0.0012
    125  CZ2       70.8170   36.6980   80.5450 C.ar  118  TRP118      0.0191
    126  CZ3       69.0960   37.6050   82.0020 C.ar  118  TRP118      0.0001
    127  CH2       69.5620   36.6160   81.1260 C.ar  118  TRP118      0.0015
    128  N         65.7750   41.7990   81.5220 N.3   121  ILE121     -0.1245
    129  CA        65.7480   41.8150   80.0640 C.3   121  ILE121      0.1561
    130  C         64.9300   42.9910   79.5210 C.2   121  ILE121      0.2260
    131  O         63.8590   43.3120   80.0470 O.2   121  ILE121     -0.2867
    132  CB        65.2680   40.4120   79.5370 C.3   121  ILE121      0.0252
    133  CG1       65.4500   40.2620   78.0110 C.3   121  ILE121      0.0019
    134  CG2       63.8110   40.0680   79.9790 C.3   121  ILE121      0.0019
    135  CD1       65.7470   38.7680   77.5430 C.3   121  ILE121      0.0001
    136  N         54.2390   40.9360   69.7160 N.3   129  ILE129     -0.1245
    137  CA        54.8380   39.7230   70.3070 C.3   129  ILE129      0.1561
    138  C         55.0420   39.8220   71.8510 C.2   129  ILE129      0.2260
    139  O         55.6630   38.9390   72.4590 O.2   129  ILE129     -0.2867
    140  CB        56.1350   39.2910   69.5460 C.3   129  ILE129      0.0252
    141  CG1       57.2250   40.3870   69.5920 C.3   129  ILE129      0.0019
    142  CG2       55.8050   38.8750   68.0880 C.3   129  ILE129      0.0019
    143  CD1       58.6680   39.8920   69.4130 C.3   129  ILE129      0.0001
    144  N         53.8940   39.5580   75.8000 N.3   131  ARG131     -0.1245
    145  CA        53.0300   38.6710   76.5870 C.3   131  ARG131      0.1563
    146  C         52.4750   39.5210   77.7420 C.2   131  ARG131      0.2260
    147  O         53.2020   40.4010   78.2020 O.2   131  ARG131     -0.2867
    148  CB        53.7960   37.4470   77.1350 C.3   131  ARG131      0.0307
    149  CG        54.3700   36.5150   76.0620 C.3   131  ARG131      0.0489
    150  CD        53.2850   35.9390   75.1790 C.3   131  ARG131      0.2205
    151  NE        53.8280   35.1200   74.0970 N.pl3 131  ARG131     -0.0865
    152  CZ        53.8300   33.7930   74.1000 C.cat 131  ARG131      0.5346
    153  NH1       53.3310   33.1230   75.1330 N.pl3 131  ARG131      0.1354
    154  NH2       54.3250   33.1240   73.0690 N.pl3 131  ARG131      0.1354
    155  N         58.5050   41.0760   65.3160 N.3   201  TYR201     -0.1241
    156  CA        59.9450   40.9450   65.5630 C.3   201  TYR201      0.1605
    157  C         60.5150   42.0150   64.6400 C.2   201  TYR201      0.2264
    158  O         59.7580   42.6460   63.8990 O.2   201  TYR201     -0.2867
    159  CB        60.4840   39.5940   65.0500 C.3   201  TYR201      0.0534
    160  CG        60.0220   38.4010   65.8410 C.ar  201  TYR201     -0.0201
    161  CD1       60.6660   38.0320   67.0180 C.ar  201  TYR201     -0.0009
    162  CD2       58.9890   37.5900   65.3760 C.ar  201  TYR201     -0.0009
    163  CE1       60.2450   36.9310   67.7550 C.ar  201  TYR201      0.0417
    164  CE2       58.5500   36.4900   66.1110 C.ar  201  TYR201      0.0417
    165  CZ        59.1840   36.1650   67.3010 C.ar  201  TYR201      0.1957
    166  OH        58.7750   35.0900   68.0360 O.3   201  TYR201     -0.2866
    167  N         60.2360   33.0460   58.8430 N.3   227  LYS227     -0.1245
    168  CA        60.6180   34.4690   58.9810 C.3   227  LYS227      0.1561
    169  C         62.1540   34.6380   59.1150 C.2   227  LYS227      0.2260
    170  O         62.8530   33.6790   59.4220 O.2   227  LYS227     -0.2867
    171  CB        59.9080   35.1200   60.2100 C.3   227  LYS227      0.0271
    172  CG        60.2700   34.4480   61.5380 C.3   227  LYS227      0.0035
    173  CD        59.5260   35.0190   62.7410 C.3   227  LYS227      0.0206
    174  CE        59.6660   34.0690   63.9010 C.3   227  LYS227      0.1093
    175  NZ        58.8100   32.8620   63.7480 N.3   227  LYS227     -0.1314
    176  N         64.7430   37.3230   61.2080 N.3   229  ILE229     -0.1245
    177  CA        64.7240   38.3940   62.2190 C.3   229  ILE229      0.1561
    178  C         66.1330   38.8310   62.6320 C.2   229  ILE229      0.2260
    179  O         67.0750   38.0520   62.5180 O.2   229  ILE229     -0.2867
    180  CB        63.8550   37.9800   63.4720 C.3   229  ILE229      0.0252
    181  CG1       64.6010   36.9790   64.3970 C.3   229  ILE229      0.0019
    182  CG2       62.4670   37.4300   63.0690 C.3   229  ILE229      0.0019
    183  CD1       63.9720   36.8110   65.8590 C.3   229  ILE229      0.0001
    184  N         68.1490   39.7270   65.8470 N.3   231  ASP231     -0.1239
    185  CA        67.9840   39.4330   67.2720 C.3   231  ASP231      0.1674
    186  C         69.2620   39.4940   68.1200 C.2   231  ASP231      0.2266
    187  O         70.0270   38.5380   68.1540 O.2   231  ASP231     -0.2867
    188  CB        67.3090   38.0510   67.4210 C.3   231  ASP231      0.1410
    189  CG        66.9470   37.6230   68.8350 C.2   231  ASP231      0.3668
    190  OD1       67.2170   38.3980   69.7850 O.co2 231  ASP231     -0.2456
    191  OD2       66.4150   36.5140   68.9930 O.co2 231  ASP231     -0.2456
    192  N         69.4600   39.1880   71.3300 N.3   233  GLY233     -0.1210
    193  CA        69.3160   38.2420   72.4380 C.3   233  GLY233      0.1956
    194  C         69.5550   36.7860   72.0820 C.2   233  GLY233      0.2613
    195  O         69.4120   35.9120   72.9450 O.2   233  GLY233     -0.2717
    196  N         69.8860   36.4950   70.8000 N.am  234  THR234     -0.1938
    197  CA        70.2430   35.1380   70.3540 C.3   234  THR234      0.2028
    198  C         71.7180   35.2070   69.9950 C.2   234  THR234      0.2642
    199  O         72.1370   36.1840   69.3700 O.2   234  THR234     -0.2714
    200  CB        69.3760   34.6570   69.1670 C.3   234  THR234      0.1808
    201  OG1       68.0370   34.4470   69.6130 O.3   234  THR234     -0.2208
    202  CG2       69.8850   33.3380   68.5570 C.3   234  THR234      0.0379
    203  N         72.5040   34.1790   70.3870 N.am  235  THR235     -0.1950
    204  CA        73.9390   34.1490   70.1130 C.3   235  THR235      0.1897
    205  C         74.2840   33.9680   68.6420 C.2   235  THR235      0.2313
    206  O         74.9640   34.8100   68.0660 O.2   235  THR235     -0.2863
    207  CB        74.6450   33.0680   70.9730 C.3   235  THR235      0.1794
    208  OG1       74.4240   33.3440   72.3510 O.3   235  THR235     -0.2208
    209  CG2       76.1550   33.0080   70.7150 C.3   235  THR235      0.0378
    210  N         71.2550   31.5240   63.0940 N.3   238  ARG238     -0.1245
    211  CA        70.4490   30.3070   63.0080 C.3   238  ARG238      0.1563
    212  C         69.8000   30.2910   61.6450 C.2   238  ARG238      0.2260
    213  O         69.3230   31.3250   61.1880 O.2   238  ARG238     -0.2867
    214  CB        69.4150   30.2350   64.1540 C.3   238  ARG238      0.0307
    215  CG        70.0550   30.1870   65.5540 C.3   238  ARG238      0.0489
    216  CD        69.0220   30.1280   66.6720 C.3   238  ARG238      0.2205
    217  NE        68.5620   28.7660   66.9620 N.pl3 238  ARG238     -0.0865
    218  CZ        67.3260   28.3170   66.7440 C.cat 238  ARG238      0.5346
    219  NH1       67.0010   27.0720   67.0580 N.pl3 238  ARG238      0.1354
    220  NH2       66.4140   29.1040   66.1880 N.pl3 238  ARG238      0.1354
    221  N         62.3660   27.5850   63.3190 N.3   332  THR332     -0.1218
    222  CA        61.5650   28.8240   63.3930 C.3   332  THR332      0.1862
    223  C         62.0910   29.9730   62.5150 C.2   332  THR332      0.2287
    224  O         61.8040   31.1390   62.8000 O.2   332  THR332     -0.2866
    225  CB        61.3720   29.3050   64.8560 C.3   332  THR332      0.1770
    226  OG1       62.6420   29.5560   65.4570 O.3   332  THR332     -0.2211
    227  CG2       60.5130   28.3490   65.7010 C.3   332  THR332      0.0375
    228  N         67.6030   33.4720   62.2180 N.3   335  VAL335     -0.1245
    229  CA        67.8880   34.3790   63.3270 C.3   335  VAL335      0.1561
    230  C         69.2620   35.0040   63.0640 C.2   335  VAL335      0.2260
    231  O         70.2760   34.3010   63.0990 O.2   335  VAL335     -0.2867
    232  CB        67.7930   33.7790   64.7620 C.3   335  VAL335      0.0252
    233  CG1       67.7440   34.8920   65.7970 C.3   335  VAL335      0.0019
    234  CG2       66.5780   32.8590   64.9340 C.3   335  VAL335      0.0019
@<TRIPOS>BOND
     1   167   168    1
     2   168   169    1
     3   168   171    1
     4   169   170    2
     5   171   172    1
     6   213   212    2
     7   176   177    1
     8   172   173    1
     9   212   211    1
    10   228   229    1
    11   177   178    1
    12   177   180    1
    13   223   224    2
    14   223   222    1
    15   179   178    2
    16   173   174    1
    17   211   210    1
    18   211   214    1
    19   230   231    2
    20   230   229    1
    21   182   180    1
    22   221   222    1
    23   229   232    1
    24   222   225    1
    25   180   181    1
    26   175   174    1
    27   158   157    2
    28   214   215    1
    29   181   183    1
    30   157   156    1
    31   232   234    1
    32   232   233    1
    33   225   226    1
    34   225   227    1
    35   159   156    1
    36   159   160    1
    37   155   156    1
    38   162   160   ar
    39   162   164   ar
    40   215   216    1
    41   160   161   ar
    42   184   185    1
    43   164   165   ar
    44   220   218    1
    45   216   217    1
    46   218   217    2
    47   218   219    1
    48   161   163   ar
    49   185   188    1
    50   185   186    1
    51   165   163   ar
    52   165   166    1
    53   188   189    1
    54   206   205    2
    55   142   140    1
    56   186   187    2
    57   202   200    1
    58   205   204    1
    59   189   191   ar
    60   189   190   ar
    61   200   201    1
    62   200   197    1
    63   199   198    2
    64   143   141    1
    65   140   141    1
    66   140   137    1
    67   136   137    1
    68    31    30    1
    69    31    32    1
    70   198   197    1
    71   198   203   am
    72   204   203    1
    73   204   207    1
    74   137   138    1
    75   197   196    1
    76    33    32    2
    77    32    34   am
    78   209   207    1
    79   196   194   am
    80   207   208    1
    81    72    70    1
    82    71    70    1
    83   192   193    1
    84    34    35    1
    85   138   139    2
    86    70    67    1
    87   194   193    1
    88   194   195    2
    89    37    36    2
    90    24    25    2
    91    24    23    1
    92    35    36    1
    93    35    38    1
    94    28    27   ar
    95    67    66    1
    96    67    68    1
    97   154   152    1
    98    69    68    2
    99    23    22    1
   100    23    26    1
   101    27    29   ar
   102    27    26    1
   103    66    56   am
   104    38    39    1
   105    68    73   am
   106   151   152    2
   107   151   150    1
   108   152   153    1
   109    56    57    2
   110    56    55    1
   111    50    49    2
   112    73    74    1
   113    55    58    1
   114    55    54    1
   115   150   149    1
   116    52    51    1
   117    52    53    1
   118    81    79   am
   119    58    59    1
   120    49    54   am
   121    49    48    1
   122    60    62   ar
   123    60    59   ar
   124   144   145    1
   125    77    74    1
   126    77    78    1
   127    74    75    1
   128    11    10    1
   129    11    12    1
   130   149   148    1
   131    51    48    1
   132    53    47    1
   133    10     3   am
   134     1     2    1
   135    21    19    1
   136    62    64   ar
   137    12    13    2
   138    59    61   ar
   139    78    79    1
   140    79    80    2
   141   145   148    1
   142   145   146    1
   143    48    47    1
   144    45    44    1
   145    47    42   am
   146    75    82   am
   147    75    76    2
   148    19    20    1
   149    19    18    1
   150     3     2    1
   151     3     4    2
   152    82    83    1
   153   135   133    1
   154     2     5    1
   155    16    17    2
   156    16    15    1
   157   146   147    2
   158    64    65    1
   159    64    63   ar
   160    61    63   ar
   161    85    84    2
   162   133   132    1
   163    42    41    1
   164    42    43    2
   165    44    46    1
   166    44    41    1
   167    41    40    1
   168    18    15    1
   169    15    14    1
   170     5     6    1
   171    83    84    1
   172     6     7    1
   173   113   111    1
   174   130   131    2
   175   130   129    1
   176   132   134    1
   177   132   129    1
   178   129   128    1
   179     7     8    2
   180     7     9   am
   181    92    93    1
   182    92    91    1
   183   103   101   ar
   184   103   105   ar
   185    93    94    1
   186   122   123   ar
   187   122   120   ar
   188   125   123   ar
   189   125   127   ar
   190    89    88    2
   191   101   100   ar
   192   111   110    1
   193   123   121   ar
   194   120   119   ar
   195   127   126   ar
   196    90    91    1
   197    90    87    1
   198   105   104   ar
   199    98    97    2
   200   112   110    1
   201   121   119   ar
   202   121   124   ar
   203    88    87    1
   204    88    95   am
   205   119   118    1
   206   110   107    1
   207   126   124   ar
   208   100    99    1
   209   100   102   ar
   210    96    97    1
   211    96    99    1
   212    96    95    1
   213    87    86    1
   214   104   102   ar
   215   118   115    1
   216   107   106    1
   217   107   108    1
   218   115   114    1
   219   115   116    1
   220   108   109    2
   221   116   117    2
