@<TRIPOS>MOLECULE
tmp/6bfyC00.pdb
 149 139 0 0 0
SMALL
GASTEIGER

@<TRIPOS>ATOM
      1  N        -35.4010  -41.1150   27.8460 N.3    47  GLY47      -0.1210
      2  CA       -35.1330  -41.3090   29.2740 C.3    47  GLY47       0.1956
      3  C        -35.7050  -42.4930   29.9790 C.2    47  GLY47       0.2612
      4  O        -36.6950  -43.1130   29.4940 O.2    47  GLY47      -0.2717
      5  N        -35.0890  -42.7950   31.1390 N.am   48  ALA48      -0.1965
      6  CA       -35.5780  -43.8010   32.1370 C.3    48  ALA48       0.1728
      7  C        -36.0570  -43.0330   33.3760 C.2    48  ALA48       0.2616
      8  O        -37.2240  -43.1640   33.7480 O.2    48  ALA48      -0.2715
      9  CB       -34.4580  -44.8160   32.4910 C.3    48  ALA48       0.0334
     10  N        -35.1610  -42.2130   33.9630 N.am   49  SER49      -0.1950
     11  CA       -35.5140  -41.3530   35.0850 C.3    49  SER49       0.1924
     12  C        -36.0570  -40.0470   34.4910 C.2    49  SER49       0.2314
     13  O        -35.3760  -38.9940   34.4580 O.2    49  SER49      -0.2863
     14  CB       -34.3160  -41.1570   36.0600 C.3    49  SER49       0.2116
     15  OG       -33.1610  -40.6790   35.3170 O.3    49  SER49      -0.2180
     16  N        -30.6080  -46.7500   36.2790 N.3   166  HIS166     -0.1241
     17  CA       -29.7440  -47.1520   35.1640 C.3   166  HIS166      0.1621
     18  C        -29.1310  -48.4940   35.4010 C.2   166  HIS166      0.2264
     19  O        -28.4110  -48.9620   34.5210 O.2   166  HIS166     -0.2867
     20  CB       -28.6090  -46.0970   34.8490 C.3   166  HIS166      0.0745
     21  CG       -29.1630  -44.7550   34.4970 C.ar  166  HIS166      0.0817
     22  ND1      -28.3770  -43.6310   34.3650 N.ar  166  HIS166     -0.2268
     23  CD2      -30.4520  -44.3650   34.2360 C.ar  166  HIS166      0.1154
     24  CE1      -29.1520  -42.6130   34.0210 C.ar  166  HIS166      0.1986
     25  NE2      -30.4210  -43.0350   33.9390 N.ar  166  HIS166     -0.2212
     26  N        -27.7750  -42.0130   41.2080 N.3   174  GLN174     -0.1231
     27  CA       -27.7880  -42.4540   39.7860 C.3   174  GLN174      0.1698
     28  C        -26.4240  -42.4830   39.1400 C.2   174  GLN174      0.2592
     29  O        -26.1940  -43.4320   38.3750 O.2   174  GLN174     -0.2718
     30  CB       -28.7450  -41.6370   38.9250 C.3   174  GLN174      0.0381
     31  CG       -29.0730  -42.2360   37.5490 C.3   174  GLN174      0.0905
     32  CD       -30.1580  -41.3740   36.9120 C.2   174  GLN174      0.2608
     33  OE1      -31.3770  -41.6980   36.9760 O.2   174  GLN174     -0.2717
     34  NE2      -29.7300  -40.2620   36.3050 N.am  174  GLN174     -0.0878
     35  N        -25.5910  -41.4260   39.3380 N.am  175  GLU175     -0.1979
     36  CA       -24.3870  -41.3240   38.5990 C.3   175  GLU175      0.1602
     37  C        -23.2540  -40.7820   39.3730 C.2   175  GLU175      0.2287
     38  O        -23.4430  -39.7690   40.0480 O.2   175  GLU175     -0.2864
     39  CB       -24.5670  -40.3920   37.3810 C.3   175  GLU175      0.0415
     40  CG       -25.9320  -40.5570   36.6410 C.3   175  GLU175      0.1163
     41  CD       -26.1450  -39.7110   35.4090 C.2   175  GLU175      0.3649
     42  OE1      -25.3490  -38.7560   35.0380 O.co2 175  GLU175     -0.2457
     43  OE2      -27.2430  -39.9530   34.8850 O.co2 175  GLU175     -0.2457
     44  N        -25.5260  -46.5950   30.8890 N.3   216  GLU216     -0.1245
     45  CA       -24.5720  -45.5260   30.3940 C.3   216  GLU216      0.1567
     46  C        -23.1410  -45.9380   30.3980 C.2   216  GLU216      0.2260
     47  O        -22.2360  -45.0690   30.2740 O.2   216  GLU216     -0.2867
     48  CB       -24.7370  -44.2430   31.2250 C.3   216  GLU216      0.0388
     49  CG       -26.2170  -43.7270   31.1540 C.3   216  GLU216      0.1160
     50  CD       -26.4200  -42.3270   31.6720 C.2   216  GLU216      0.3649
     51  OE1      -25.4190  -41.7050   32.2070 O.co2 216  GLU216     -0.2457
     52  OE2      -27.5880  -41.7890   31.4880 O.co2 216  GLU216     -0.2457
     53  N        -24.7980  -37.2090   39.9660 N.3   253  ASP253     -0.1239
     54  CA       -26.2170  -36.9320   39.6310 C.3   253  ASP253      0.1674
     55  C        -26.9790  -37.8590   40.5100 C.2   253  ASP253      0.2266
     56  O        -26.8540  -39.0640   40.3430 O.2   253  ASP253     -0.2867
     57  CB       -26.5390  -37.1980   38.1150 C.3   253  ASP253      0.1410
     58  CG       -28.1240  -37.0850   37.7700 C.2   253  ASP253      0.3668
     59  OD1      -28.9350  -36.6680   38.6220 O.co2 253  ASP253     -0.2456
     60  OD2      -28.5200  -37.3730   36.6300 O.co2 253  ASP253     -0.2456
     61  N        -30.3030  -37.8530   41.0520 N.3   255  ALA255     -0.1245
     62  CA       -31.7050  -38.1220   40.6020 C.3   255  ALA255      0.1562
     63  C        -32.5720  -38.4240   41.7990 C.2   255  ALA255      0.2260
     64  O        -33.2470  -39.4410   41.9370 O.2   255  ALA255     -0.2867
     65  CB       -31.7840  -39.2100   39.4300 C.3   255  ALA255      0.0290
     66  N        -25.9780  -32.7780   40.7120 N.3   297  GLU297     -0.1245
     67  CA       -27.1210  -32.5930   39.9340 C.3   297  GLU297      0.1567
     68  C        -28.3270  -33.2620   40.5980 C.2   297  GLU297      0.2260
     69  O        -28.2150  -34.3850   41.0740 O.2   297  GLU297     -0.2867
     70  CB       -26.8700  -33.1630   38.4650 C.3   297  GLU297      0.0388
     71  CG       -28.1500  -33.4460   37.6350 C.3   297  GLU297      0.1160
     72  CD       -27.9090  -34.2190   36.3250 C.2   297  GLU297      0.3649
     73  OE1      -26.6810  -34.2600   35.8440 O.co2 297  GLU297     -0.2457
     74  OE2      -28.9610  -34.7820   35.8400 O.co2 297  GLU297     -0.2457
     75  N        -31.9720  -30.6400   36.6360 N.3   324  ASP324     -0.1225
     76  CA       -32.1860  -31.5320   35.4570 C.3   324  ASP324      0.1805
     77  C        -33.7110  -31.7670   35.4370 C.2   324  ASP324      0.2597
     78  O        -34.4070  -31.0450   34.7250 O.2   324  ASP324     -0.2718
     79  CB       -31.4110  -32.8300   35.5490 C.3   324  ASP324      0.1424
     80  CG       -31.9090  -33.9080   34.5200 C.2   324  ASP324      0.3668
     81  OD1      -32.5940  -33.4970   33.5060 O.co2 324  ASP324     -0.2456
     82  OD2      -31.6870  -35.1620   34.7100 O.co2 324  ASP324     -0.2456
     83  N        -34.2380  -32.6730   36.2230 N.am  325  ASP325     -0.1974
     84  CA       -35.7520  -32.7890   36.3350 C.3   325  ASP325      0.1709
     85  C        -36.3730  -31.5490   36.9540 C.2   325  ASP325      0.2293
     86  O        -37.6030  -31.2610   36.8010 O.2   325  ASP325     -0.2864
     87  CB       -36.0950  -34.0130   37.1300 C.3   325  ASP325      0.1436
     88  CG       -35.6410  -35.3110   36.4460 C.2   325  ASP325      0.3671
     89  OD1      -35.6640  -35.4650   35.1740 O.co2 325  ASP325     -0.2456
     90  OD2      -35.2440  -36.2370   37.2280 O.co2 325  ASP325     -0.2456
     91  N        -29.0950  -28.7120   33.0520 N.3   347  LEU347     -0.1245
     92  CA       -28.7390  -29.8540   32.2480 C.3   347  LEU347      0.1561
     93  C        -29.7030  -29.7700   31.0290 C.2   347  LEU347      0.2260
     94  O        -30.9600  -29.7220   31.2080 O.2   347  LEU347     -0.2867
     95  CB       -29.0250  -31.1500   32.9650 C.3   347  LEU347      0.0270
     96  CG       -28.3330  -32.3540   32.3170 C.3   347  LEU347      0.0019
     97  CD1      -26.7930  -32.3630   32.5990 C.3   347  LEU347      0.0001
     98  CD2      -28.9540  -33.6120   32.7650 C.3   347  LEU347      0.0001
     99  N        -31.3080  -31.1300   27.7630 N.3   349  LYS349     -0.1301
    100  CA       -31.7680  -32.2960   27.0260 C.3   349  LYS349      0.1247
    101  C        -32.8600  -31.8390   26.0240 C.3   349  LYS349      0.2009
    102  O        -34.0340  -31.4630   26.4240 O.3   349  LYS349     -0.2188
    103  CB       -32.3950  -33.3470   27.9410 C.3   349  LYS349      0.0218
    104  CG       -31.4100  -33.9740   28.8570 C.3   349  LYS349      0.0031
    105  CD       -32.1690  -34.6280   30.0080 C.3   349  LYS349      0.0205
    106  CE       -31.2010  -35.5150   30.7070 C.3   349  LYS349      0.1093
    107  NZ       -31.8590  -35.8930   31.9380 N.3   349  LYS349     -0.1314
    108  N        -26.5840  -32.6310   27.5610 N.3   376  SER376     -0.1202
    109  CA       -26.5920  -33.9980   27.9720 C.3   376  SER376      0.2020
    110  C        -27.2720  -35.0210   27.0950 C.2   376  SER376      0.2619
    111  O        -28.2330  -34.7280   26.3780 O.2   376  SER376     -0.2717
    112  CB       -27.2950  -34.0450   29.3230 C.3   376  SER376      0.2103
    113  OG       -27.6180  -35.3290   29.8800 O.3   376  SER376     -0.2182
    114  N        -26.8000  -36.2540   27.2110 N.am  377  HIS377     -0.1961
    115  CA       -27.5290  -37.4020   26.6690 C.3   377  HIS377      0.1787
    116  C        -28.7690  -37.7850   27.4610 C.2   377  HIS377      0.2620
    117  O        -29.0770  -37.1670   28.5090 O.2   377  HIS377     -0.2715
    118  CB       -26.5990  -38.5570   26.5640 C.3   377  HIS377      0.0785
    119  CG       -26.0820  -39.0820   27.8290 C.ar  377  HIS377      0.0821
    120  ND1      -26.2580  -38.4910   29.0660 N.ar  377  HIS377     -0.2267
    121  CD2      -25.3380  -40.1820   28.0200 C.ar  377  HIS377      0.1154
    122  CE1      -25.5980  -39.2280   29.9660 C.ar  377  HIS377      0.1986
    123  NE2      -25.0830  -40.2790   29.3560 N.ar  377  HIS377     -0.2212
    124  N        -29.4820  -38.7960   26.9430 N.am  378  ARG378     -0.1963
    125  CA       -30.3600  -39.5220   27.7320 C.3   378  ARG378      0.1729
    126  C        -29.7840  -40.8880   27.9510 C.2   378  ARG378      0.2616
    127  O        -28.9130  -41.3630   27.2190 O.2   378  ARG378     -0.2715
    128  CB       -31.7070  -39.6710   27.1050 C.3   378  ARG378      0.0348
    129  CG       -32.4600  -38.4200   26.7990 C.3   378  ARG378      0.0492
    130  CD       -32.5900  -37.4590   27.9560 C.3   378  ARG378      0.2205
    131  NE       -33.2610  -37.9450   29.1400 N.pl3 378  ARG378     -0.0865
    132  CZ       -34.5220  -37.5980   29.5460 C.cat 378  ARG378      0.5346
    133  NH1      -35.2440  -36.7840   28.8510 N.pl3 378  ARG378      0.1354
    134  NH2      -34.9620  -37.9500   30.7570 N.pl3 378  ARG378      0.1354
    135  N        -30.3410  -41.5600   28.9430 N.am  379  SER379     -0.1950
    136  CA       -29.9440  -42.9750   29.2330 C.3   379  SER379      0.1924
    137  C        -30.2550  -43.9850   28.0480 C.2   379  SER379      0.2314
    138  O        -29.4770  -44.9380   27.8390 O.2   379  SER379     -0.2863
    139  CB       -30.4360  -43.4720   30.6260 C.3   379  SER379      0.2116
    140  OG       -31.8510  -43.5980   30.6210 O.3   379  SER379     -0.2180
    141  N        -22.3490  -34.0520   29.1830 N.3   400  LYS400     -0.1197
    142  CA       -22.5230  -35.2190   29.9720 C.3   400  LYS400      0.1778
    143  C        -23.0390  -36.2220   29.0050 C.2   400  LYS400      0.2305
    144  O        -24.2220  -36.1230   28.5420 O.2   400  LYS400     -0.2863
    145  CB       -23.5120  -35.0070   31.2230 C.2   400  LYS400     -0.0042
    146  CG       -23.7230  -36.1920   32.1850 C.2   400  LYS400     -0.0273
    147  CD       -24.6760  -36.0390   33.3370 C.3   400  LYS400      0.0462
    148  CE       -26.1670  -36.3670   32.9340 C.3   400  LYS400      0.1140
    149  NZ       -26.9990  -36.5820   34.1560 N.3   400  LYS400     -0.1310
@<TRIPOS>BOND
     1   101   102    1
     2   101   100    1
     3   111   110    2
     4   118   115    1
     5   118   119    1
     6   115   114    1
     7   115   116    1
     8   129   128    1
     9   129   130    1
    10   124   116   am
    11   124   125    1
    12   100    99    1
    13   100   103    1
    14   110   114   am
    15   110   109    1
    16   128   125    1
    17   127   126    2
    18   116   117    2
    19   108   109    1
    20   125   126    1
    21   119   121   ar
    22   119   120   ar
    23   138   137    2
    24     1     2    1
    25   103   104    1
    26   126   135   am
    27   130   131    1
    28   109   112    1
    29   121   123   ar
    30   137   136    1
    31   144   143    2
    32   133   132    1
    33   104   105    1
    34   135   136    1
    35   143   142    1
    36   120   122   ar
    37   131   132    2
    38   141   142    1
    39   136   139    1
    40     2     3    1
    41   112   113    1
    42   123   122   ar
    43     4     3    2
    44   132   134    1
    45   142   145    1
    46     3     5   am
    47   105   106    1
    48    47    46    2
    49    45    46    1
    50    45    44    1
    51    45    48    1
    52   140   139    1
    53   106   107    1
    54    93    94    2
    55    93    92    1
    56     5     6    1
    57    49    48    1
    58    49    50    1
    59   145   146    2
    60    52    50   ar
    61    50    51   ar
    62     6     9    1
    63     6     7    1
    64   146   147    1
    65    92    95    1
    66    92    91    1
    67    96    97    1
    68    96    98    1
    69    96    95    1
    70   148   147    1
    71   148   149    1
    72     7     8    2
    73     7    10   am
    74    81    80   ar
    75    25    24   ar
    76    25    23   ar
    77    10    11    1
    78    24    22   ar
    79    23    21   ar
    80    22    21   ar
    81    13    12    2
    82    12    11    1
    83    21    20    1
    84    80    82   ar
    85    80    79    1
    86    19    18    2
    87    78    77    2
    88    20    17    1
    89    43    41   ar
    90    42    41   ar
    91    11    14    1
    92    17    18    1
    93    17    16    1
    94    89    88   ar
    95    15    14    1
    96    41    40    1
    97    77    76    1
    98    77    83   am
    99    76    79    1
   100    76    75    1
   101    74    72   ar
   102    73    72   ar
   103    83    84    1
   104    34    32   am
   105    72    71    1
   106    84    85    1
   107    84    87    1
   108    88    87    1
   109    88    90   ar
   110    60    58   ar
   111    40    39    1
   112    86    85    2
   113    32    33    2
   114    32    31    1
   115    39    36    1
   116    31    30    1
   117    71    70    1
   118    58    57    1
   119    58    59   ar
   120    57    54    1
   121    29    28    2
   122    70    67    1
   123    36    35    1
   124    36    37    1
   125    30    27    1
   126    28    35   am
   127    28    27    1
   128    37    38    2
   129    65    62    1
   130    54    53    1
   131    54    55    1
   132    27    26    1
   133    67    68    1
   134    67    66    1
   135    56    55    2
   136    68    69    2
   137    62    61    1
   138    62    63    1
   139    63    64    2
