@<TRIPOS>MOLECULE
tmp/6bg2C00.pdb
 161 149 0 0 0
SMALL
GASTEIGER

@<TRIPOS>ATOM
      1  N         30.9960  -10.8560  -13.0430 N.3    31  LEU31      -0.1231
      2  CA        30.9200  -11.4760  -14.3670 C.3    31  LEU31       0.1693
      3  C         30.0670  -10.6800  -15.3500 C.2    31  LEU31       0.2593
      4  O         30.3480  -10.6980  -16.5540 O.2    31  LEU31      -0.2718
      5  CB        30.3880  -12.9070  -14.2570 C.3    31  LEU31       0.0284
      6  CG        31.2620  -13.8590  -13.4350 C.3    31  LEU31       0.0019
      7  CD1       30.5370  -15.1540  -13.1190 C.3    31  LEU31       0.0001
      8  CD2       32.5860  -14.1350  -14.1430 C.3    31  LEU31       0.0001
      9  N         29.0220  -10.0040  -14.8750 N.am   32  GLY32      -0.1942
     10  CA        28.1750   -9.2040  -15.7410 C.3    32  GLY32       0.2014
     11  C         27.3740   -8.2270  -14.9130 C.2    32  GLY32       0.2639
     12  O         27.1470   -8.4380  -13.7170 O.2    32  GLY32      -0.2714
     13  N         26.9520   -7.1400  -15.5620 N.am   33  VAL33      -0.1963
     14  CA        26.1420   -6.1030  -14.9310 C.3    33  VAL33       0.1727
     15  C         24.9990   -5.7140  -15.8630 C.2    33  VAL33       0.2616
     16  O         24.8670   -6.2280  -16.9760 O.2    33  VAL33      -0.2715
     17  CB        26.9730   -4.8530  -14.5630 C.3    33  VAL33       0.0290
     18  CG1       26.0340   -3.8600  -13.9010 C.3    33  VAL33       0.0023
     19  CG2       28.1090   -5.2310  -13.6050 C.3    33  VAL33       0.0023
     20  N         24.1850   -4.7800  -15.3970 N.am   34  GLY34      -0.1955
     21  CA        23.0460   -4.3000  -16.1510 C.3    34  GLY34       0.1869
     22  C         21.9950   -3.7410  -15.2180 C.2    34  GLY34       0.2309
     23  O         22.1500   -3.7360  -13.9950 O.2    34  GLY34      -0.2863
     24  N         19.2290   -5.0820  -14.6580 N.3    36  PHE36      -0.1241
     25  CA        18.6280   -6.2120  -13.9650 C.3    36  PHE36       0.1605
     26  C         19.3320   -6.5200  -12.6550 C.2    36  PHE36       0.2264
     27  O         18.7170   -7.0800  -11.7410 O.2    36  PHE36      -0.2867
     28  CB        18.7250   -7.4560  -14.8470 C.3    36  PHE36       0.0534
     29  CG        20.1520   -7.9350  -15.0510 C.ar   36  PHE36      -0.0203
     30  CD1       20.6900   -8.9450  -14.2580 C.ar   36  PHE36      -0.0042
     31  CD2       20.9620   -7.3540  -16.0160 C.ar   36  PHE36      -0.0042
     32  CE1       22.0020   -9.3720  -14.4370 C.ar   36  PHE36      -0.0003
     33  CE2       22.2690   -7.7770  -16.2020 C.ar   36  PHE36      -0.0003
     34  CZ        22.7890   -8.7870  -15.4140 C.ar   36  PHE36      -0.0000
     35  N         25.8620  -10.1910  -11.9540 N.3    39  VAL39      -0.1245
     36  CA        26.2700  -11.5800  -11.7970 C.3    39  VAL39       0.1561
     37  C         27.6840  -11.5260  -11.2360 C.2    39  VAL39       0.2260
     38  O         28.5980  -11.0120  -11.8930 O.2    39  VAL39      -0.2867
     39  CB        26.2240  -12.3560  -13.1220 C.3    39  VAL39       0.0252
     40  CG1       26.6530  -13.7980  -12.9060 C.3    39  VAL39       0.0019
     41  CG2       24.8300  -12.2940  -13.7250 C.3    39  VAL39       0.0019
     42  N         28.5520  -18.7260   -9.9080 N.3    53  ALA53      -0.1245
     43  CA        28.0280  -17.4800  -10.4470 C.3    53  ALA53       0.1562
     44  C         26.7540  -17.1530   -9.6860 C.2    53  ALA53       0.2260
     45  O         25.7660  -17.8900   -9.7700 O.2    53  ALA53      -0.2867
     46  CB        27.7470  -17.5810  -11.9420 C.3    53  ALA53       0.0290
     47  N         23.7790  -14.7060   -9.4560 N.3    55  LYS55      -0.1245
     48  CA        23.0220  -13.6350  -10.0820 C.3    55  LYS55       0.1561
     49  C         22.2310  -12.9260   -8.9920 C.2    55  LYS55       0.2260
     50  O         21.4500  -13.5560   -8.2720 O.2    55  LYS55      -0.2867
     51  CB        22.1040  -14.1580  -11.1920 C.3    55  LYS55       0.0271
     52  CG        21.4010  -13.0230  -11.9310 C.3    55  LYS55       0.0035
     53  CD        20.8050  -13.3990  -13.2890 C.3    55  LYS55       0.0206
     54  CE        20.1490  -14.7610  -13.3330 C.3    55  LYS55       0.1093
     55  NZ        19.3070  -14.8980  -14.5660 N.3    55  LYS55      -0.1314
     56  N         19.6020   -9.9440   -8.2940 N.3    57  LEU57      -0.1245
     57  CA        18.6080   -9.1860   -9.0320 C.3    57  LEU57       0.1561
     58  C         17.9110   -8.2110   -8.1080 C.2    57  LEU57       0.2260
     59  O         17.5100   -8.5730   -6.9990 O.2    57  LEU57      -0.2867
     60  CB        17.5600  -10.1020   -9.6810 C.3    57  LEU57       0.0270
     61  CG        17.9970  -11.2070  -10.6300 C.3    57  LEU57       0.0019
     62  CD1       16.7720  -11.9070  -11.1860 C.3    57  LEU57       0.0001
     63  CD2       18.8130  -10.6070  -11.7570 C.3    57  LEU57       0.0001
     64  N         23.0960  -24.5860  -17.4820 N.3    87  VAL87      -0.1245
     65  CA        23.7200  -24.0670  -16.2660 C.3    87  VAL87       0.1561
     66  C         22.9020  -24.4870  -15.0540 C.2    87  VAL87       0.2260
     67  O         21.6950  -24.2330  -14.9820 O.2    87  VAL87      -0.2867
     68  CB        23.8510  -22.5400  -16.3380 C.3    87  VAL87       0.0252
     69  CG1       24.4890  -22.0020  -15.0560 C.3    87  VAL87       0.0019
     70  CG2       24.6880  -22.1320  -17.5440 C.3    87  VAL87       0.0019
     71  N         24.4010  -20.1910   -9.0430 N.3   103  MET103     -0.1230
     72  CA        24.4690  -21.0230  -10.2270 C.3   103  MET103      0.1702
     73  C         25.8720  -21.5640  -10.4140 C.2   103  MET103      0.2592
     74  O         26.8490  -21.0700   -9.8420 O.2   103  MET103     -0.2718
     75  CB        24.0850  -20.2580  -11.5020 C.3   103  MET103      0.0401
     76  CG        22.7420  -19.5810  -11.5030 C.3   103  MET103      0.0596
     77  SD        22.5890  -18.6630  -13.0480 S.3   103  MET103     -0.1393
     78  CE        23.4500  -17.1650  -12.5820 C.3   103  MET103      0.0692
     79  N         25.9430  -22.5970  -11.2410 N.am  104  GLU104     -0.1979
     80  CA        27.2200  -23.0950  -11.7180 C.3   104  GLU104      0.1602
     81  C         27.9330  -21.9910  -12.4880 C.2   104  GLU104      0.2287
     82  O         27.3230  -21.2940  -13.3030 O.2   104  GLU104     -0.2864
     83  CB        26.9750  -24.3230  -12.6010 C.3   104  GLU104      0.0415
     84  CG        28.0570  -24.6430  -13.6000 C.3   104  GLU104      0.1163
     85  CD        27.6040  -25.6820  -14.6070 C.2   104  GLU104      0.3649
     86  OE1       26.3770  -25.9310  -14.7100 O.co2 104  GLU104     -0.2457
     87  OE2       28.4800  -26.2600  -15.2840 O.co2 104  GLU104     -0.2457
     88  N         30.3340  -20.7240  -15.3290 N.3   106  CYS106     -0.1221
     89  CA        30.8760  -21.1370  -16.6200 C.3   106  CYS106      0.1808
     90  C         31.9210  -20.0940  -16.9850 C.2   106  CYS106      0.2601
     91  O         31.5880  -19.0110  -17.4720 O.2   106  CYS106     -0.2717
     92  CB        29.7730  -21.2440  -17.6680 C.3   106  CYS106      0.0970
     93  SG        28.5920  -22.5510  -17.2920 S.3   106  CYS106     -0.0800
     94  N         33.1870  -20.4420  -16.7750 N.am  107  LEU107     -0.1979
     95  CA        34.2630  -19.4660  -16.8320 C.3   107  LEU107      0.1596
     96  C         34.8910  -19.3640  -18.2100 C.2   107  LEU107      0.2287
     97  O         35.8580  -18.6130  -18.3850 O.2   107  LEU107     -0.2864
     98  CB        35.3320  -19.8060  -15.7880 C.3   107  LEU107      0.0297
     99  CG        34.8080  -19.7380  -14.3450 C.3   107  LEU107      0.0022
    100  CD1       35.8860  -20.1060  -13.3190 C.3   107  LEU107      0.0001
    101  CD2       34.2440  -18.3610  -14.0630 C.3   107  LEU107      0.0001
    102  N         31.3370  -15.8340  -22.8470 N.3   110  GLU110     -0.1245
    103  CA        30.1660  -15.7560  -23.7090 C.3   110  GLU110      0.1567
    104  C         30.4910  -16.1620  -25.1440 C.2   110  GLU110      0.2260
    105  O         31.5360  -15.7970  -25.6880 O.2   110  GLU110     -0.2867
    106  CB        29.6130  -14.3300  -23.7210 C.3   110  GLU110      0.0388
    107  CG        29.5510  -13.6380  -22.3770 C.3   110  GLU110      0.1160
    108  CD        28.8230  -12.3120  -22.4650 C.2   110  GLU110      0.3649
    109  OE1       29.3570  -11.3720  -23.0970 O.co2 110  GLU110     -0.2457
    110  OE2       27.7020  -12.2180  -21.9210 O.co2 110  GLU110     -0.2457
    111  N         23.5490  -15.3220  -27.6130 N.3   153  GLU153     -0.1231
    112  CA        23.7450  -14.6250  -26.3440 C.3   153  GLU153      0.1699
    113  C         23.3840  -15.4810  -25.1410 C.2   153  GLU153      0.2592
    114  O         23.8860  -15.2320  -24.0390 O.2   153  GLU153     -0.2718
    115  CB        22.9130  -13.3510  -26.3130 C.3   153  GLU153      0.0402
    116  CG        23.3370  -12.3380  -27.2840 C.3   153  GLU153      0.1161
    117  CD        22.6560  -12.4360  -28.6310 C.2   153  GLU153      0.3649
    118  OE1       22.4490  -13.5830  -29.1110 O.co2 153  GLU153     -0.2457
    119  OE2       22.3210  -11.3790  -29.2130 O.co2 153  GLU153     -0.2457
    120  N         22.5620  -16.5070  -25.3290 N.am  154  ASN154     -0.1974
    121  CA        22.1550  -17.3630  -24.2260 C.3   154  ASN154      0.1688
    122  C         22.9440  -18.6550  -24.1720 C.2   154  ASN154      0.2292
    123  O         22.5490  -19.5900  -23.4720 O.2   154  ASN154     -0.2864
    124  CB        20.6510  -17.6120  -24.3000 C.3   154  ASN154      0.1181
    125  CG        19.8570  -16.4150  -23.8030 C.2   154  ASN154      0.2629
    126  OD1       20.4220  -15.4780  -23.2290 O.2   154  ASN154     -0.2716
    127  ND2       18.5480  -16.4390  -24.0110 N.am  154  ASN154     -0.0877
    128  N         26.6850  -20.0560  -23.1090 N.3   156  ILE156     -0.1245
    129  CA        27.8880  -19.6910  -22.3770 C.3   156  ILE156      0.1561
    130  C         28.7910  -20.9130  -22.3120 C.2   156  ILE156      0.2260
    131  O         28.3250  -22.0540  -22.2590 O.2   156  ILE156     -0.2867
    132  CB        27.5500  -19.1370  -20.9720 C.3   156  ILE156      0.0252
    133  CG1       28.7720  -18.4900  -20.2900 C.3   156  ILE156      0.0019
    134  CG2       26.9200  -20.2160  -20.0660 C.3   156  ILE156      0.0019
    135  CD1       29.0560  -17.1250  -20.8870 C.3   156  ILE156      0.0001
    136  N         21.9720  -20.7170  -20.7190 N.3   166  VAL166     -0.1231
    137  CA        21.7430  -19.8260  -19.5980 C.3   166  VAL166      0.1692
    138  C         20.5120  -18.9850  -19.9280 C.2   166  VAL166      0.2592
    139  O         20.0380  -18.9740  -21.0620 O.2   166  VAL166     -0.2718
    140  CB        22.9850  -18.9510  -19.3170 C.3   166  VAL166      0.0266
    141  CG1       23.1090  -17.8370  -20.3570 C.3   166  VAL166      0.0020
    142  CG2       22.9850  -18.4130  -17.8870 C.3   166  VAL166      0.0020
    143  N         20.0080  -18.2620  -18.9260 N.am  167  ASP167     -0.1974
    144  CA        18.8830  -17.3410  -19.1000 C.3   167  ASP167      0.1709
    145  C         17.5960  -18.0800  -19.4490 C.2   167  ASP167      0.2293
    146  O         17.2850  -18.2960  -20.6230 O.2   167  ASP167     -0.2864
    147  CB        19.1790  -16.2760  -20.1570 C.3   167  ASP167      0.1436
    148  CG        18.1210  -15.1780  -20.1900 C.2   167  ASP167      0.3671
    149  OD1       18.2760  -14.2290  -20.9820 O.co2 167  ASP167     -0.2456
    150  OD2       17.1470  -15.2420  -19.4060 O.co2 167  ASP167     -0.2456
    151  N         35.8580  -12.7340  -19.1360 N.3   313  PHE313     -0.1241
    152  CA        34.7350  -11.8220  -19.0100 C.3   313  PHE313      0.1605
    153  C         35.2320  -10.3840  -18.9850 C.2   313  PHE313      0.2264
    154  O         36.3830  -10.1110  -18.6350 O.2   313  PHE313     -0.2867
    155  CB        33.9070  -12.1410  -17.7570 C.3   313  PHE313      0.0534
    156  CG        33.2060  -13.4720  -17.8270 C.ar  313  PHE313     -0.0203
    157  CD1       33.8770  -14.6410  -17.5120 C.ar  313  PHE313     -0.0042
    158  CD2       31.8830  -13.5530  -18.2360 C.ar  313  PHE313     -0.0042
    159  CE1       33.2380  -15.8680  -17.5810 C.ar  313  PHE313     -0.0003
    160  CE2       31.2360  -14.7780  -18.3120 C.ar  313  PHE313     -0.0003
    161  CZ        31.9170  -15.9340  -17.9870 C.ar  313  PHE313     -0.0000
@<TRIPOS>BOND
     1   119   117   ar
     2   118   117   ar
     3   117   116    1
     4   111   112    1
     5   116   115    1
     6   112   115    1
     7   112   113    1
     8   105   104    2
     9   120   113   am
    10   120   121    1
    11   104   103    1
    12   113   114    2
    13   124   121    1
    14   124   125    1
    15   121   122    1
    16   122   123    2
    17   127   125   am
    18   125   126    2
    19   106   103    1
    20   106   107    1
    21   103   102    1
    22   128   129    1
    23   109   108   ar
    24   108   107    1
    25   108   110   ar
    26   129   130    1
    27   129   132    1
    28   130   131    2
    29   139   138    2
    30   149   148   ar
    31   132   133    1
    32   132   134    1
    33   135   133    1
    34   136   137    1
    35   146   145    2
    36   141   140    1
    37   148   147    1
    38   148   150   ar
    39   147   144    1
    40   138   137    1
    41   138   143   am
    42   137   140    1
    43   145   144    1
    44   140   142    1
    45   151   152    1
    46   144   143    1
    47   152   153    1
    48   152   155    1
    49   153   154    2
    50    97    96    2
    51   160   158   ar
    52   160   161   ar
    53   158   156   ar
    54    96    95    1
    55   161   159   ar
    56   156   155    1
    57   156   157   ar
    58    92    93    1
    59    92    89    1
    60   159   157   ar
    61    70    68    1
    62    64    65    1
    63    91    90    2
    64    90    94   am
    65    90    89    1
    66    16    15    2
    67    95    94    1
    68    95    98    1
    69    89    88    1
    70     4     3    2
    71    68    65    1
    72    68    69    1
    73    65    66    1
    74    33    31   ar
    75    33    34   ar
    76    21    20    1
    77    21    22    1
    78    31    29   ar
    79    15    20   am
    80    15    14    1
    81    98    99    1
    82    10    11    1
    83    10     9    1
    84    13    14    1
    85    13    11   am
    86    34    32   ar
    87     3     9   am
    88     3     2    1
    89    87    85   ar
    90    22    23    2
    91    66    67    2
    92    29    28    1
    93    29    30   ar
    94    14    17    1
    95    11    12    2
    96    28    25    1
    97    86    85   ar
    98    24    25    1
    99    85    84    1
   100    55    54    1
   101    17    18    1
   102    17    19    1
   103    32    30   ar
   104     2     5    1
   105     2     1    1
   106    99   101    1
   107    99   100    1
   108     5     6    1
   109     8     6    1
   110    25    26    1
   111    41    39    1
   112    84    83    1
   113     6     7    1
   114    54    53    1
   115    82    81    2
   116    53    52    1
   117    39    40    1
   118    39    36    1
   119    77    78    1
   120    77    76    1
   121    26    27    2
   122    83    80    1
   123    81    80    1
   124    35    36    1
   125    46    43    1
   126    52    51    1
   127    38    37    2
   128    36    37    1
   129    63    61    1
   130    80    79    1
   131    76    75    1
   132    75    72    1
   133    79    73   am
   134    51    48    1
   135    62    61    1
   136    61    60    1
   137    43    42    1
   138    43    44    1
   139    73    72    1
   140    73    74    2
   141    72    71    1
   142    48    47    1
   143    48    49    1
   144    45    44    2
   145    60    57    1
   146    57    56    1
   147    57    58    1
   148    49    50    2
   149    58    59    2
