@<TRIPOS>MOLECULE
tmp/6bg3A00.pdb
 178 170 0 0 0
SMALL
GASTEIGER

@<TRIPOS>ATOM
      1  N         22.7260  -14.6840   -8.8830 N.3   199  ILE199     -0.1245
      2  CA        21.5490  -14.8440   -9.7250 C.3   199  ILE199      0.1561
      3  C         21.0710  -16.2960   -9.7260 C.2   199  ILE199      0.2260
      4  O         19.8620  -16.5590   -9.6180 O.2   199  ILE199     -0.2867
      5  CB        21.8440  -14.3320  -11.1660 C.3   199  ILE199      0.0252
      6  CG1       22.1660  -12.8240  -11.1500 C.3   199  ILE199      0.0019
      7  CG2       20.6880  -14.6270  -12.0890 C.3   199  ILE199      0.0019
      8  CD1       21.0620  -11.9150  -10.6550 C.3   199  ILE199      0.0001
      9  N         19.3610  -17.0610   -6.4630 N.3   202  ILE202     -0.1231
     10  CA        18.0750  -16.3800   -6.3760 C.3   202  ILE202      0.1692
     11  C         17.0390  -17.1610   -7.1900 C.2   202  ILE202      0.2591
     12  O         15.9170  -17.3670   -6.7370 O.2   202  ILE202     -0.2718
     13  CB        18.1900  -14.9110   -6.8490 C.3   202  ILE202      0.0266
     14  CG1       19.0230  -14.0820   -5.8700 C.3   202  ILE202      0.0019
     15  CG2       16.8180  -14.2950   -7.0590 C.3   202  ILE202      0.0020
     16  CD1       19.5930  -12.8090   -6.4650 C.3   202  ILE202      0.0001
     17  N         17.4120  -17.6070   -8.3830 N.am  203  GLN203     -0.1979
     18  CA        16.5130  -18.4190   -9.1780 C.3   203  GLN203      0.1601
     19  C         16.1150  -19.6930   -8.4220 C.2   203  GLN203      0.2287
     20  O         14.9450  -20.0840   -8.4050 O.2   203  GLN203     -0.2864
     21  CB        17.1760  -18.7800  -10.5060 C.3   203  GLN203      0.0394
     22  CG        16.3280  -19.6660  -11.4100 C.3   203  GLN203      0.0908
     23  CD        15.2390  -18.9030  -12.1110 C.2   203  GLN203      0.2608
     24  OE1       15.4900  -17.8890  -12.7650 O.2   203  GLN203     -0.2717
     25  NE2       14.0120  -19.3880  -11.9770 N.am  203  GLN203     -0.0878
     26  N         16.0870  -20.2120   -5.1500 N.3   205  PHE205     -0.1227
     27  CA        15.2270  -19.8020   -4.0340 C.3   205  PHE205      0.1736
     28  C         13.7830  -19.6020   -4.5210 C.2   205  PHE205      0.2595
     29  O         12.8460  -20.1200   -3.9240 O.2   205  PHE205     -0.2718
     30  CB        15.8480  -18.5220   -3.4680 C.3   205  PHE205      0.0547
     31  CG        15.2190  -17.9660   -2.2390 C.ar  205  PHE205     -0.0202
     32  CD1       15.3730  -18.5720   -1.0150 C.ar  205  PHE205     -0.0042
     33  CD2       14.5940  -16.7350   -2.2590 C.ar  205  PHE205     -0.0042
     34  CE1       14.8630  -17.9950    0.1260 C.ar  205  PHE205     -0.0003
     35  CE2       14.0910  -16.1750   -1.1060 C.ar  205  PHE205     -0.0003
     36  CZ        14.2370  -16.8130    0.0710 C.ar  205  PHE205     -0.0000
     37  N         13.6200  -18.8820   -5.6410 N.am  206  CYS206     -0.1970
     38  CA        12.2950  -18.6780   -6.2300 C.3   206  CYS206      0.1712
     39  C         11.6840  -20.0220   -6.6290 C.2   206  CYS206      0.2296
     40  O         10.5090  -20.2680   -6.3790 O.2   206  CYS206     -0.2864
     41  CB        12.3710  -17.7500   -7.4490 C.3   206  CYS206      0.0983
     42  SG        12.7740  -16.0350   -7.0520 S.3   206  CYS206     -0.0798
     43  N         10.3540  -15.4930  -10.7450 N.3   213  PRO213     -0.2102
     44  CA        11.2300  -14.3910  -10.2980 C.3   213  PRO213      0.1504
     45  C         10.7900  -13.0030  -10.7330 C.2   213  PRO213      0.2575
     46  O         11.2640  -11.9970  -10.1740 O.2   213  PRO213     -0.2718
     47  CB        12.5670  -14.7250  -10.9560 C.3   213  PRO213      0.0282
     48  CG        12.5330  -16.1730  -11.1790 C.3   213  PRO213      0.0208
     49  CD        11.1050  -16.5080  -11.5090 C.3   213  PRO213      0.0893
     50  N          9.9000  -12.9410  -11.7160 N.am  214  ALA214     -0.1980
     51  CA         9.4040  -11.6600  -12.1890 C.3   214  ALA214      0.1597
     52  C          8.0790  -11.2770  -11.5150 C.2   214  ALA214      0.2287
     53  O          7.4950  -10.2600  -11.8810 O.2   214  ALA214     -0.2864
     54  CB         9.2570  -11.7020  -13.7100 C.3   214  ALA214      0.0319
     55  N          7.9050  -11.9080   -5.4050 N.3   218  VAL218     -0.1231
     56  CA         9.3390  -11.9840   -5.2050 C.3   218  VAL218      0.1692
     57  C          9.9180  -10.5990   -4.8180 C.2   218  VAL218      0.2591
     58  O         10.8350  -10.5070   -3.9970 O.2   218  VAL218     -0.2718
     59  CB        10.0090  -12.6100   -6.4310 C.3   218  VAL218      0.0266
     60  CG1       11.4990  -12.4410   -6.4100 C.3   218  VAL218      0.0020
     61  CG2        9.6520  -14.0920   -6.4830 C.3   218  VAL218      0.0020
     62  N          9.3970   -9.5280   -5.4110 N.am  219  LEU219     -0.1980
     63  CA         9.7680   -8.1850   -4.9770 C.3   219  LEU219      0.1596
     64  C          9.3410   -7.9140   -3.5270 C.2   219  LEU219      0.2287
     65  O         10.0510   -7.2640   -2.7730 O.2   219  LEU219     -0.2864
     66  CB         9.1760   -7.1480   -5.9340 C.3   219  LEU219      0.0297
     67  CG         9.5180   -5.6800   -5.6400 C.3   219  LEU219      0.0022
     68  CD1       11.0160   -5.4310   -5.6490 C.3   219  LEU219      0.0001
     69  CD2        8.8240   -4.8080   -6.6530 C.3   219  LEU219      0.0001
     70  N          9.0840  -10.1600   -1.1960 N.3   221  ILE221     -0.1231
     71  CA        10.0410  -10.8590   -0.3660 C.3   221  ILE221      0.1692
     72  C         11.3350  -10.0380   -0.2270 C.2   221  ILE221      0.2591
     73  O         11.8510   -9.8730    0.8860 O.2   221  ILE221     -0.2718
     74  CB        10.3200  -12.2450   -0.9270 C.3   221  ILE221      0.0266
     75  CG1        9.0650  -13.1210   -0.8610 C.3   221  ILE221      0.0019
     76  CG2       11.4550  -12.9050   -0.1480 C.3   221  ILE221      0.0020
     77  CD1        9.1840  -14.3810   -1.7170 C.3   221  ILE221      0.0001
     78  N         11.8550   -9.5040   -1.3340 N.am  222  ALA222     -0.1980
     79  CA        13.0580   -8.6770   -1.2570 C.3   222  ALA222      0.1597
     80  C         12.8690   -7.4740   -0.3330 C.2   222  ALA222      0.2287
     81  O         13.7640   -7.1340    0.4540 O.2   222  ALA222     -0.2864
     82  CB        13.4790   -8.2260   -2.6520 C.3   222  ALA222      0.0319
     83  N         13.0480   -8.6540    3.2380 N.3   225  PHE225     -0.1241
     84  CA        14.4520   -8.9210    3.5180 C.3   225  PHE225      0.1605
     85  C         15.3260   -7.6510    3.4440 C.2   225  PHE225      0.2264
     86  O         16.5410   -7.7160    3.6590 O.2   225  PHE225     -0.2867
     87  CB        15.0170  -10.0070    2.5940 C.3   225  PHE225      0.0534
     88  CG        14.6620  -11.4360    3.0070 C.ar  225  PHE225     -0.0203
     89  CD1       13.4370  -12.0080    2.7130 C.ar  225  PHE225     -0.0042
     90  CD2       15.5830  -12.1960    3.6630 C.ar  225  PHE225     -0.0042
     91  CE1       13.1570  -13.3080    3.0990 C.ar  225  PHE225     -0.0003
     92  CE2       15.3170  -13.4840    4.0660 C.ar  225  PHE225     -0.0003
     93  CZ        14.1010  -14.0520    3.7570 C.ar  225  PHE225     -0.0000
     94  N         16.4800   -6.0600    1.0400 N.3   227  ALA227     -0.1245
     95  CA        17.6020   -6.3040    0.1610 C.3   227  ALA227      0.1562
     96  C         18.1540   -5.0460   -0.4730 C.2   227  ALA227      0.2260
     97  O         17.4050   -4.2000   -0.9210 O.2   227  ALA227     -0.2867
     98  CB        17.2300   -7.3000   -0.9180 C.3   227  ALA227      0.0290
     99  N         20.0440   -4.7700   -3.3200 N.3   229  THR229     -0.1203
    100  CA        20.1350   -4.7310   -4.7620 C.3   229  THR229      0.1994
    101  C         19.5950   -5.9870   -5.3780 C.2   229  THR229      0.2617
    102  O         19.7240   -7.0780   -4.8380 O.2   229  THR229     -0.2717
    103  CB        21.5960   -4.4900   -5.2170 C.3   229  THR229      0.1784
    104  OG1       21.6320   -4.3280   -6.6420 O.3   229  THR229     -0.2211
    105  CG2       22.5190   -5.6010   -4.8130 C.3   229  THR229      0.0376
    106  N         19.0150   -5.8340   -6.5600 N.am  230  GLN230     -0.1979
    107  CA        18.3700   -6.9600   -7.1980 C.3   230  GLN230      0.1601
    108  C         19.3630   -8.0000   -7.6830 C.2   230  GLN230      0.2287
    109  O         18.9760   -9.1420   -7.9380 O.2   230  GLN230     -0.2864
    110  CB        17.4980   -6.5100   -8.3610 C.3   230  GLN230      0.0394
    111  CG        18.2340   -5.7580   -9.4570 C.3   230  GLN230      0.0908
    112  CD        17.4370   -5.6910  -10.7240 C.2   230  GLN230      0.2608
    113  OE1       17.0160   -6.7180  -11.2350 O.2   230  GLN230     -0.2717
    114  NE2       17.2500   -4.4890  -11.2490 N.am  230  GLN230     -0.0878
    115  N         22.0200   -9.4190   -6.1870 N.3   232  GLU232     -0.1231
    116  CA        22.5760  -10.3890   -5.2590 C.3   232  GLU232      0.1699
    117  C         21.7600  -10.3550   -3.9790 C.2   232  GLU232      0.2592
    118  O         20.9680   -9.4400   -3.7800 O.2   232  GLU232     -0.2718
    119  CB        24.0410  -10.1220   -4.9500 C.3   232  GLU232      0.0402
    120  CG        24.2630   -8.8060   -4.2440 C.3   232  GLU232      0.1161
    121  CD        25.6730   -8.6440   -3.7010 C.2   232  GLU232      0.3649
    122  OE1       26.6200   -8.9220   -4.4490 O.co2 232  GLU232     -0.2457
    123  OE2       25.8200   -8.2260   -2.5300 O.co2 232  GLU232     -0.2457
    124  N         21.9450  -11.3540   -3.1170 N.am  233  PHE233     -0.1976
    125  CA        21.1930  -11.5050   -1.8600 C.3   233  PHE233      0.1639
    126  C         22.2780  -11.8680   -0.8490 C.2   233  PHE233      0.2290
    127  O         22.8280  -12.9580   -0.9050 O.2   233  PHE233     -0.2864
    128  CB        20.1160  -12.5510   -2.1600 C.3   233  PHE233      0.0560
    129  CG        19.1280  -12.8300   -1.0590 C.ar  233  PHE233     -0.0200
    130  CD1       19.0080  -12.0710    0.0880 C.ar  233  PHE233     -0.0042
    131  CD2       18.2910  -13.9240   -1.2190 C.ar  233  PHE233     -0.0042
    132  CE1       18.0510  -12.4080    1.0370 C.ar  233  PHE233     -0.0003
    133  CE2       17.3480  -14.2610   -0.2850 C.ar  233  PHE233     -0.0003
    134  CZ        17.2220  -13.4870    0.8520 C.ar  233  PHE233     -0.0000
    135  N         16.4050   -0.7410   -4.7720 N.3   280  PHE280     -0.1241
    136  CA        16.6490   -2.1420   -5.0320 C.3   280  PHE280      0.1605
    137  C         16.9320   -2.3730   -6.5080 C.2   280  PHE280      0.2264
    138  O         17.7960   -3.1670   -6.8810 O.2   280  PHE280     -0.2867
    139  CB        15.4010   -2.9140   -4.5720 C.3   280  PHE280      0.0534
    140  CG        15.4290   -4.3760   -4.8770 C.ar  280  PHE280     -0.0203
    141  CD1       16.2450   -5.2510   -4.1620 C.ar  280  PHE280     -0.0042
    142  CD2       14.5910   -4.9060   -5.8430 C.ar  280  PHE280     -0.0042
    143  CE1       16.2410   -6.5930   -4.4650 C.ar  280  PHE280     -0.0003
    144  CE2       14.5790   -6.2520   -6.1260 C.ar  280  PHE280     -0.0003
    145  CZ        15.3960   -7.0900   -5.4250 C.ar  280  PHE280     -0.0000
    146  N         14.6810    0.1130  -16.9120 N.3   293  MET293     -0.1245
    147  CA        14.4670   -0.6200  -15.6790 C.3   293  MET293      0.1570
    148  C         13.3420    0.0170  -14.8670 C.2   293  MET293      0.2261
    149  O         12.5450   -0.6880  -14.2510 O.2   293  MET293     -0.2867
    150  CB        15.7700   -0.6820  -14.8800 C.3   293  MET293      0.0387
    151  CG        15.7140   -1.6350  -13.6800 C.3   293  MET293      0.0595
    152  SD        15.5520   -3.3740  -14.1150 S.3   293  MET293     -0.1393
    153  CE        17.1860   -3.6990  -14.7910 C.3   293  MET293      0.0692
    154  N         10.0700   -1.1260  -16.3550 N.3   296  ALA296     -0.1231
    155  CA         9.7770   -2.5170  -15.9920 C.3   296  ALA296      0.1694
    156  C          9.2380   -2.6200  -14.5580 C.2   296  ALA296      0.2592
    157  O          8.2580   -3.3190  -14.3130 O.2   296  ALA296     -0.2718
    158  CB        11.0200   -3.3830  -16.1710 C.3   296  ALA296      0.0304
    159  N          9.8850   -1.9380  -13.6120 N.am  297  TYR297     -0.1976
    160  CA         9.4150   -1.9980  -12.2460 C.3   297  TYR297      0.1639
    161  C          8.1200   -1.2140  -12.0350 C.2   297  TYR297      0.2290
    162  O          7.2780   -1.6660  -11.2780 O.2   297  TYR297     -0.2864
    163  CB        10.5250   -1.6090  -11.2650 C.3   297  TYR297      0.0560
    164  CG        11.3210   -2.7960  -10.8590 C.ar  297  TYR297     -0.0198
    165  CD1       10.7930   -3.7130   -9.9520 C.ar  297  TYR297     -0.0009
    166  CD2       12.5680   -3.0390  -11.3910 C.ar  297  TYR297     -0.0009
    167  CE1       11.4690   -4.8310   -9.5730 C.ar  297  TYR297      0.0417
    168  CE2       13.3010   -4.1910  -11.0010 C.ar  297  TYR297      0.0417
    169  CZ        12.7250   -5.0670  -10.0770 C.ar  297  TYR297      0.1957
    170  OH        13.3930   -6.1840   -9.6720 O.3   297  TYR297     -0.2866
    171  N          5.4210   -3.5340  -12.9710 N.3   300  LEU300     -0.1245
    172  CA         5.1950   -4.5710  -11.9840 C.3   300  LEU300      0.1561
    173  C          4.4020   -4.0390  -10.7740 C.2   300  LEU300      0.2260
    174  O          3.4720   -4.6810  -10.3020 O.2   300  LEU300     -0.2867
    175  CB         6.5260   -5.1570  -11.5250 C.3   300  LEU300      0.0270
    176  CG         6.4060   -6.2880  -10.5100 C.3   300  LEU300      0.0019
    177  CD1        5.6550   -7.4590  -11.1010 C.3   300  LEU300      0.0001
    178  CD2        7.7790   -6.7160  -10.0510 C.3   300  LEU300      0.0001
@<TRIPOS>BOND
     1   146   147    1
     2   154   155    1
     3   158   155    1
     4   155   156    1
     5   147   150    1
     6   147   148    1
     7   150   151    1
     8   148   149    2
     9   153   152    1
    10   156   157    2
    11   156   159   am
    12   152   151    1
    13    54    51    1
    14   159   160    1
    15   171   172    1
    16    24    23    2
    17   160   161    1
    18   160   163    1
    19    51    50    1
    20    51    52    1
    21    23    25   am
    22    23    22    1
    23     7     5    1
    24   161   162    2
    25   172   175    1
    26   172   173    1
    27    53    52    2
    28    50    45   am
    29   175   176    1
    30    49    48    1
    31    49    43    1
    32    22    21    1
    33   166   168   ar
    34   166   164   ar
    35   163   164    1
    36   114   112   am
    37   113   112    2
    38    48    47    1
    39     5     6    1
    40     5     2    1
    41     6     8    1
    42   177   176    1
    43   168   169   ar
    44    47    44    1
    45   164   165   ar
    46   173   174    2
    47    43    44    1
    48    45    44    1
    49    45    46    2
    50   112   111    1
    51   176   178    1
    52    21    18    1
    53   169   170    1
    54   169   167   ar
    55   165   167   ar
    56     3     2    1
    57     3     4    2
    58     2     1    1
    59   111   110    1
    60    18    19    1
    61    18    17    1
    62    19    20    2
    63    17    11   am
    64   110   107    1
    65   109   108    2
    66   108   107    1
    67    41    42    1
    68    41    38    1
    69   107   106    1
    70    11    12    2
    71    11    10    1
    72    15    13    1
    73   138   137    2
    74    13    10    1
    75    13    14    1
    76    69    67    1
    77   104   103    1
    78    39    40    2
    79    39    38    1
    80   106   101   am
    81   137   136    1
    82    61    59    1
    83    16    14    1
    84     9    10    1
    85    59    60    1
    86    59    56    1
    87    38    37    1
    88   115   116    1
    89   144   142   ar
    90   144   145   ar
    91    66    67    1
    92    66    63    1
    93   142   140   ar
    94    68    67    1
    95    37    28   am
    96   145   143   ar
    97    62    63    1
    98    62    57   am
    99    55    56    1
   100   101   102    2
   101   101   100    1
   102   116   119    1
   103   116   117    1
   104   103   105    1
   105   103   100    1
   106    56    57    1
   107    26    27    1
   108   136   135    1
   109   136   139    1
   110    63    64    1
   111   119   120    1
   112   140   139    1
   113   140   141   ar
   114    57    58    2
   115   100    99    1
   116    28    27    1
   117    28    29    2
   118   143   141   ar
   119   122   121   ar
   120   120   121    1
   121    27    30    1
   122   117   118    2
   123   117   124   am
   124   121   123   ar
   125    64    65    2
   126    30    31    1
   127   124   125    1
   128    82    79    1
   129    33    31   ar
   130    33    35   ar
   131    31    32   ar
   132   128   125    1
   133   128   129    1
   134   125   126    1
   135    77    75    1
   136    78    79    1
   137    78    72   am
   138    79    80    1
   139   131   129   ar
   140   131   133   ar
   141    70    71    1
   142    35    36   ar
   143   129   130   ar
   144    32    34   ar
   145    74    75    1
   146    74    71    1
   147    74    76    1
   148    97    96    2
   149    98    95    1
   150   127   126    2
   151    96    95    1
   152    71    72    1
   153    80    81    2
   154   133   134   ar
   155    72    73    2
   156    36    34   ar
   157   130   132   ar
   158    95    94    1
   159   134   132   ar
   160    87    88    1
   161    87    84    1
   162    89    88   ar
   163    89    91   ar
   164    88    90   ar
   165    91    93   ar
   166    83    84    1
   167    85    84    1
   168    85    86    2
   169    90    92   ar
   170    93    92   ar
