@<TRIPOS>MOLECULE
tmp/6bg5A00.pdb
 176 170 0 0 0
SMALL
GASTEIGER

@<TRIPOS>ATOM
      1  N         22.4760  -13.4180   -9.0090 N.3   199  ILE199     -0.1245
      2  CA        21.2720  -13.5640   -9.8070 C.3   199  ILE199      0.1561
      3  C         20.7780  -15.0060   -9.8270 C.2   199  ILE199      0.2260
      4  O         19.5740  -15.2640   -9.7020 O.2   199  ILE199     -0.2867
      5  CB        21.4950  -13.0240  -11.2400 C.3   199  ILE199      0.0252
      6  CG1       21.8430  -11.5270  -11.1880 C.3   199  ILE199      0.0019
      7  CG2       20.2700  -13.3180  -12.1050 C.3   199  ILE199      0.0019
      8  CD1       20.7280  -10.6480  -10.6260 C.3   199  ILE199      0.0001
      9  N         19.1430  -15.7350   -6.4960 N.3   202  ILE202     -0.1231
     10  CA        17.8680  -15.0660   -6.3610 C.3   202  ILE202      0.1692
     11  C         16.8060  -15.8330   -7.1510 C.2   202  ILE202      0.2591
     12  O         15.6740  -16.0080   -6.6890 O.2   202  ILE202     -0.2718
     13  CB        17.9450  -13.5770   -6.8070 C.3   202  ILE202      0.0266
     14  CG1       18.8480  -12.7860   -5.8730 C.3   202  ILE202      0.0019
     15  CG2       16.5540  -12.9670   -6.8680 C.3   202  ILE202      0.0020
     16  CD1       19.3890  -11.4930   -6.4840 C.3   202  ILE202      0.0001
     17  N         17.1410  -16.2710   -8.3520 N.am  203  GLN203     -0.1979
     18  CA        16.2100  -17.0780   -9.1170 C.3   203  GLN203      0.1601
     19  C         15.8260  -18.3530   -8.3680 C.2   203  GLN203      0.2287
     20  O         14.6410  -18.7360   -8.3450 O.2   203  GLN203     -0.2864
     21  CB        16.8070  -17.4480  -10.4750 C.3   203  GLN203      0.0394
     22  CG        15.9140  -18.3950  -11.2570 C.3   203  GLN203      0.0908
     23  CD        14.7600  -17.6820  -11.9290 C.2   203  GLN203      0.2608
     24  OE1       14.9520  -16.6920  -12.6320 O.2   203  GLN203     -0.2717
     25  NE2       13.5450  -18.1850  -11.7090 N.am  203  GLN203     -0.0878
     26  N         15.8290  -18.8310   -5.1250 N.3   205  PHE205     -0.1227
     27  CA        14.9940  -18.3750   -4.0170 C.3   205  PHE205      0.1736
     28  C         13.5440  -18.1690   -4.4740 C.2   205  PHE205      0.2595
     29  O         12.6080  -18.6640   -3.8640 O.2   205  PHE205     -0.2718
     30  CB        15.6490  -17.1140   -3.4590 C.3   205  PHE205      0.0547
     31  CG        14.9680  -16.4740   -2.3060 C.ar  205  PHE205     -0.0202
     32  CD1       15.0140  -16.9830   -1.0290 C.ar  205  PHE205     -0.0042
     33  CD2       14.3840  -15.2320   -2.4790 C.ar  205  PHE205     -0.0042
     34  CE1       14.4400  -16.3060    0.0190 C.ar  205  PHE205     -0.0003
     35  CE2       13.8280  -14.5490   -1.4170 C.ar  205  PHE205     -0.0003
     36  CZ        13.8640  -15.0960   -0.1790 C.ar  205  PHE205     -0.0000
     37  N         13.3600  -17.4630   -5.5980 N.am  206  CYS206     -0.1970
     38  CA        12.0320  -17.2670   -6.1710 C.3   206  CYS206      0.1712
     39  C         11.3790  -18.6030   -6.5280 C.2   206  CYS206      0.2296
     40  O         10.1980  -18.7990   -6.2510 O.2   206  CYS206     -0.2864
     41  CB        12.0600  -16.3470   -7.3940 C.3   206  CYS206      0.0983
     42  SG        12.5260  -14.6500   -7.0180 S.3   206  CYS206     -0.0798
     43  N          9.8510  -14.3040  -10.7540 N.3   213  PRO213     -0.2102
     44  CA        10.7060  -13.1670  -10.3640 C.3   213  PRO213      0.1504
     45  C         10.1540  -11.8240  -10.8070 C.2   213  PRO213      0.2575
     46  O         10.5220  -10.8240  -10.1790 O.2   213  PRO213     -0.2718
     47  CB        12.0350  -13.4540  -11.0720 C.3   213  PRO213      0.0282
     48  CG        12.0720  -14.9110  -11.1970 C.3   213  PRO213      0.0208
     49  CD        10.6290  -15.3250  -11.4780 C.3   213  PRO213      0.0893
     50  N          9.3100  -11.7940  -11.8430 N.am  214  ALA214     -0.1980
     51  CA         8.6790  -10.5620  -12.3480 C.3   214  ALA214      0.1597
     52  C          7.4650  -10.1060  -11.5380 C.2   214  ALA214      0.2287
     53  O          6.9150   -9.0540  -11.8050 O.2   214  ALA214     -0.2864
     54  CB         8.2770  -10.7600  -13.8020 C.3   214  ALA214      0.0319
     55  N          7.7020  -10.4020   -5.4370 N.3   218  VAL218     -0.1231
     56  CA         9.1490  -10.4480   -5.2820 C.3   218  VAL218      0.1692
     57  C          9.7060   -9.0740   -4.8960 C.2   218  VAL218      0.2591
     58  O         10.6200   -8.9910   -4.0820 O.2   218  VAL218     -0.2718
     59  CB         9.7890  -11.0610   -6.5240 C.3   218  VAL218      0.0266
     60  CG1       11.2710  -10.8950   -6.5370 C.3   218  VAL218      0.0020
     61  CG2        9.4180  -12.5390   -6.5930 C.3   218  VAL218      0.0020
     62  N          9.1600   -8.0040   -5.4670 N.am  219  LEU219     -0.1980
     63  CA         9.5780   -6.6680   -5.0590 C.3   219  LEU219      0.1596
     64  C          9.1480   -6.3860   -3.6110 C.2   219  LEU219      0.2287
     65  O          9.8810   -5.7350   -2.8520 O.2   219  LEU219     -0.2864
     66  CB         9.0410   -5.6350   -6.0310 C.3   219  LEU219      0.0297
     67  CG         9.4880   -4.1990   -5.7960 C.3   219  LEU219      0.0022
     68  CD1       11.0040   -4.0890   -5.7870 C.3   219  LEU219      0.0001
     69  CD2        8.9100   -3.3230   -6.8740 C.3   219  LEU219      0.0001
     70  N          8.9390   -8.6300   -1.2480 N.3   221  ILE221     -0.1231
     71  CA         9.9190   -9.3410   -0.4410 C.3   221  ILE221      0.1692
     72  C         11.2120   -8.5190   -0.3400 C.2   221  ILE221      0.2591
     73  O         11.7470   -8.3560    0.7580 O.2   221  ILE221     -0.2718
     74  CB        10.1770  -10.7320   -1.0140 C.3   221  ILE221      0.0266
     75  CG1        8.9220  -11.5980   -0.8870 C.3   221  ILE221      0.0019
     76  CG2       11.3560  -11.3810   -0.2950 C.3   221  ILE221      0.0020
     77  CD1        8.9670  -12.8510   -1.7250 C.3   221  ILE221      0.0001
     78  N         11.7060   -7.9920   -1.4630 N.am  222  ALA222     -0.1980
     79  CA        12.9250   -7.1820   -1.4120 C.3   222  ALA222      0.1597
     80  C         12.7540   -5.9910   -0.4590 C.2   222  ALA222      0.2287
     81  O         13.6730   -5.6670    0.3020 O.2   222  ALA222     -0.2864
     82  CB        13.3000   -6.7160   -2.8090 C.3   222  ALA222      0.0319
     83  N         12.9520   -7.1760    3.1230 N.3   225  PHE225     -0.1241
     84  CA        14.3480   -7.4570    3.4160 C.3   225  PHE225      0.1605
     85  C         15.2520   -6.2120    3.3140 C.2   225  PHE225      0.2264
     86  O         16.4670   -6.3060    3.5170 O.2   225  PHE225     -0.2867
     87  CB        14.8980   -8.5700    2.4970 C.3   225  PHE225      0.0534
     88  CG        14.5170   -9.9730    2.9270 C.ar  225  PHE225     -0.0203
     89  CD1       13.2730  -10.5000    2.6560 C.ar  225  PHE225     -0.0042
     90  CD2       15.4160  -10.7650    3.6050 C.ar  225  PHE225     -0.0042
     91  CE1       12.9610  -11.7920    3.0490 C.ar  225  PHE225     -0.0003
     92  CE2       15.0990  -12.0390    3.9790 C.ar  225  PHE225     -0.0003
     93  CZ        13.8770  -12.5540    3.7070 C.ar  225  PHE225     -0.0000
     94  N         16.4380   -4.6770    0.8530 N.3   227  ALA227     -0.1245
     95  CA        17.5470   -4.9610   -0.0360 C.3   227  ALA227      0.1562
     96  C         18.0800   -3.6700   -0.6480 C.2   227  ALA227      0.2260
     97  O         17.3160   -2.8170   -1.0990 O.2   227  ALA227     -0.2867
     98  CB        17.1200   -5.9170   -1.1130 C.3   227  ALA227      0.0290
     99  N         20.0030   -3.3200   -3.4290 N.3   229  THR229     -0.1203
    100  CA        20.0920   -3.2810   -4.8700 C.3   229  THR229      0.1994
    101  C         19.5390   -4.5230   -5.5070 C.2   229  THR229      0.2618
    102  O         19.6370   -5.6030   -4.9610 O.2   229  THR229     -0.2717
    103  CB        21.5780   -3.0360   -5.3060 C.3   229  THR229      0.1784
    104  OG1       21.6370   -2.8540   -6.7120 O.3   229  THR229     -0.2211
    105  CG2       22.4950   -4.1750   -4.9310 C.3   229  THR229      0.0376
    106  N         19.0100   -4.3680   -6.7100 N.am  230  GLN230     -0.1965
    107  CA        18.3620   -5.4760   -7.4020 C.3   230  GLN230      0.1733
    108  C         19.3460   -6.5470   -7.8370 C.2   230  GLN230      0.2616
    109  O         18.9680   -7.6910   -8.0800 O.2   230  GLN230     -0.2715
    110  CB        17.5920   -4.9840   -8.6210 C.3   230  GLN230      0.0408
    111  CG        18.4300   -4.3900   -9.7300 C.3   230  GLN230      0.0908
    112  CD        17.5680   -3.8460  -10.8580 C.2   230  GLN230      0.2608
    113  OE1       16.5930   -4.4690  -11.2960 O.2   230  GLN230     -0.2717
    114  NE2       17.8700   -2.6650  -11.2850 N.am  230  GLN230     -0.0878
    115  N         20.6250   -6.1980   -7.9690 N.am  231  CYS231     -0.1954
    116  CA        21.5690   -7.1160   -8.5840 C.3   231  CYS231      0.1843
    117  C         22.1340   -8.1750   -7.6410 C.2   231  CYS231      0.2625
    118  O         22.7950   -9.1020   -8.1080 O.2   231  CYS231     -0.2714
    119  CB        22.7200   -6.3410   -9.2460 C.3   231  CYS231      0.0997
    120  SG        23.9800   -5.6530   -8.1150 S.3   231  CYS231     -0.0797
    121  N         21.9060   -8.0480   -6.3370 N.am  232  GLU232     -0.1963
    122  CA        22.4050   -9.0270   -5.3990 C.3   232  GLU232      0.1733
    123  C         21.5670   -8.9630   -4.1410 C.2   232  GLU232      0.2616
    124  O         20.8060   -8.0170   -3.9290 O.2   232  GLU232     -0.2715
    125  CB        23.8680   -8.8020   -5.0900 C.3   232  GLU232      0.0429
    126  CG        24.0980   -7.5310   -4.3350 C.3   232  GLU232      0.1163
    127  CD        25.5260   -7.3450   -3.8770 C.2   232  GLU232      0.3649
    128  OE1       26.4510   -7.6520   -4.6540 O.co2 232  GLU232     -0.2457
    129  OE2       25.7150   -6.8700   -2.7380 O.co2 232  GLU232     -0.2457
    130  N         21.7410   -9.9590   -3.2860 N.am  233  PHE233     -0.1974
    131  CA        20.9600  -10.0960   -2.0430 C.3   233  PHE233      0.1639
    132  C         22.0140  -10.4850   -0.9990 C.2   233  PHE233      0.2290
    133  O         22.5450  -11.5890   -1.0430 O.2   233  PHE233     -0.2864
    134  CB        19.8840  -11.1540   -2.2940 C.3   233  PHE233      0.0560
    135  CG        18.8850  -11.3890   -1.1850 C.ar  233  PHE233     -0.0200
    136  CD1       18.7340  -10.5870   -0.0730 C.ar  233  PHE233     -0.0042
    137  CD2       18.0560  -12.4920   -1.3170 C.ar  233  PHE233     -0.0042
    138  CE1       17.7510  -10.8780    0.8610 C.ar  233  PHE233     -0.0003
    139  CE2       17.0870  -12.7730   -0.4040 C.ar  233  PHE233     -0.0003
    140  CZ        16.9380  -11.9700    0.6850 C.ar  233  PHE233     -0.0000
    141  N         16.3580    0.7170   -4.7970 N.3   280  PHE280     -0.1241
    142  CA        16.6150   -0.6730   -5.1220 C.3   280  PHE280      0.1605
    143  C         16.9100   -0.8310   -6.6190 C.2   280  PHE280      0.2264
    144  O         17.7460   -1.6450   -7.0240 O.2   280  PHE280     -0.2867
    145  CB        15.3680   -1.4570   -4.7270 C.3   280  PHE280      0.0534
    146  CG        15.4010   -2.9120   -5.0820 C.ar  280  PHE280     -0.0203
    147  CD1       16.1590   -3.8180   -4.3650 C.ar  280  PHE280     -0.0042
    148  CD2       14.6100   -3.3820   -6.1120 C.ar  280  PHE280     -0.0042
    149  CE1       16.1140   -5.1500   -4.6790 C.ar  280  PHE280     -0.0003
    150  CE2       14.5780   -4.7320   -6.4510 C.ar  280  PHE280     -0.0003
    151  CZ        15.3180   -5.6150   -5.7170 C.ar  280  PHE280     -0.0000
    152  N         10.2170    0.4230  -16.2900 N.3   296  ALA296     -0.1231
    153  CA         9.9600   -0.9600  -15.9490 C.3   296  ALA296      0.1694
    154  C          9.4060   -1.0740  -14.5220 C.2   296  ALA296      0.2592
    155  O          8.4390   -1.7870  -14.2850 O.2   296  ALA296     -0.2718
    156  CB        11.2330   -1.7830  -16.0940 C.3   296  ALA296      0.0304
    157  N         10.0240   -0.3790  -13.5800 N.am  297  TYR297     -0.1976
    158  CA         9.5560   -0.4450  -12.2140 C.3   297  TYR297      0.1639
    159  C          8.2190    0.2910  -11.9880 C.2   297  TYR297      0.2290
    160  O          7.3640   -0.2030  -11.2700 O.2   297  TYR297     -0.2864
    161  CB        10.6400    0.0420  -11.2600 C.3   297  TYR297      0.0560
    162  CG        11.6510   -1.0250  -10.9290 C.ar  297  TYR297     -0.0198
    163  CD1       11.4270   -1.8670   -9.8690 C.ar  297  TYR297     -0.0009
    164  CD2       12.8250   -1.1860  -11.6500 C.ar  297  TYR297     -0.0009
    165  CE1       12.3410   -2.8230   -9.5110 C.ar  297  TYR297      0.0417
    166  CE2       13.7620   -2.1740  -11.2900 C.ar  297  TYR297      0.0417
    167  CZ        13.4860   -2.9680  -10.2180 C.ar  297  TYR297      0.1957
    168  OH        14.3820   -3.9310   -9.8080 O.3   297  TYR297     -0.2866
    169  N          5.4860   -2.0280  -12.9440 N.3   300  LEU300     -0.1245
    170  CA         5.2150   -3.0520  -11.9590 C.3   300  LEU300      0.1561
    171  C          4.4530   -2.4700  -10.7530 C.2   300  LEU300      0.2260
    172  O          3.4640   -3.0300  -10.3010 O.2   300  LEU300     -0.2867
    173  CB         6.5140   -3.6850  -11.5250 C.3   300  LEU300      0.0270
    174  CG         6.3730   -4.7730  -10.4700 C.3   300  LEU300      0.0019
    175  CD1        5.4710   -5.9030  -10.9520 C.3   300  LEU300      0.0001
    176  CD2        7.7490   -5.3020  -10.1330 C.3   300  LEU300      0.0001
@<TRIPOS>BOND
     1   152   153    1
     2   156   153    1
     3   153   154    1
     4   154   155    2
     5   154   157   am
     6    54    51    1
     7   157   158    1
     8   169   170    1
     9    24    23    2
    10    51    50    1
    11    51    52    1
    12   158   159    1
    13   158   161    1
    14     7     5    1
    15   159   160    2
    16   170   173    1
    17   170   171    1
    18    23    25   am
    19    23    22    1
    20    50    45   am
    21    53    52    2
    22   164   166   ar
    23   164   162   ar
    24   173   174    1
    25    49    48    1
    26    49    43    1
    27   113   112    2
    28   166   167   ar
    29   114   112   am
    30   161   162    1
    31    22    21    1
    32     5     6    1
    33     5     2    1
    34    48    47    1
    35     6     8    1
    36    47    44    1
    37   175   174    1
    38   162   163   ar
    39   112   111    1
    40    45    44    1
    41    45    46    2
    42    43    44    1
    43   171   172    2
    44    21    18    1
    45   174   176    1
    46   167   168    1
    47   167   165   ar
    48   163   165   ar
    49     3     2    1
    50     3     4    2
    51     2     1    1
    52   111   110    1
    53   119   116    1
    54   119   120    1
    55    18    19    1
    56    18    17    1
    57   110   107    1
    58   116   115    1
    59   116   117    1
    60    19    20    2
    61    17    11   am
    62   118   117    2
    63   109   108    2
    64   115   108   am
    65   108   107    1
    66   117   121   am
    67   107   106    1
    68    41    42    1
    69    41    38    1
    70    11    12    2
    71    11    10    1
    72   144   143    2
    73    69    67    1
    74    15    13    1
    75    13    10    1
    76    13    14    1
    77   104   103    1
    78   106   101   am
    79   143   142    1
    80    61    59    1
    81    60    59    1
    82    39    40    2
    83    39    38    1
    84    59    56    1
    85     9    10    1
    86    16    14    1
    87   150   148   ar
    88   150   151   ar
    89   121   122    1
    90    38    37    1
    91   148   146   ar
    92    66    67    1
    93    66    63    1
    94    67    68    1
    95   151   149   ar
    96    37    28   am
    97   101   102    2
    98   101   100    1
    99    62    63    1
   100    62    57   am
   101    55    56    1
   102   122   125    1
   103   122   123    1
   104   103   105    1
   105   103   100    1
   106    56    57    1
   107    26    27    1
   108   142   141    1
   109   142   145    1
   110   125   126    1
   111   146   145    1
   112   146   147   ar
   113    63    64    1
   114    57    58    2
   115   100    99    1
   116   149   147   ar
   117   128   127   ar
   118    28    27    1
   119    28    29    2
   120   126   127    1
   121   123   124    2
   122   123   130   am
   123    27    30    1
   124   127   129   ar
   125    64    65    2
   126    30    31    1
   127   130   131    1
   128    82    79    1
   129    33    31   ar
   130    33    35   ar
   131    31    32   ar
   132   134   131    1
   133   134   135    1
   134   131   132    1
   135    77    75    1
   136    78    79    1
   137    78    72   am
   138    35    36   ar
   139    79    80    1
   140   137   135   ar
   141   137   139   ar
   142    70    71    1
   143   135   136   ar
   144    98    95    1
   145    97    96    2
   146   133   132    2
   147    32    34   ar
   148    74    75    1
   149    74    71    1
   150    74    76    1
   151    96    95    1
   152    80    81    2
   153    71    72    1
   154   139   140   ar
   155    72    73    2
   156    36    34   ar
   157   136   138   ar
   158    95    94    1
   159   140   138   ar
   160    87    88    1
   161    87    84    1
   162    89    88   ar
   163    89    91   ar
   164    88    90   ar
   165    91    93   ar
   166    83    84    1
   167    85    84    1
   168    85    86    2
   169    90    92   ar
   170    93    92   ar
