@<TRIPOS>MOLECULE
tmp/6bgcB00.pdb
 124 116 0 0 0
SMALL
GASTEIGER

@<TRIPOS>ATOM
      1  N        -19.4570   42.1480  -58.6990 N.3    14  ASN14      -0.1225
      2  CA       -19.6260   43.6020  -58.7970 C.3    14  ASN14       0.1785
      3  C        -21.0780   44.0940  -58.7200 C.2    14  ASN14       0.2597
      4  O        -21.3400   45.1630  -58.1650 O.2    14  ASN14      -0.2718
      5  CB       -18.9780   44.1190  -60.0840 C.3    14  ASN14       0.1169
      6  CG       -19.2530   45.5870  -60.3200 C.2    14  ASN14       0.2627
      7  OD1      -20.0510   45.9480  -61.1820 O.2    14  ASN14      -0.2716
      8  ND2      -18.6010   46.4450  -59.5420 N.am   14  ASN14      -0.0877
      9  N        -22.0160   43.3310  -59.2720 N.am   15  ARG15      -0.1979
     10  CA       -23.4320   43.6690  -59.1650 C.3    15  ARG15       0.1597
     11  C        -24.1960   42.5080  -58.5360 C.2    15  ARG15       0.2287
     12  O        -24.5650   41.5370  -59.1990 O.2    15  ARG15      -0.2864
     13  CB       -23.9910   44.0470  -60.5350 C.3    15  ARG15       0.0334
     14  CG       -23.4500   45.3900  -61.0160 C.3    15  ARG15       0.0492
     15  CD       -23.7410   45.6490  -62.4780 C.3    15  ARG15       0.2205
     16  NE       -25.0630   46.2300  -62.6840 N.pl3  15  ARG15      -0.0865
     17  CZ       -25.3820   47.4850  -62.3790 C.cat  15  ARG15       0.5346
     18  NH1      -24.4810   48.2920  -61.8360 N.pl3  15  ARG15       0.1354
     19  NH2      -26.6090   47.9330  -62.6070 N.pl3  15  ARG15       0.1354
     20  N        -17.6160   43.7420  -52.4080 N.3    41  PHE41      -0.1241
     21  CA       -16.9820   44.3990  -51.2760 C.3    41  PHE41       0.1605
     22  C        -18.0330   44.7710  -50.2380 C.2    41  PHE41       0.2264
     23  O        -19.2290   44.7430  -50.5260 O.2    41  PHE41      -0.2867
     24  CB       -16.2200   45.6420  -51.7380 C.3    41  PHE41       0.0534
     25  CG       -17.0750   46.6330  -52.4740 C.ar   41  PHE41      -0.0203
     26  CD1      -17.5610   47.7590  -51.8310 C.ar   41  PHE41      -0.0042
     27  CD2      -17.4040   46.4320  -53.8050 C.ar   41  PHE41      -0.0042
     28  CE1      -18.3520   48.6700  -52.5040 C.ar   41  PHE41      -0.0003
     29  CE2      -18.1970   47.3390  -54.4840 C.ar   41  PHE41      -0.0003
     30  CZ       -18.6720   48.4580  -53.8330 C.ar   41  PHE41      -0.0000
     31  N        -28.8230   50.1680  -58.0430 N.3    84  HIS84      -0.1241
     32  CA       -27.6480   49.4230  -57.6070 C.3    84  HIS84       0.1621
     33  C        -27.3950   49.6440  -56.1140 C.2    84  HIS84       0.2264
     34  O        -27.0830   50.7550  -55.6890 O.2    84  HIS84      -0.2867
     35  CB       -26.4300   49.8480  -58.4300 C.3    84  HIS84       0.0745
     36  CG       -25.2210   48.9950  -58.2120 C.ar   84  HIS84       0.0817
     37  ND1      -23.9390   49.4720  -58.3680 N.ar   84  HIS84      -0.2268
     38  CD2      -25.0980   47.6930  -57.8560 C.ar   84  HIS84       0.1154
     39  CE1      -23.0750   48.5010  -58.1160 C.ar   84  HIS84       0.1986
     40  NE2      -23.7570   47.4130  -57.8010 N.ar   84  HIS84      -0.2212
     41  N        -24.2600   51.3660  -54.8640 N.3    87  SER87      -0.1217
     42  CA       -24.2120   52.7840  -55.2020 C.3    87  SER87       0.1889
     43  C        -25.1100   53.6050  -54.2860 C.2    87  SER87       0.2288
     44  O        -24.7360   54.6920  -53.8490 O.2    87  SER87      -0.2866
     45  CB       -24.6200   53.0000  -56.6600 C.3    87  SER87       0.2089
     46  OG       -23.6580   52.4390  -57.5390 O.3    87  SER87      -0.2183
     47  N        -24.0010   54.5980  -50.6960 N.3    90  ARG90      -0.1245
     48  CA       -23.0660   55.7140  -50.5950 C.3    90  ARG90       0.1563
     49  C        -23.8340   57.0130  -50.3850 C.2    90  ARG90       0.2260
     50  O        -23.4270   57.8640  -49.5940 O.2    90  ARG90      -0.2867
     51  CB       -22.1830   55.7990  -51.8410 C.3    90  ARG90       0.0307
     52  CG       -21.2500   54.6170  -51.9620 C.3    90  ARG90       0.0489
     53  CD       -20.5090   54.5790  -53.2790 C.3    90  ARG90       0.2205
     54  NE       -19.9180   53.2600  -53.4850 N.pl3  90  ARG90      -0.0865
     55  CZ       -19.5500   52.7720  -54.6640 C.cat  90  ARG90       0.5346
     56  NH1      -19.7010   53.4900  -55.7700 N.pl3  90  ARG90       0.1354
     57  NH2      -19.0320   51.5540  -54.7280 N.pl3  90  ARG90       0.1354
     58  N        -25.0560   57.2970  -64.5090 N.3   140  ALA140     -0.1245
     59  CA       -23.7930   57.8670  -64.0430 C.3   140  ALA140      0.1562
     60  C        -22.9840   58.4400  -65.2020 C.2   140  ALA140      0.2260
     61  O        -21.7650   58.2760  -65.2630 O.2   140  ALA140     -0.2867
     62  CB       -22.9840   56.8190  -63.2970 C.3   140  ALA140      0.0290
     63  N        -19.3790   58.0650  -57.3210 N.3   167  ASN167     -0.1240
     64  CA       -18.1630   57.4360  -57.8450 C.3   167  ASN167      0.1653
     65  C        -17.1390   58.4080  -58.4320 C.2   167  ASN167      0.2266
     66  O        -17.4090   59.6010  -58.5870 O.2   167  ASN167     -0.2867
     67  CB       -18.5230   56.3760  -58.8980 C.3   167  ASN167      0.1155
     68  CG       -19.0010   56.9670  -60.2220 C.2   167  ASN167      0.2627
     69  OD1      -19.0730   58.1810  -60.4040 O.2   167  ASN167     -0.2716
     70  ND2      -19.3190   56.0870  -61.1640 N.am  167  ASN167     -0.0877
     71  N        -13.9640   54.7470  -55.6560 N.3   190  ASP190     -0.1239
     72  CA       -13.4300   53.6480  -56.4980 C.3   190  ASP190      0.1674
     73  C        -11.9060   53.6270  -56.4820 C.2   190  ASP190      0.2266
     74  O        -11.2950   52.5720  -56.6640 O.2   190  ASP190     -0.2867
     75  CB       -13.8750   53.7140  -57.9670 C.3   190  ASP190      0.1410
     76  CG       -15.3100   53.2560  -58.1690 C.2   190  ASP190      0.3668
     77  OD1      -15.8820   52.6700  -57.2270 O.co2 190  ASP190     -0.2456
     78  OD2      -15.8640   53.4890  -59.2640 O.co2 190  ASP190     -0.2456
     79  N        -11.9870   50.0960  -53.1430 N.3   210  GLN210     -0.1245
     80  CA       -12.7680   48.9090  -52.8140 C.3   210  GLN210      0.1566
     81  C        -11.9740   47.6380  -53.1150 C.2   210  GLN210      0.2260
     82  O        -12.5490   46.5580  -53.2520 O.2   210  GLN210     -0.2867
     83  CB       -14.0910   48.9030  -53.5830 C.3   210  GLN210      0.0367
     84  CG       -13.9470   49.0930  -55.0810 C.3   210  GLN210      0.0905
     85  CD       -15.2220   48.7710  -55.8340 C.2   210  GLN210      0.2608
     86  OE1      -15.5640   47.6020  -56.0250 O.2   210  GLN210     -0.2717
     87  NE2      -15.9320   49.8070  -56.2700 N.am  210  GLN210     -0.0878
     88  N        -21.5010   44.2370  -67.7750 N.3   302  HIS302     -0.1241
     89  CA       -22.8100   44.8230  -68.0560 C.3   302  HIS302      0.1621
     90  C        -22.7230   46.0640  -68.9350 C.2   302  HIS302      0.2264
     91  O        -23.6700   46.3830  -69.6510 O.2   302  HIS302     -0.2867
     92  CB       -23.5370   45.1620  -66.7490 C.3   302  HIS302      0.0745
     93  CG       -23.1370   46.4680  -66.1410 C.ar  302  HIS302      0.0817
     94  ND1      -21.9620   46.6360  -65.4370 N.ar  302  HIS302     -0.2268
     95  CD2      -23.7700   47.6650  -66.1020 C.ar  302  HIS302      0.1154
     96  CE1      -21.8850   47.8800  -65.0040 C.ar  302  HIS302      0.1986
     97  NE2      -22.9690   48.5270  -65.3940 N.ar  302  HIS302     -0.2212
     98  N        -18.4530   51.4950  -68.9160 N.3   306  ASN306     -0.1240
     99  CA       -18.3810   51.7770  -67.4870 C.3   306  ASN306      0.1653
    100  C        -16.9530   52.1320  -67.0830 C.2   306  ASN306      0.2266
    101  O        -16.0270   51.3580  -67.3250 O.2   306  ASN306     -0.2867
    102  CB       -18.8830   50.5760  -66.6830 C.3   306  ASN306      0.1155
    103  CG       -18.9430   50.8540  -65.1940 C.2   306  ASN306      0.2627
    104  OD1      -17.9670   50.6450  -64.4710 O.2   306  ASN306     -0.2716
    105  ND2      -20.0910   51.3320  -64.7270 N.am  306  ASN306     -0.0877
    106  N        -15.3320   52.4360  -64.1140 N.3   308  PHE308     -0.1227
    107  CA       -14.6950   51.5690  -63.1310 C.3   308  PHE308      0.1736
    108  C        -14.3200   50.2200  -63.7410 C.2   308  PHE308      0.2595
    109  O        -13.1870   49.7580  -63.5950 O.2   308  PHE308     -0.2718
    110  CB       -15.6150   51.3670  -61.9260 C.3   308  PHE308      0.0547
    111  CG       -15.1140   50.3500  -60.9420 C.ar  308  PHE308     -0.0202
    112  CD1      -13.9340   50.5600  -60.2460 C.ar  308  PHE308     -0.0042
    113  CD2      -15.8260   49.1870  -60.7070 C.ar  308  PHE308     -0.0042
    114  CE1      -13.4690   49.6240  -59.3410 C.ar  308  PHE308     -0.0003
    115  CE2      -15.3670   48.2470  -59.8010 C.ar  308  PHE308     -0.0003
    116  CZ       -14.1880   48.4680  -59.1170 C.ar  308  PHE308     -0.0000
    117  N        -15.2690   49.5990  -64.4340 N.am  309  LEU309     -0.1980
    118  CA       -15.0540   48.2660  -64.9830 C.3   309  LEU309      0.1596
    119  C        -14.0590   48.2810  -66.1420 C.2   309  LEU309      0.2287
    120  O        -13.2860   47.3400  -66.3120 O.2   309  LEU309     -0.2864
    121  CB       -16.3810   47.6590  -65.4400 C.3   309  LEU309      0.0297
    122  CG       -17.4150   47.4300  -64.3330 C.3   309  LEU309      0.0022
    123  CD1      -18.7240   46.9400  -64.9230 C.3   309  LEU309      0.0001
    124  CD2      -16.9080   46.4510  -63.2810 C.3   309  LEU309      0.0001
@<TRIPOS>BOND
     1    91    90    2
     2    90    89    1
     3    98    99    1
     4    89    88    1
     5    89    92    1
     6    99   100    1
     7    99   102    1
     8   101   100    2
     9    92    93    1
    10   102   103    1
    11   120   119    2
    12   119   118    1
    13    93    95   ar
    14    93    94   ar
    15    95    97   ar
    16   121   118    1
    17   121   122    1
    18    94    96   ar
    19    97    96   ar
    20    61    60    2
    21    60    59    1
    22   103   105   am
    23   103   104    2
    24   118   117    1
    25   123   122    1
    26    58    59    1
    27   117   108   am
    28   122   124    1
    29   106   107    1
    30    59    62    1
    31   108   109    2
    32   108   107    1
    33   107   110    1
    34    16    15    1
    35    16    17    2
    36    19    17    1
    37    15    14    1
    38    17    18    1
    39   110   111    1
    40     7     6    2
    41    70    68   am
    42    14    13    1
    43   111   113   ar
    44   111   112   ar
    45   113   115   ar
    46    13    10    1
    47    69    68    2
    48     6     5    1
    49     6     8   am
    50   112   114   ar
    51    68    67    1
    52     5     2    1
    53   115   116   ar
    54   114   116   ar
    55     9    10    1
    56     9     3   am
    57    78    76   ar
    58    12    11    2
    59    10    11    1
    60    67    64    1
    61     2     3    1
    62     2     1    1
    63     3     4    2
    64    66    65    2
    65    65    64    1
    66    35    36    1
    67    35    32    1
    68    37    36   ar
    69    37    39   ar
    70    36    38   ar
    71    76    75    1
    72    76    77   ar
    73    39    40   ar
    74    31    32    1
    75    75    72    1
    76    38    40   ar
    77    64    63    1
    78    32    33    1
    79    46    45    1
    80    74    73    2
    81    45    42    1
    82    72    73    1
    83    72    71    1
    84    87    85   am
    85    33    34    2
    86    86    85    2
    87    85    84    1
    88    56    55    1
    89    42    41    1
    90    42    43    1
    91    84    83    1
    92    57    55    1
    93    55    54    2
    94    29    30   ar
    95    29    27   ar
    96    43    44    2
    97    30    28   ar
    98    27    25   ar
    99    83    80    1
   100    54    53    1
   101    53    52    1
   102    82    81    2
   103    79    80    1
   104    81    80    1
   105    28    26   ar
   106    25    26   ar
   107    25    24    1
   108    20    21    1
   109    52    51    1
   110    51    48    1
   111    24    21    1
   112    21    22    1
   113    47    48    1
   114    48    49    1
   115    23    22    2
   116    49    50    2
