@<TRIPOS>MOLECULE
tmp/6bgfA00.pdb
 131 127 0 0 0
SMALL
GASTEIGER

@<TRIPOS>ATOM
      1  N        -53.5140   11.3260   23.8870 N.3    54  TYR54      -0.1241
      2  CA       -54.5770   12.3130   23.9740 C.3    54  TYR54       0.1605
      3  C        -53.9940   13.7050   24.1730 C.2    54  TYR54       0.2264
      4  O        -52.8330   13.8830   24.5490 O.2    54  TYR54      -0.2867
      5  CB       -55.5670   11.9640   25.0910 C.3    54  TYR54       0.0534
      6  CG       -55.1190   12.2200   26.5260 C.ar   54  TYR54      -0.0201
      7  CD1      -55.4900   13.3810   27.1920 C.ar   54  TYR54      -0.0009
      8  CD2      -54.3920   11.2700   27.2300 C.ar   54  TYR54      -0.0009
      9  CE1      -55.1190   13.6050   28.5130 C.ar   54  TYR54       0.0417
     10  CE2      -54.0070   11.4910   28.5570 C.ar   54  TYR54       0.0417
     11  CZ       -54.3750   12.6590   29.1860 C.ar   54  TYR54       0.1957
     12  OH       -54.0090   12.8910   30.4870 O.3    54  TYR54      -0.2866
     13  N        -54.7080   17.9300   25.4070 N.3    56  ARG56      -0.1245
     14  CA       -55.4200   18.8530   26.2760 C.3    56  ARG56       0.1563
     15  C        -55.4460   20.2080   25.5920 C.2    56  ARG56       0.2260
     16  O        -54.4000   20.7090   25.1700 O.2    56  ARG56      -0.2867
     17  CB       -54.7410   18.9300   27.6560 C.3    56  ARG56       0.0307
     18  CG       -54.2690   17.5560   28.1380 C.3    56  ARG56       0.0489
     19  CD       -53.4790   17.5820   29.4320 C.3    56  ARG56       0.2205
     20  NE       -54.3440   17.7940   30.5830 N.pl3  56  ARG56      -0.0865
     21  CZ       -54.3290   18.8960   31.3280 C.cat  56  ARG56       0.5346
     22  NH1      -55.1520   19.0080   32.3640 N.pl3  56  ARG56       0.1354
     23  NH2      -53.4680   19.8760   31.0590 N.pl3  56  ARG56       0.1354
     24  N        -60.3790   17.7180   26.0090 N.3    71  LEU71      -0.1245
     25  CA       -59.4230   16.6360   25.8320 C.3    71  LEU71       0.1561
     26  C        -59.8730   15.7720   24.6680 C.2    71  LEU71       0.2260
     27  O        -61.0550   15.4200   24.5630 O.2    71  LEU71      -0.2867
     28  CB       -59.2820   15.8070   27.1140 C.3    71  LEU71       0.0270
     29  CG       -58.1400   16.2360   28.0440 C.3    71  LEU71       0.0019
     30  CD1      -58.2720   17.7030   28.4710 C.3    71  LEU71       0.0001
     31  CD2      -58.0900   15.3250   29.2920 C.3    71  LEU71       0.0001
     32  N        -59.3870   12.3060   22.6700 N.3    73  TRP73      -0.1241
     33  CA       -58.8970   10.9410   22.7720 C.3    73  TRP73       0.1605
     34  C        -58.9890   10.2640   21.4040 C.2    73  TRP73       0.2264
     35  O        -60.0840    9.9610   20.9310 O.2    73  TRP73      -0.2867
     36  CB       -59.7040   10.1780   23.8160 C.3    73  TRP73       0.0550
     37  CG       -59.9430   10.9610   25.0820 C.ar   73  TRP73       0.0003
     38  CD1      -60.8760   11.9360   25.2850 C.ar   73  TRP73       0.0946
     39  CD2      -59.2330   10.8270   26.3120 C.ar   73  TRP73       0.0152
     40  NE1      -60.7910   12.4200   26.5670 N.ar   73  TRP73      -0.2442
     41  CE2      -59.7910   11.7500   27.2200 C.ar   73  TRP73       0.0810
     42  CE3      -58.1810   10.0110   26.7380 C.ar   73  TRP73       0.0012
     43  CZ2      -59.3290   11.8820   28.5230 C.ar   73  TRP73       0.0191
     44  CZ3      -57.7240   10.1390   28.0220 C.ar   73  TRP73       0.0001
     45  CH2      -58.2900   11.0740   28.9040 C.ar   73  TRP73       0.0015
     46  N        -53.8590    8.5250   37.7290 N.3    82  HIS82      -0.1241
     47  CA       -53.3430    9.7890   38.2270 C.3    82  HIS82       0.1621
     48  C        -54.2530   10.3560   39.3070 C.2    82  HIS82       0.2264
     49  O        -55.3930    9.9160   39.4990 O.2    82  HIS82      -0.2867
     50  CB       -53.2020   10.8050   37.0980 C.3    82  HIS82       0.0745
     51  CG       -54.4300   10.9180   36.2680 C.ar   82  HIS82       0.0817
     52  ND1      -54.6900   10.0660   35.2120 N.ar   82  HIS82      -0.2268
     53  CD2      -55.4990   11.7410   36.3630 C.ar   82  HIS82       0.1154
     54  CE1      -55.8520   10.3820   34.6720 C.ar   82  HIS82       0.1986
     55  NE2      -56.3600   11.3970   35.3460 N.ar   82  HIS82      -0.2212
     56  N        -55.2860   14.4100   41.2630 N.3    84  HIS84      -0.1241
     57  CA       -55.6840   15.7170   40.7600 C.3    84  HIS84       0.1621
     58  C        -55.2830   16.8480   41.6800 C.2    84  HIS84       0.2264
     59  O        -55.9610   17.8830   41.7080 O.2    84  HIS84      -0.2867
     60  CB       -57.1790   15.7740   40.5190 C.3    84  HIS84       0.0745
     61  CG       -57.6280   14.7810   39.5160 C.ar   84  HIS84       0.0817
     62  ND1      -57.9540   13.4860   39.8550 N.ar   84  HIS84      -0.2268
     63  CD2      -57.7390   14.8640   38.1730 C.ar   84  HIS84       0.1154
     64  CE1      -58.2880   12.8250   38.7630 C.ar   84  HIS84       0.1986
     65  NE2      -58.1610   13.6380   37.7320 N.ar   84  HIS84      -0.2212
     66  N        -65.5660   16.2120   34.5820 N.3    91  LEU91      -0.1245
     67  CA       -65.3530   15.8330   33.1980 C.3    91  LEU91       0.1561
     68  C        -66.6820   15.4290   32.5860 C.2    91  LEU91       0.2260
     69  O        -67.3780   14.5580   33.1180 O.2    91  LEU91      -0.2867
     70  CB       -64.3010   14.7150   33.0530 C.3    91  LEU91       0.0270
     71  CG       -64.3420   13.3750   33.7800 C.3    91  LEU91       0.0019
     72  CD1      -63.4210   12.3450   33.0700 C.3    91  LEU91       0.0001
     73  CD2      -63.9550   13.5320   35.2830 C.3    91  LEU91       0.0001
     74  N        -57.8400    7.9010   39.4520 N.3   136  HIS136     -0.1241
     75  CA       -58.4850    7.2120   38.3470 C.3   136  HIS136      0.1621
     76  C        -57.6370    7.1970   37.0920 C.2   136  HIS136      0.2264
     77  O        -56.6390    7.9090   36.9520 O.2   136  HIS136     -0.2867
     78  CB       -59.8940    7.7650   38.0570 C.3   136  HIS136      0.0745
     79  CG       -59.9390    9.0480   37.2900 C.ar  136  HIS136      0.0817
     80  ND1      -61.1350    9.6540   36.9670 N.ar  136  HIS136     -0.2268
     81  CD2      -58.9640    9.8540   36.8040 C.ar  136  HIS136      0.1154
     82  CE1      -60.8970   10.7740   36.3090 C.ar  136  HIS136      0.1986
     83  NE2      -59.5890   10.9150   36.1900 N.ar  136  HIS136     -0.2212
     84  N        -58.6690    7.0780   32.8320 N.3   138  VAL138     -0.1245
     85  CA       -59.7390    7.3320   31.8750 C.3   138  VAL138      0.1561
     86  C        -59.2670    6.8400   30.5160 C.2   138  VAL138      0.2260
     87  O        -58.0960    7.0240   30.1680 O.2   138  VAL138     -0.2867
     88  CB       -60.0870    8.8360   31.8480 C.3   138  VAL138      0.0252
     89  CG1      -61.0890    9.1530   30.7780 C.3   138  VAL138      0.0019
     90  CG2      -60.6000    9.2630   33.2060 C.3   138  VAL138      0.0019
     91  N        -63.3360   19.2480   30.4690 N.3   151  HIS151     -0.1241
     92  CA       -62.8170   19.1120   31.8250 C.3   151  HIS151      0.1621
     93  C        -62.7010   20.4670   32.5000 C.2   151  HIS151      0.2264
     94  O        -62.2370   21.4360   31.8890 O.2   151  HIS151     -0.2867
     95  CB       -61.4450   18.4370   31.8340 C.3   151  HIS151      0.0745
     96  CG       -61.4570   17.0430   31.2940 C.ar  151  HIS151      0.0817
     97  ND1      -61.0750   15.9490   32.0440 N.ar  151  HIS151     -0.2268
     98  CD2      -61.8020   16.5620   30.0730 C.ar  151  HIS151      0.1154
     99  CE1      -61.1840   14.8550   31.3090 C.ar  151  HIS151      0.1986
    100  NE2      -61.6250   15.1990   30.1110 N.ar  151  HIS151     -0.2212
    101  N        -61.1800   22.1700   36.1180 N.3   153  TYR153     -0.1241
    102  CA       -60.3370   22.0050   37.2870 C.3   153  TYR153      0.1605
    103  C        -60.3300   23.3090   38.0650 C.2   153  TYR153      0.2264
    104  O        -60.1380   24.3840   37.4870 O.2   153  TYR153     -0.2867
    105  CB       -58.9200   21.5800   36.8940 C.3   153  TYR153      0.0534
    106  CG       -58.9420   20.2520   36.1890 C.ar  153  TYR153     -0.0201
    107  CD1      -59.6220   19.1820   36.7420 C.ar  153  TYR153     -0.0009
    108  CD2      -58.3450   20.0810   34.9450 C.ar  153  TYR153     -0.0009
    109  CE1      -59.6990   17.9750   36.0940 C.ar  153  TYR153      0.0417
    110  CE2      -58.3970   18.8560   34.2830 C.ar  153  TYR153      0.0417
    111  CZ       -59.0740   17.8060   34.8670 C.ar  153  TYR153      0.1957
    112  OH       -59.1310   16.5990   34.2120 O.3   153  TYR153     -0.2866
    113  N        -54.2180   23.5490   37.9970 N.3   157  PHE157     -0.1241
    114  CA       -52.9640   22.9010   38.3440 C.3   157  PHE157      0.1605
    115  C        -52.3020   22.3820   37.0770 C.2   157  PHE157      0.2264
    116  O        -52.9810   21.9580   36.1450 O.2   157  PHE157     -0.2867
    117  CB       -53.1790   21.7680   39.3570 C.3   157  PHE157      0.0534
    118  CG       -54.0400   20.6210   38.8570 C.ar  157  PHE157     -0.0203
    119  CD1      -53.4600   19.4550   38.3770 C.ar  157  PHE157     -0.0042
    120  CD2      -55.4290   20.6940   38.9130 C.ar  157  PHE157     -0.0042
    121  CE1      -54.2550   18.3800   37.9500 C.ar  157  PHE157     -0.0003
    122  CE2      -56.2270   19.6320   38.4830 C.ar  157  PHE157     -0.0003
    123  CZ       -55.6410   18.4740   38.0080 C.ar  157  PHE157     -0.0000
    124  N        -48.0370   18.5530   33.3860 N.3   175  MET175     -0.1245
    125  CA       -49.0110   18.4860   32.3090 C.3   175  MET175      0.1570
    126  C        -48.8630   19.6910   31.3880 C.2   175  MET175      0.2261
    127  O        -48.6250   20.8150   31.8450 O.2   175  MET175     -0.2867
    128  CB       -50.4270   18.4120   32.8800 C.3   175  MET175      0.0387
    129  CG       -50.6190   17.2470   33.8550 C.3   175  MET175      0.0595
    130  SD       -51.4950   17.7350   35.3520 S.3   175  MET175     -0.1393
    131  CE       -52.8880   18.5900   34.6290 C.3   175  MET175      0.0692
@<TRIPOS>BOND
     1    35    34    2
     2    34    33    1
     3    32    33    1
     4    33    36    1
     5    36    37    1
     6     1     2    1
     7     2     3    1
     8     2     5    1
     9     3     4    2
    10    27    26    2
    11    26    25    1
    12    37    38   ar
    13    37    39   ar
    14     5     6    1
    15    16    15    2
    16    38    40   ar
    17    13    14    1
    18    15    14    1
    19    25    24    1
    20    25    28    1
    21    14    17    1
    22    39    42   ar
    23    39    41   ar
    24     6     7   ar
    25     6     8   ar
    26    40    41   ar
    27    42    44   ar
    28    28    29    1
    29     7     9   ar
    30    41    43   ar
    31     8    10   ar
    32    17    18    1
    33    44    45   ar
    34    29    30    1
    35    29    31    1
    36    18    19    1
    37     9    11   ar
    38    43    45   ar
    39    10    11   ar
    40    11    12    1
    41    19    20    1
    42    98   100   ar
    43    98    96   ar
    44   100    99   ar
    45    87    86    2
    46    91    92    1
    47    86    85    1
    48    20    21    2
    49    89    88    1
    50    23    21    1
    51    96    95    1
    52    96    97   ar
    53    99    97   ar
    54    21    22    1
    55   126   127    2
    56   126   125    1
    57    92    95    1
    58    92    93    1
    59    88    85    1
    60    88    90    1
    61    85    84    1
    62    94    93    2
    63   125   128    1
    64   125   124    1
    65    68    69    2
    66    68    67    1
    67   128   129    1
    68    70    67    1
    69    70    71    1
    70    72    71    1
    71    67    66    1
    72    71    73    1
    73   129   130    1
    74   112   111    1
    75   110   111   ar
    76   110   108   ar
    77   131   130    1
    78    54    52   ar
    79    54    55   ar
    80   111   109   ar
    81   108   106   ar
    82    52    51   ar
    83    55    53   ar
    84   109   107   ar
    85   101   102    1
    86   116   115    2
    87   106   107   ar
    88   106   105    1
    89    83    82   ar
    90    83    81   ar
    91    51    53   ar
    92    51    50    1
    93    82    80   ar
    94    81    79   ar
    95   105   102    1
    96    77    76    2
    97    80    79   ar
    98   115   114    1
    99    76    75    1
   100    50    47    1
   101   102   103    1
   102    79    78    1
   103   104   103    2
   104    46    47    1
   105    65    63   ar
   106    65    64   ar
   107   121   123   ar
   108   121   119   ar
   109   113   114    1
   110   123   122   ar
   111    78    75    1
   112    63    61   ar
   113    47    48    1
   114   114   117    1
   115    75    74    1
   116   119   118   ar
   117   122   120   ar
   118    64    62   ar
   119   118   120   ar
   120   118   117    1
   121    48    49    2
   122    61    62   ar
   123    61    60    1
   124    60    57    1
   125    57    56    1
   126    57    58    1
   127    58    59    2
