@<TRIPOS>MOLECULE
tmp/6bguA00.pdb
 173 164 0 0 0
SMALL
GASTEIGER

@<TRIPOS>ATOM
      1  N        -26.8450   30.5960   11.5130 N.3    63  ARG63      -0.1245
      2  CA       -28.1750   30.8320   10.9770 C.3    63  ARG63       0.1563
      3  C        -29.2290   30.1720   11.8560 C.2    63  ARG63       0.2260
      4  O        -28.9990   29.1230   12.4640 O.2    63  ARG63      -0.2867
      5  CB       -28.2860   30.3210    9.5400 C.3    63  ARG63       0.0307
      6  CG       -28.3310   28.8170    9.3980 C.3    63  ARG63       0.0489
      7  CD       -28.3440   28.4280    7.9340 C.3    63  ARG63       0.2205
      8  NE       -27.0750   28.7370    7.2810 N.pl3  63  ARG63      -0.0865
      9  CZ       -26.8070   28.4770    6.0060 C.cat  63  ARG63       0.5346
     10  NH1      -27.7200   27.9010    5.2370 N.pl3  63  ARG63       0.1354
     11  NH2      -25.6230   28.7930    5.5000 N.pl3  63  ARG63       0.1354
     12  N        -32.5540   28.1840   12.7610 N.3    65  GLN65      -0.1245
     13  CA       -33.2660   27.0460   12.1880 C.3    65  GLN65       0.1566
     14  C        -34.5120   26.7590   13.0160 C.2    65  GLN65       0.2260
     15  O        -34.4120   26.3760   14.1870 O.2    65  GLN65      -0.2867
     16  CB       -32.3680   25.8110   12.1250 C.3    65  GLN65       0.0367
     17  CG       -31.2080   25.9260   11.1550 C.3    65  GLN65       0.0905
     18  CD       -30.4910   24.6060   10.9530 C.2    65  GLN65       0.2608
     19  OE1      -30.2730   23.8530   11.9020 O.2    65  GLN65      -0.2717
     20  NE2      -30.1300   24.3140    9.7100 N.am   65  GLN65      -0.0878
     21  N        -27.1580   27.0780   13.7720 N.3   136  TYR136     -0.1241
     22  CA       -26.1780   26.2250   13.1070 C.3   136  TYR136      0.1605
     23  C        -25.1030   27.1030   12.4890 C.2   136  TYR136      0.2264
     24  O        -25.4000   27.9230   11.6150 O.2   136  TYR136     -0.2867
     25  CB       -26.8480   25.3600   12.0310 C.3   136  TYR136      0.0534
     26  CG       -26.0690   24.1270   11.6170 C.ar  136  TYR136     -0.0201
     27  CD1      -24.8880   23.7700   12.2560 C.ar  136  TYR136     -0.0009
     28  CD2      -26.5220   23.3180   10.5800 C.ar  136  TYR136     -0.0009
     29  CE1      -24.1820   22.6410   11.8740 C.ar  136  TYR136      0.0417
     30  CE2      -25.8250   22.1900   10.1900 C.ar  136  TYR136      0.0417
     31  CZ       -24.6550   21.8550   10.8380 C.ar  136  TYR136      0.1957
     32  OH       -23.9620   20.7270   10.4530 O.3   136  TYR136     -0.2866
     33  N        -23.1000   27.0270    9.9990 N.3   138  ALA138     -0.1231
     34  CA       -22.9340   26.2220    8.8000 C.3   138  ALA138      0.1694
     35  C        -22.3330   27.0430    7.6670 C.2   138  ALA138      0.2592
     36  O        -22.4300   28.2730    7.6350 O.2   138  ALA138     -0.2718
     37  CB       -24.2730   25.6240    8.3560 C.3   138  ALA138      0.0304
     38  N        -21.7020   26.3290    6.7300 N.am  139  ASP139     -0.1974
     39  CA       -21.1270   26.9270    5.5240 C.3   139  ASP139      0.1709
     40  C        -20.1170   28.0210    5.8650 C.2   139  ASP139      0.2293
     41  O        -20.1090   29.0960    5.2640 O.2   139  ASP139     -0.2864
     42  CB       -22.2220   27.4610    4.5980 C.3   139  ASP139      0.1436
     43  CG       -23.1050   26.3590    4.0450 C.2   139  ASP139      0.3671
     44  OD1      -22.7900   25.1710    4.2690 O.co2 139  ASP139     -0.2456
     45  OD2      -24.1160   26.6800    3.3860 O.co2 139  ASP139     -0.2456
     46  N        -18.5030   23.3770    9.8170 N.3   193  TYR193     -0.1241
     47  CA       -19.8410   23.3180   10.3970 C.3   193  TYR193      0.1605
     48  C        -19.7210   23.2070   11.9080 C.2   193  TYR193      0.2264
     49  O        -19.2130   22.2050   12.4190 O.2   193  TYR193     -0.2867
     50  CB       -20.6350   22.1360    9.8340 C.3   193  TYR193      0.0534
     51  CG       -20.8970   22.2420    8.3520 C.ar  193  TYR193     -0.0201
     52  CD1      -22.0530   22.8440    7.8760 C.ar  193  TYR193     -0.0009
     53  CD2      -19.9840   21.7540    7.4280 C.ar  193  TYR193     -0.0009
     54  CE1      -22.2960   22.9520    6.5230 C.ar  193  TYR193      0.0417
     55  CE2      -20.2180   21.8580    6.0700 C.ar  193  TYR193      0.0417
     56  CZ       -21.3770   22.4570    5.6250 C.ar  193  TYR193      0.1957
     57  OH       -21.6180   22.5660    4.2750 O.3   193  TYR193     -0.2866
     58  N        -29.4020   20.9390   11.7850 N.3   200  SER200     -0.1202
     59  CA       -29.6100   19.9070   10.7790 C.3   200  SER200      0.2020
     60  C        -29.2800   20.4250    9.3850 C.2   200  SER200      0.2619
     61  O        -29.1560   21.6300    9.1510 O.2   200  SER200     -0.2717
     62  CB       -31.0540   19.3940   10.8130 C.3   200  SER200      0.2103
     63  OG       -31.9640   20.4280   10.4760 O.3   200  SER200     -0.2182
     64  N        -29.1500   19.4770    8.4550 N.am  201  PHE201     -0.1961
     65  CA       -29.0370   19.7410    7.0280 C.3   201  PHE201      0.1771
     66  C        -30.0080   18.8250    6.2960 C.2   201  PHE201      0.2619
     67  O        -30.1280   17.6420    6.6310 O.2   201  PHE201     -0.2715
     68  CB       -27.5890   19.5460    6.5220 C.3   201  PHE201      0.0574
     69  CG       -26.9770   18.2080    6.8660 C.ar  201  PHE201     -0.0200
     70  CD1      -26.5280   17.9360    8.1510 C.ar  201  PHE201     -0.0042
     71  CD2      -26.8090   17.2390    5.8890 C.ar  201  PHE201     -0.0042
     72  CE1      -25.9550   16.7150    8.4630 C.ar  201  PHE201     -0.0003
     73  CE2      -26.2300   16.0180    6.1920 C.ar  201  PHE201     -0.0003
     74  CZ       -25.8070   15.7530    7.4800 C.ar  201  PHE201     -0.0000
     75  N        -30.7230   19.3660    5.3180 N.am  202  CYS202     -0.1968
     76  CA       -31.7870   18.5870    4.7070 C.3   202  CYS202      0.1712
     77  C        -31.2820   17.8120    3.4920 C.2   202  CYS202      0.2296
     78  O        -30.1300   17.9370    3.0710 O.2   202  CYS202     -0.2864
     79  CB       -32.9630   19.4830    4.3360 C.3   202  CYS202      0.0983
     80  SG       -32.5620   20.8230    3.2170 S.3   202  CYS202     -0.0798
     81  N        -30.1370   16.2910    0.1570 N.3   204  HIS204     -0.1241
     82  CA       -29.5060   16.9180   -0.9940 C.3   204  HIS204      0.1621
     83  C        -28.4900   15.9560   -1.5850 C.2   204  HIS204      0.2264
     84  O        -28.0600   14.9980   -0.9360 O.2   204  HIS204     -0.2867
     85  CB       -28.8120   18.2250   -0.6060 C.3   204  HIS204      0.0745
     86  CG       -27.5920   18.0160    0.2330 C.ar  204  HIS204      0.0817
     87  ND1      -27.6580   17.6910    1.5710 N.ar  204  HIS204     -0.2268
     88  CD2      -26.2760   18.0560   -0.0810 C.ar  204  HIS204      0.1154
     89  CE1      -26.4340   17.5510    2.0480 C.ar  204  HIS204      0.1986
     90  NE2      -25.5770   17.7700    1.0670 N.ar  204  HIS204     -0.2212
     91  N        -24.7510   16.4510   -4.1090 N.3   206  GLU206     -0.1245
     92  CA       -23.7300   17.4590   -4.3450 C.3   206  GLU206      0.1567
     93  C        -23.7820   17.9630   -5.7830 C.2   206  GLU206      0.2260
     94  O        -24.2980   17.3000   -6.6850 O.2   206  GLU206     -0.2867
     95  CB       -22.3380   16.9020   -4.0410 C.3   206  GLU206      0.0388
     96  CG       -22.2200   16.2250   -2.6880 C.3   206  GLU206      0.1160
     97  CD       -22.5110   17.1600   -1.5300 C.2   206  GLU206      0.3649
     98  OE1      -22.3080   18.3840   -1.6730 O.co2 206  GLU206     -0.2457
     99  OE2      -22.9450   16.6680   -0.4700 O.co2 206  GLU206     -0.2457
    100  N        -18.3070   13.3220   -1.6860 N.3   212  SER212     -0.1217
    101  CA       -17.9940   14.2310   -0.5960 C.3   212  SER212      0.1889
    102  C        -17.3980   13.4300    0.5490 C.2   212  SER212      0.2288
    103  O        -17.7560   12.2710    0.7700 O.2   212  SER212     -0.2866
    104  CB       -19.2240   15.0160   -0.1190 C.3   212  SER212      0.2089
    105  OG       -19.9640   14.2890    0.8480 O.3   212  SER212     -0.2183
    106  N        -16.3330   13.9120    4.7770 N.3   214  ASN214     -0.1240
    107  CA       -16.6970   14.7210    5.9310 C.3   214  ASN214      0.1653
    108  C        -15.9580   14.1990    7.1520 C.2   214  ASN214      0.2266
    109  O        -15.9410   12.9890    7.3970 O.2   214  ASN214     -0.2867
    110  CB       -18.2120   14.6810    6.1630 C.3   214  ASN214      0.1155
    111  CG       -19.0040   14.8990    4.8840 C.2   214  ASN214      0.2627
    112  OD1      -19.0300   14.0400    3.9990 O.2   214  ASN214     -0.2716
    113  ND2      -19.6650   16.0440    4.7860 N.am  214  ASN214     -0.0877
    114  N        -22.5250   13.4210   15.0160 N.3   222  LYS222     -0.1245
    115  CA       -23.3820   13.9140   13.9470 C.3   222  LYS222      0.1561
    116  C        -24.1300   12.7180   13.3740 C.2   222  LYS222      0.2260
    117  O        -23.5060   11.7360   12.9590 O.2   222  LYS222     -0.2867
    118  CB       -22.5580   14.6190   12.8660 C.3   222  LYS222      0.0271
    119  CG       -23.3730   15.1910   11.7140 C.3   222  LYS222      0.0035
    120  CD       -22.4670   15.7010   10.5980 C.3   222  LYS222      0.0206
    121  CE       -21.6090   16.8730   11.0500 C.3   222  LYS222      0.1093
    122  NZ       -22.4020   18.1170   11.2500 N.3   222  LYS222     -0.1314
    123  N        -26.3800   10.7990   10.6500 N.3   224  TRP224     -0.1241
    124  CA       -26.4960   10.8380    9.2000 C.3   224  TRP224      0.1605
    125  C        -27.6170    9.9290    8.7160 C.2   224  TRP224      0.2264
    126  O        -27.9270    8.9100    9.3370 O.2   224  TRP224     -0.2867
    127  CB       -25.1940   10.3950    8.5190 C.3   224  TRP224      0.0550
    128  CG       -24.0590   11.3520    8.6460 C.ar  224  TRP224      0.0003
    129  CD1      -23.3170   11.6000    9.7620 C.ar  224  TRP224      0.0946
    130  CD2      -23.5110   12.1730    7.6070 C.ar  224  TRP224      0.0152
    131  NE1      -22.3500   12.5360    9.4880 N.ar  224  TRP224     -0.2442
    132  CE2      -22.4470   12.9030    8.1720 C.ar  224  TRP224      0.0810
    133  CE3      -23.8220   12.3670    6.2580 C.ar  224  TRP224      0.0012
    134  CZ2      -21.6900   13.8100    7.4340 C.ar  224  TRP224      0.0191
    135  CZ3      -23.0700   13.2690    5.5260 C.ar  224  TRP224      0.0001
    136  CH2      -22.0170   13.9790    6.1160 C.ar  224  TRP224      0.0015
    137  N        -33.7420   21.9610   -2.6560 N.3   256  GLN256     -0.1231
    138  CA       -32.8290   21.3630   -1.6880 C.3   256  GLN256      0.1698
    139  C        -32.5820   22.2420   -0.4700 C.2   256  GLN256      0.2592
    140  O        -31.8820   21.8050    0.4490 O.2   256  GLN256     -0.2718
    141  CB       -31.4880   21.0440   -2.3480 C.3   256  GLN256      0.0381
    142  CG       -31.4660   19.7410   -3.1160 C.3   256  GLN256      0.0905
    143  CD       -30.0860   19.4070   -3.6420 C.2   256  GLN256      0.2608
    144  OE1      -29.8310   18.2860   -4.0760 O.2   256  GLN256     -0.2717
    145  NE2      -29.1860   20.3840   -3.6040 N.am  256  GLN256     -0.0878
    146  N        -33.1070   23.4650   -0.4450 N.am  257  LEU257     -0.1980
    147  CA       -33.0040   24.2960    0.7460 C.3   257  LEU257      0.1596
    148  C        -34.0730   23.9700    1.7810 C.2   257  LEU257      0.2287
    149  O        -33.9470   24.4040    2.9320 O.2   257  LEU257     -0.2864
    150  CB       -33.0910   25.7770    0.3650 C.3   257  LEU257      0.0297
    151  CG       -32.0340   26.2990   -0.6120 C.3   257  LEU257      0.0022
    152  CD1      -32.2490   27.7760   -0.9000 C.3   257  LEU257      0.0001
    153  CD2      -30.6310   26.0520   -0.0740 C.3   257  LEU257      0.0001
    154  N        -28.3450   12.6060    1.0250 N.3   292  HIS292     -0.1241
    155  CA       -28.0450   12.4810    2.4410 C.3   292  HIS292      0.1621
    156  C        -28.5580   13.6990    3.1930 C.2   292  HIS292      0.2264
    157  O        -28.7520   14.7780    2.6260 O.2   292  HIS292     -0.2867
    158  CB       -26.5430   12.2780    2.6900 C.3   292  HIS292      0.0745
    159  CG       -25.6720   13.3120    2.0500 C.ar  292  HIS292      0.0817
    160  ND1      -25.3760   13.3050    0.7040 N.ar  292  HIS292     -0.2268
    161  CD2      -25.0220   14.3790    2.5730 C.ar  292  HIS292      0.1154
    162  CE1      -24.5860   14.3260    0.4240 C.ar  292  HIS292      0.1986
    163  NE2      -24.3560   14.9930    1.5410 N.ar  292  HIS292     -0.2212
    164  N        -17.2920   20.1140   12.4170 N.3   302  ALA302     -0.1245
    165  CA       -17.1010   19.2440   11.2680 C.3   302  ALA302      0.1562
    166  C        -16.4940   20.0160   10.1040 C.2   302  ALA302      0.2260
    167  O        -16.5940   21.2430   10.0180 O.2   302  ALA302     -0.2867
    168  CB       -18.4240   18.6010   10.8310 C.3   302  ALA302      0.0290
    169  N        -15.9980   19.5440    5.7000 N.3   304  ALA304     -0.1245
    170  CA       -16.5240   18.8170    4.5530 C.3   304  ALA304      0.1562
    171  C        -16.0030   19.4290    3.2620 C.2   304  ALA304      0.2260
    172  O        -15.7740   20.6380    3.1780 O.2   304  ALA304     -0.2867
    173  CB       -18.0580   18.8240    4.5420 C.3   304  ALA304      0.0290
@<TRIPOS>BOND
     1    94    93    2
     2    93    92    1
     3    92    91    1
     4    92    95    1
     5   144   143    2
     6    95    96    1
     7   143   145   am
     8   143   142    1
     9   142   141    1
    10    96    97    1
    11   137   138    1
    12   141   138    1
    13   138   139    1
    14   100   101    1
    15    98    97   ar
    16    83    82    1
    17    83    84    2
    18    97    99   ar
    19    82    85    1
    20    82    81    1
    21   152   151    1
    22   151   153    1
    23   151   150    1
    24    85    86    1
    25   101   104    1
    26   101   102    1
    27   139   146   am
    28   139   140    2
    29   146   147    1
    30   104   105    1
    31    88    86   ar
    32    88    90   ar
    33    86    87   ar
    34   150   147    1
    35   162   160   ar
    36   162   163   ar
    37   102   103    2
    38   160   159   ar
    39   147   148    1
    40   154   155    1
    41    90    89   ar
    42   163   161   ar
    43    87    89   ar
    44   148   149    2
    45   159   161   ar
    46   159   158    1
    47   155   158    1
    48   155   156    1
    49   157   156    2
    50    78    77    2
    51   172   171    2
    52    80    79    1
    53   171   170    1
    54    45    43   ar
    55    77    76    1
    56   112   111    2
    57    43    44   ar
    58    43    42    1
    59    57    56    1
    60    79    76    1
    61   173   170    1
    62   170   169    1
    63    42    39    1
    64    76    75    1
    65   106   107    1
    66   113   111   am
    67   111   110    1
    68    10     9    1
    69    41    40    2
    70    75    66   am
    71    11     9    1
    72    39    40    1
    73    39    38    1
    74   135   136   ar
    75   135   133   ar
    76    56    55   ar
    77    56    54   ar
    78    71    73   ar
    79    71    69   ar
    80   107   110    1
    81   107   108    1
    82     9     8    2
    83    55    53   ar
    84   136   134   ar
    85    73    74   ar
    86   133   130   ar
    87    66    67    2
    88    66    65    1
    89    68    69    1
    90    68    65    1
    91    54    52   ar
    92    38    35   am
    93    69    70   ar
    94    65    64    1
    95   108   109    2
    96     8     7    1
    97    53    51   ar
    98   134   132   ar
    99    74    72   ar
   100   130   132   ar
   101   130   128   ar
   102    36    35    2
   103    35    34    1
   104    52    51   ar
   105     7     6    1
   106    70    72   ar
   107   132   131   ar
   108    51    50    1
   109    37    34    1
   110    64    60   am
   111   127   128    1
   112   127   124    1
   113   128   129   ar
   114   125   124    1
   115   125   126    2
   116    34    33    1
   117    61    60    2
   118   124   123    1
   119    60    59    1
   120     6     5    1
   121   131   129   ar
   122     5     2    1
   123    20    18   am
   124    46    47    1
   125    50    47    1
   126   167   166    2
   127   166   165    1
   128    30    28   ar
   129    30    31   ar
   130    47    48    1
   131    32    31    1
   132    63    62    1
   133    28    26   ar
   134   120   121    1
   135   120   119    1
   136    59    62    1
   137    59    58    1
   138   168   165    1
   139    31    29   ar
   140    18    17    1
   141    18    19    2
   142     2     1    1
   143     2     3    1
   144   121   122    1
   145    17    16    1
   146   165   164    1
   147    24    23    2
   148    26    25    1
   149    26    27   ar
   150   119   118    1
   151     3     4    2
   152    29    27   ar
   153    48    49    2
   154    25    22    1
   155    16    13    1
   156    13    12    1
   157    13    14    1
   158    23    22    1
   159   118   115    1
   160   117   116    2
   161    14    15    2
   162    22    21    1
   163   116   115    1
   164   115   114    1
