@<TRIPOS>MOLECULE
tmp/6bgvA00.pdb
 124 118 0 0 0
SMALL
GASTEIGER

@<TRIPOS>ATOM
      1  N        -27.2750   27.0940   13.7460 N.3   136  TYR136     -0.1241
      2  CA       -26.2760   26.2620   13.0860 C.3   136  TYR136      0.1605
      3  C        -25.2100   27.1630   12.4850 C.2   136  TYR136      0.2264
      4  O        -25.5180   28.0010   11.6310 O.2   136  TYR136     -0.2867
      5  CB       -26.9190   25.3990   11.9940 C.3   136  TYR136      0.0534
      6  CG       -26.1260   24.1710   11.5940 C.ar  136  TYR136     -0.0201
      7  CD1      -24.9780   23.7990   12.2800 C.ar  136  TYR136     -0.0009
      8  CD2      -26.5310   23.3840   10.5180 C.ar  136  TYR136     -0.0009
      9  CE1      -24.2580   22.6730   11.9150 C.ar  136  TYR136      0.0417
     10  CE2      -25.8180   22.2560   10.1440 C.ar  136  TYR136      0.0417
     11  CZ       -24.6830   21.9060   10.8450 C.ar  136  TYR136      0.1957
     12  OH       -23.9740   20.7850   10.4720 O.3   136  TYR136     -0.2866
     13  N        -23.2190   27.1410    9.9770 N.3   138  ALA138     -0.1231
     14  CA       -23.0830   26.3690    8.7520 C.3   138  ALA138      0.1694
     15  C        -22.4440   27.1920    7.6420 C.2   138  ALA138      0.2592
     16  O        -22.5680   28.4200    7.5980 O.2   138  ALA138     -0.2718
     17  CB       -24.4450   25.8520    8.2830 C.3   138  ALA138      0.0304
     18  N        -21.7650   26.4870    6.7350 N.am  139  ASP139     -0.1974
     19  CA       -21.1340   27.0880    5.5600 C.3   139  ASP139      0.1709
     20  C        -20.1460   28.1860    5.9480 C.2   139  ASP139      0.2293
     21  O        -20.0970   29.2520    5.3310 O.2   139  ASP139     -0.2864
     22  CB       -22.1830   27.6180    4.5820 C.3   139  ASP139      0.1436
     23  CG       -22.9920   26.5110    3.9470 C.2   139  ASP139      0.3671
     24  OD1      -22.6960   25.3250    4.2110 O.co2 139  ASP139     -0.2456
     25  OD2      -23.9250   26.8280    3.1820 O.co2 139  ASP139     -0.2456
     26  N        -18.5620   23.4490    9.8360 N.3   193  TYR193     -0.1241
     27  CA       -19.9000   23.3750   10.4130 C.3   193  TYR193      0.1605
     28  C        -19.7830   23.2540   11.9210 C.2   193  TYR193      0.2264
     29  O        -19.2600   22.2560   12.4250 O.2   193  TYR193     -0.2867
     30  CB       -20.6850   22.1930    9.8360 C.3   193  TYR193      0.0534
     31  CG       -20.8900   22.3050    8.3470 C.ar  193  TYR193     -0.0201
     32  CD1      -19.9400   21.8200    7.4570 C.ar  193  TYR193     -0.0009
     33  CD2      -22.0200   22.9210    7.8290 C.ar  193  TYR193     -0.0009
     34  CE1      -20.1160   21.9390    6.0910 C.ar  193  TYR193      0.0417
     35  CE2      -22.2070   23.0400    6.4650 C.ar  193  TYR193      0.0417
     36  CZ       -21.2520   22.5470    5.6010 C.ar  193  TYR193      0.1957
     37  OH       -21.4340   22.6660    4.2430 O.3   193  TYR193     -0.2866
     38  N        -29.1240   19.3850    8.4300 N.3   201  PHE201     -0.1241
     39  CA       -29.0490   19.6170    6.9950 C.3   201  PHE201      0.1605
     40  C        -30.0200   18.6730    6.3010 C.2   201  PHE201      0.2264
     41  O        -30.1080   17.4950    6.6600 O.2   201  PHE201     -0.2867
     42  CB       -27.6130   19.4330    6.4500 C.3   201  PHE201      0.0534
     43  CG       -26.9720   18.1050    6.7880 C.ar  201  PHE201     -0.0203
     44  CD1      -26.4680   17.8620    8.0590 C.ar  201  PHE201     -0.0042
     45  CD2      -26.8260   17.1250    5.8170 C.ar  201  PHE201     -0.0042
     46  CE1      -25.8600   16.6570    8.3680 C.ar  201  PHE201     -0.0003
     47  CE2      -26.2130   15.9180    6.1190 C.ar  201  PHE201     -0.0003
     48  CZ       -25.7340   15.6820    7.3990 C.ar  201  PHE201     -0.0000
     49  N        -30.1290   16.3080    0.1080 N.3   204  HIS204     -0.1241
     50  CA       -29.5050   16.9480   -1.0410 C.3   204  HIS204      0.1621
     51  C        -28.4700   16.0080   -1.6350 C.2   204  HIS204      0.2264
     52  O        -28.0200   15.0560   -0.9910 O.2   204  HIS204     -0.2867
     53  CB       -28.8470   18.2790   -0.6570 C.3   204  HIS204      0.0745
     54  CG       -27.6340   18.1210    0.2060 C.ar  204  HIS204      0.0817
     55  ND1      -27.7130   17.8930    1.5620 N.ar  204  HIS204     -0.2268
     56  CD2      -26.3140   18.1410   -0.0950 C.ar  204  HIS204      0.1154
     57  CE1      -26.4950   17.7830    2.0620 C.ar  204  HIS204      0.1986
     58  NE2      -25.6270   17.9280    1.0770 N.ar  204  HIS204     -0.2212
     59  N        -24.7560   16.5170   -4.2310 N.3   206  GLU206     -0.1245
     60  CA       -23.7290   17.5200   -4.4590 C.3   206  GLU206      0.1567
     61  C        -23.7640   18.0260   -5.8960 C.2   206  GLU206      0.2260
     62  O        -24.2780   17.3680   -6.8050 O.2   206  GLU206     -0.2867
     63  CB       -22.3420   16.9590   -4.1420 C.3   206  GLU206      0.0388
     64  CG       -22.2180   16.3520   -2.7540 C.3   206  GLU206      0.1160
     65  CD       -22.5750   17.3260   -1.6450 C.2   206  GLU206      0.3649
     66  OE1      -22.3520   18.5450   -1.8070 O.co2 206  GLU206     -0.2457
     67  OE2      -23.0850   16.8700   -0.6040 O.co2 206  GLU206     -0.2457
     68  N        -18.3900   13.4720   -1.7260 N.3   212  SER212     -0.1217
     69  CA       -17.9980   14.3760   -0.6560 C.3   212  SER212      0.1889
     70  C        -17.3740   13.5600    0.4640 C.2   212  SER212      0.2288
     71  O        -17.6780   12.3780    0.6450 O.2   212  SER212     -0.2866
     72  CB       -19.1810   15.2040   -0.1270 C.3   212  SER212      0.2089
     73  OG       -19.9000   14.4980    0.8700 O.3   212  SER212     -0.2183
     74  N        -16.3220   14.0190    4.7270 N.3   214  ASN214     -0.1240
     75  CA       -16.7360   14.8010    5.8840 C.3   214  ASN214      0.1653
     76  C        -15.9920   14.2930    7.1070 C.2   214  ASN214      0.2266
     77  O        -15.9630   13.0850    7.3510 O.2   214  ASN214     -0.2867
     78  CB       -18.2520   14.6900    6.1050 C.3   214  ASN214      0.1155
     79  CG       -19.0530   15.0120    4.8540 C.2   214  ASN214      0.2627
     80  OD1      -19.5940   16.1090    4.7180 O.2   214  ASN214     -0.2716
     81  ND2      -19.1350   14.0560    3.9350 N.am  214  ASN214     -0.0877
     82  N        -22.4970   13.4620   14.9140 N.3   222  LYS222     -0.1245
     83  CA       -23.3530   13.9320   13.8340 C.3   222  LYS222      0.1561
     84  C        -24.0880   12.7200   13.2790 C.2   222  LYS222      0.2260
     85  O        -23.4520   11.7500   12.8550 O.2   222  LYS222     -0.2867
     86  CB       -22.5270   14.6210   12.7460 C.3   222  LYS222      0.0271
     87  CG       -23.3360   15.2080   11.6010 C.3   222  LYS222      0.0035
     88  CD       -22.4230   15.7600   10.5100 C.3   222  LYS222      0.0206
     89  CE       -21.5730   16.9230   11.0130 C.3   222  LYS222      0.1093
     90  NZ       -22.3710   18.1710   11.1790 N.3   222  LYS222     -0.1314
     91  N        -26.3380   10.7840   10.5800 N.3   224  TRP224     -0.1241
     92  CA       -26.4630   10.8220    9.1310 C.3   224  TRP224      0.1605
     93  C        -27.5660    9.8960    8.6390 C.2   224  TRP224      0.2264
     94  O        -27.8370    8.8510    9.2350 O.2   224  TRP224     -0.2867
     95  CB       -25.1620   10.3870    8.4560 C.3   224  TRP224      0.0550
     96  CG       -24.0300   11.3500    8.5490 C.ar  224  TRP224      0.0003
     97  CD1      -23.2440   11.5930    9.6380 C.ar  224  TRP224      0.0946
     98  CD2      -23.5190   12.1700    7.4920 C.ar  224  TRP224      0.0152
     99  NE1      -22.2860   12.5310    9.3290 N.ar  224  TRP224     -0.2442
    100  CE2      -22.4340   12.8990    8.0170 C.ar  224  TRP224      0.0810
    101  CE3      -23.8790   12.3650    6.1540 C.ar  224  TRP224      0.0012
    102  CZ2      -21.7050   13.8090    7.2500 C.ar  224  TRP224      0.0191
    103  CZ3      -23.1540   13.2700    5.3930 C.ar  224  TRP224      0.0001
    104  CH2      -22.0790   13.9790    5.9450 C.ar  224  TRP224      0.0015
    105  N        -28.3150   12.7030    0.9620 N.3   292  HIS292     -0.1241
    106  CA       -28.0150   12.5680    2.3760 C.3   292  HIS292      0.1621
    107  C        -28.5980   13.7380    3.1510 C.2   292  HIS292      0.2264
    108  O        -28.8590   14.8170    2.6080 O.2   292  HIS292     -0.2867
    109  CB       -26.5060   12.4290    2.6390 C.3   292  HIS292      0.0745
    110  CG       -25.6660   13.4830    1.9870 C.ar  292  HIS292      0.0817
    111  ND1      -25.3880   13.4820    0.6370 N.ar  292  HIS292     -0.2268
    112  CD2      -25.0180   14.5550    2.5030 C.ar  292  HIS292      0.1154
    113  CE1      -24.6210   14.5180    0.3460 C.ar  292  HIS292      0.1986
    114  NE2      -24.3810   15.1850    1.4610 N.ar  292  HIS292     -0.2212
    115  N        -17.3450   20.1680   12.4070 N.3   302  ALA302     -0.1245
    116  CA       -17.1220   19.3150   11.2500 C.3   302  ALA302      0.1562
    117  C        -16.5190   20.1140   10.1020 C.2   302  ALA302      0.2260
    118  O        -16.5930   21.3450   10.0610 O.2   302  ALA302     -0.2867
    119  CB       -18.4240   18.6490   10.7920 C.3   302  ALA302      0.0290
    120  N        -16.0100   19.6580    5.6600 N.3   304  ALA304     -0.1245
    121  CA       -16.4970   18.9070    4.5120 C.3   304  ALA304      0.1562
    122  C        -15.9940   19.5280    3.2190 C.2   304  ALA304      0.2260
    123  O        -15.8010   20.7420    3.1280 O.2   304  ALA304     -0.2867
    124  CB       -18.0290   18.8450    4.4930 C.3   304  ALA304      0.0290
@<TRIPOS>BOND
     1    62    61    2
     2    61    60    1
     3    60    59    1
     4    60    63    1
     5    63    64    1
     6    64    65    1
     7    66    65   ar
     8    68    69    1
     9    65    67   ar
    10    51    50    1
    11    51    52    2
    12    50    53    1
    13    50    49    1
    14    53    54    1
    15    69    72    1
    16    69    70    1
    17    72    73    1
    18    56    54   ar
    19    56    58   ar
    20    54    55   ar
    21   113   111   ar
    22   113   114   ar
    23    70    71    2
    24   111   110   ar
    25   105   106    1
    26    58    57   ar
    27   114   112   ar
    28    55    57   ar
    29   110   112   ar
    30   110   109    1
    31   106   109    1
    32   106   107    1
    33   108   107    2
    34   123   122    2
    35    25    23   ar
    36   122   121    1
    37    81    79   am
    38    23    24   ar
    39    23    22    1
    40    37    36    1
    41   124   121    1
    42   121   120    1
    43    22    19    1
    44    80    79    2
    45    74    75    1
    46    79    78    1
    47    21    20    2
    48   103   104   ar
    49   103   101   ar
    50    19    20    1
    51    19    18    1
    52    36    34   ar
    53    36    35   ar
    54    45    47   ar
    55    45    43   ar
    56    75    78    1
    57    75    76    1
    58   104   102   ar
    59    34    32   ar
    60    47    48   ar
    61   101    98   ar
    62    40    41    2
    63    40    39    1
    64    42    43    1
    65    42    39    1
    66    35    33   ar
    67    18    15   am
    68    43    44   ar
    69    39    38    1
    70    76    77    2
    71   102   100   ar
    72    48    46   ar
    73    32    31   ar
    74    98   100   ar
    75    98    96   ar
    76    16    15    2
    77    15    14    1
    78    33    31   ar
    79   100    99   ar
    80    44    46   ar
    81    17    14    1
    82    31    30    1
    83    95    96    1
    84    95    92    1
    85    96    97   ar
    86    93    92    1
    87    93    94    2
    88    14    13    1
    89    92    91    1
    90    99    97   ar
    91    30    27    1
    92    26    27    1
    93   118   117    2
    94   117   116    1
    95    10     8   ar
    96    10    11   ar
    97    27    28    1
    98    12    11    1
    99    88    89    1
   100    88    87    1
   101     8     6   ar
   102   119   116    1
   103    11     9   ar
   104    89    90    1
   105   116   115    1
   106     6     5    1
   107     6     7   ar
   108    87    86    1
   109     4     3    2
   110     9     7   ar
   111    28    29    2
   112     5     2    1
   113     3     2    1
   114    86    83    1
   115    85    84    2
   116     2     1    1
   117    84    83    1
   118    83    82    1
