@<TRIPOS>MOLECULE
tmp/6bgwA00.pdb
 204 194 0 0 0
SMALL
GASTEIGER

@<TRIPOS>ATOM
      1  N        -26.8400   30.4910   11.4180 N.3    63  ARG63      -0.1245
      2  CA       -28.1690   30.5970   10.8380 C.3    63  ARG63       0.1563
      3  C        -29.2110   30.0340   11.7960 C.2    63  ARG63       0.2260
      4  O        -28.9620   29.0710   12.5260 O.2    63  ARG63      -0.2867
      5  CB       -28.2360   29.8630    9.4970 C.3    63  ARG63       0.0307
      6  CG       -28.0650   28.3550    9.5910 C.3    63  ARG63       0.0489
      7  CD       -28.1970   27.7070    8.2220 C.3    63  ARG63       0.2205
      8  NE       -27.1680   28.1780    7.3000 N.pl3  63  ARG63      -0.0865
      9  CZ       -27.1240   27.8700    6.0070 C.cat  63  ARG63       0.5346
     10  NH1      -28.0570   27.0920    5.4760 N.pl3  63  ARG63       0.1354
     11  NH2      -26.1490   28.3440    5.2450 N.pl3  63  ARG63       0.1354
     12  N        -32.5990   28.0860   12.6570 N.3    65  GLN65      -0.1245
     13  CA       -33.2990   26.9360   12.0940 C.3    65  GLN65       0.1566
     14  C        -34.5380   26.6380   12.9280 C.2    65  GLN65       0.2260
     15  O        -34.4250   26.2550   14.0980 O.2    65  GLN65      -0.2867
     16  CB       -32.3840   25.7130   12.0380 C.3    65  GLN65       0.0367
     17  CG       -31.2120   25.8500   11.0810 C.3    65  GLN65       0.0905
     18  CD       -30.4490   24.5500   10.9080 C.2    65  GLN65       0.2608
     19  OE1      -30.2800   23.7830   11.8580 O.2    65  GLN65      -0.2717
     20  NE2      -29.9910   24.2900    9.6870 N.am   65  GLN65      -0.0878
     21  N        -27.2050   27.0950   13.7460 N.3   136  TYR136     -0.1241
     22  CA       -26.2070   26.2480   13.1020 C.3   136  TYR136      0.1605
     23  C        -25.1230   27.1320   12.5070 C.2   136  TYR136      0.2264
     24  O        -25.4110   27.9800   11.6560 O.2   136  TYR136     -0.2867
     25  CB       -26.8430   25.3790   12.0110 C.3   136  TYR136      0.0534
     26  CG       -26.0420   24.1550   11.6230 C.ar  136  TYR136     -0.0201
     27  CD1      -24.8860   23.8040   12.3070 C.ar  136  TYR136     -0.0009
     28  CD2      -26.4460   23.3500   10.5640 C.ar  136  TYR136     -0.0009
     29  CE1      -24.1550   22.6810   11.9500 C.ar  136  TYR136      0.0417
     30  CE2      -25.7230   22.2280   10.2000 C.ar  136  TYR136      0.0417
     31  CZ       -24.5790   21.8980   10.8950 C.ar  136  TYR136      0.1957
     32  OH       -23.8610   20.7790   10.5350 O.3   136  TYR136     -0.2866
     33  N        -23.1300   27.0900   10.0100 N.3   138  ALA138     -0.1231
     34  CA       -22.9800   26.3200    8.7870 C.3   138  ALA138      0.1694
     35  C        -22.3170   27.1440    7.6900 C.2   138  ALA138      0.2592
     36  O        -22.4430   28.3710    7.6430 O.2   138  ALA138     -0.2718
     37  CB       -24.3370   25.8090    8.2990 C.3   138  ALA138      0.0304
     38  N        -21.6080   26.4420    6.8040 N.am  139  ASP139     -0.1974
     39  CA       -20.9490   27.0420    5.6440 C.3   139  ASP139      0.1709
     40  C        -19.9840   28.1520    6.0600 C.2   139  ASP139      0.2293
     41  O        -19.9910   29.2560    5.5120 O.2   139  ASP139     -0.2864
     42  CB       -21.9770   27.5520    4.6310 C.3   139  ASP139      0.1436
     43  CG       -22.6770   26.4240    3.8950 C.2   139  ASP139      0.3671
     44  OD1      -22.3810   25.2460    4.1900 O.co2 139  ASP139     -0.2456
     45  OD2      -23.5180   26.7130    3.0190 O.co2 139  ASP139     -0.2456
     46  N        -11.5010   25.5310   -4.8590 N.3   188  LYS188     -0.1245
     47  CA       -12.4260   24.9370   -3.9020 C.3   188  LYS188      0.1561
     48  C        -11.7010   24.5300   -2.6230 C.2   188  LYS188      0.2260
     49  O        -10.6890   23.8300   -2.6650 O.2   188  LYS188     -0.2867
     50  CB       -13.1290   23.7390   -4.5180 C.3   188  LYS188      0.0271
     51  CG       -14.1410   23.0300   -3.7020 C.3   188  LYS188      0.0035
     52  CD       -14.7540   21.8740   -4.5160 C.3   188  LYS188      0.0206
     53  CE       -16.2560   22.1360   -4.5990 C.3   188  LYS188      0.1093
     54  NZ       -16.8060   22.3430   -3.2240 N.3   188  LYS188     -0.1314
     55  N        -15.2920   23.4140    3.8470 N.3   191  TRP191     -0.1241
     56  CA       -16.2060   24.2400    4.6190 C.3   191  TRP191      0.1605
     57  C        -16.3510   23.6750    6.0260 C.2   191  TRP191      0.2264
     58  O        -16.2030   22.4690    6.2460 O.2   191  TRP191     -0.2867
     59  CB       -17.5790   24.3240    3.9440 C.3   191  TRP191      0.0550
     60  CG       -17.5590   25.0790    2.6520 C.ar  191  TRP191      0.0003
     61  CD1      -17.2740   24.5790    1.4150 C.ar  191  TRP191      0.0946
     62  CD2      -17.8340   26.4720    2.4690 C.ar  191  TRP191      0.0152
     63  NE1      -17.3550   25.5760    0.4720 N.ar  191  TRP191     -0.2442
     64  CE2      -17.6960   26.7480    1.0950 C.ar  191  TRP191      0.0810
     65  CE3      -18.1830   27.5130    3.3340 C.ar  191  TRP191      0.0012
     66  CZ2      -17.8980   28.0210    0.5650 C.ar  191  TRP191      0.0191
     67  CZ3      -18.3820   28.7750    2.8070 C.ar  191  TRP191      0.0001
     68  CH2      -18.2390   29.0180    1.4360 C.ar  191  TRP191      0.0015
     69  N        -18.4850   23.4250    9.8510 N.3   193  TYR193     -0.1241
     70  CA       -19.8280   23.3590   10.4220 C.3   193  TYR193      0.1605
     71  C        -19.7080   23.2440   11.9350 C.2   193  TYR193      0.2264
     72  O        -19.1950   22.2430   12.4440 O.2   193  TYR193     -0.2867
     73  CB       -20.6160   22.1800    9.8480 C.3   193  TYR193      0.0534
     74  CG       -20.8510   22.2910    8.3610 C.ar  193  TYR193     -0.0201
     75  CD1      -21.9650   22.9530    7.8640 C.ar  193  TYR193     -0.0009
     76  CD2      -19.9510   21.7470    7.4540 C.ar  193  TYR193     -0.0009
     77  CE1      -22.1810   23.0640    6.5060 C.ar  193  TYR193      0.0417
     78  CE2      -20.1590   21.8540    6.0930 C.ar  193  TYR193      0.0417
     79  CZ       -21.2760   22.5130    5.6250 C.ar  193  TYR193      0.1957
     80  OH       -21.4890   22.6230    4.2710 O.3   193  TYR193     -0.2866
     81  N        -29.3440   20.9250   11.8250 N.3   200  SER200     -0.1202
     82  CA       -29.5630   19.8780   10.8380 C.3   200  SER200      0.2020
     83  C        -29.2890   20.3820    9.4290 C.2   200  SER200      0.2619
     84  O        -29.2020   21.5860    9.1720 O.2   200  SER200     -0.2717
     85  CB       -30.9940   19.3380   10.9240 C.3   200  SER200      0.2103
     86  OG       -31.9340   20.3480   10.5970 O.3   200  SER200     -0.2182
     87  N        -29.1650   19.4220    8.5110 N.am  201  PHE201     -0.1961
     88  CA       -29.0980   19.6680    7.0780 C.3   201  PHE201      0.1771
     89  C        -30.0490   18.7040    6.3850 C.2   201  PHE201      0.2619
     90  O        -30.0930   17.5180    6.7210 O.2   201  PHE201     -0.2715
     91  CB       -27.6640   19.5130    6.5330 C.3   201  PHE201      0.0574
     92  CG       -27.0120   18.1900    6.8570 C.ar  201  PHE201     -0.0200
     93  CD1      -26.4740   17.9520    8.1130 C.ar  201  PHE201     -0.0042
     94  CD2      -26.9050   17.1990    5.8920 C.ar  201  PHE201     -0.0042
     95  CE1      -25.8640   16.7450    8.4090 C.ar  201  PHE201     -0.0003
     96  CE2      -26.2900   15.9920    6.1810 C.ar  201  PHE201     -0.0003
     97  CZ       -25.7730   15.7630    7.4420 C.ar  201  PHE201     -0.0000
     98  N        -30.8220   19.2180    5.4300 N.am  202  CYS202     -0.1968
     99  CA       -31.8840   18.4330    4.8210 C.3   202  CYS202      0.1712
    100  C        -31.3680   17.6700    3.6020 C.2   202  CYS202      0.2296
    101  O        -30.2020   17.7720    3.2150 O.2   202  CYS202     -0.2864
    102  CB       -33.0690   19.3290    4.4610 C.3   202  CYS202      0.0983
    103  SG       -32.6750   20.7380    3.4110 S.3   202  CYS202     -0.0798
    104  N        -30.1970   16.3190    0.2040 N.3   204  HIS204     -0.1241
    105  CA       -29.5910   16.9520   -0.9580 C.3   204  HIS204      0.1621
    106  C        -28.5430   16.0220   -1.5470 C.2   204  HIS204      0.2264
    107  O        -28.0860   15.0760   -0.9000 O.2   204  HIS204     -0.2867
    108  CB       -28.9500   18.2940   -0.5920 C.3   204  HIS204      0.0745
    109  CG       -27.7310   18.1580    0.2650 C.ar  204  HIS204      0.0817
    110  ND1      -27.7980   17.9080    1.6190 N.ar  204  HIS204     -0.2268
    111  CD2      -26.4140   18.2180   -0.0410 C.ar  204  HIS204      0.1154
    112  CE1      -26.5750   17.8280    2.1110 C.ar  204  HIS204      0.1986
    113  NE2      -25.7160   18.0130    1.1240 N.ar  204  HIS204     -0.2212
    114  N        -24.8190   16.4960   -4.1240 N.3   206  GLU206     -0.1245
    115  CA       -23.7830   17.4860   -4.3690 C.3   206  GLU206      0.1567
    116  C        -23.8380   17.9920   -5.8050 C.2   206  GLU206      0.2260
    117  O        -24.3520   17.3280   -6.7090 O.2   206  GLU206     -0.2867
    118  CB       -22.4000   16.9040   -4.0740 C.3   206  GLU206      0.0388
    119  CG       -22.2560   16.3450   -2.6700 C.3   206  GLU206      0.1160
    120  CD       -22.6050   17.3590   -1.5990 C.2   206  GLU206      0.3649
    121  OE1      -22.2590   18.5490   -1.7590 O.co2 206  GLU206     -0.2457
    122  OE2      -23.2350   16.9670   -0.5970 O.co2 206  GLU206     -0.2457
    123  N        -18.3800   13.4450   -1.6700 N.3   212  SER212     -0.1217
    124  CA       -18.0440   14.3490   -0.5810 C.3   212  SER212      0.1889
    125  C        -17.4350   13.5440    0.5550 C.2   212  SER212      0.2288
    126  O        -17.7840   12.3800    0.7700 O.2   212  SER212     -0.2866
    127  CB       -19.2620   15.1370   -0.0760 C.3   212  SER212      0.2089
    128  OG       -19.9720   14.4120    0.9120 O.3   212  SER212     -0.2183
    129  N        -16.3480   13.9910    4.7840 N.3   214  ASN214     -0.1240
    130  CA       -16.7100   14.7750    5.9560 C.3   214  ASN214      0.1653
    131  C        -15.9440   14.2450    7.1570 C.2   214  ASN214      0.2266
    132  O        -15.8910   13.0310    7.3720 O.2   214  ASN214     -0.2867
    133  CB       -18.2200   14.7020    6.2170 C.3   214  ASN214      0.1155
    134  CG       -19.0460   15.0510    4.9910 C.2   214  ASN214      0.2627
    135  OD1      -19.5780   16.1540    4.8830 O.2   214  ASN214     -0.2716
    136  ND2      -19.1620   14.1060    4.0620 N.am  214  ASN214     -0.0877
    137  N        -22.4550   13.4010   15.0010 N.3   222  LYS222     -0.1245
    138  CA       -23.3070   13.8990   13.9300 C.3   222  LYS222      0.1561
    139  C        -24.0520   12.7070   13.3460 C.2   222  LYS222      0.2260
    140  O        -23.4250   11.7520   12.8760 O.2   222  LYS222     -0.2867
    141  CB       -22.4780   14.6080   12.8580 C.3   222  LYS222      0.0271
    142  CG       -23.2850   15.1850   11.7070 C.3   222  LYS222      0.0035
    143  CD       -22.3670   15.7320   10.6230 C.3   222  LYS222      0.0206
    144  CE       -21.5030   16.8710   11.1440 C.3   222  LYS222      0.1093
    145  NZ       -22.2630   18.1520   11.2420 N.3   222  LYS222     -0.1314
    146  N        -26.2820   10.7780   10.6590 N.3   224  TRP224     -0.1241
    147  CA       -26.4020   10.8230    9.2090 C.3   224  TRP224      0.1605
    148  C        -27.5150    9.9060    8.7230 C.2   224  TRP224      0.2264
    149  O        -27.8120    8.8790    9.3390 O.2   224  TRP224     -0.2867
    150  CB       -25.0970   10.3940    8.5280 C.3   224  TRP224      0.0550
    151  CG       -23.9880   11.3830    8.6140 C.ar  224  TRP224      0.0003
    152  CD1      -23.2250   11.6660    9.7070 C.ar  224  TRP224      0.0946
    153  CD2      -23.4930   12.2060    7.5530 C.ar  224  TRP224      0.0152
    154  NE1      -22.2920   12.6250    9.3960 N.ar  224  TRP224     -0.2442
    155  CE2      -22.4350   12.9720    8.0790 C.ar  224  TRP224      0.0810
    156  CE3      -23.8460   12.3730    6.2100 C.ar  224  TRP224      0.0012
    157  CZ2      -21.7270   13.8920    7.3100 C.ar  224  TRP224      0.0191
    158  CZ3      -23.1410   13.2860    5.4470 C.ar  224  TRP224      0.0001
    159  CH2      -22.0940   14.0340    5.9990 C.ar  224  TRP224      0.0015
    160  N        -33.8600   21.7910   -2.6190 N.3   256  GLN256     -0.1231
    161  CA       -32.9380   21.2010   -1.6550 C.3   256  GLN256      0.1698
    162  C        -32.6540   22.1080   -0.4670 C.2   256  GLN256      0.2592
    163  O        -32.0420   21.6490    0.5040 O.2   256  GLN256     -0.2718
    164  CB       -31.6180   20.8390   -2.3370 C.3   256  GLN256      0.0381
    165  CG       -31.6460   19.5280   -3.0970 C.3   256  GLN256      0.0905
    166  CD       -30.3020   19.1910   -3.7090 C.2   256  GLN256      0.2608
    167  OE1      -30.0550   18.0520   -4.1000 O.2   256  GLN256     -0.2717
    168  NE2      -29.4250   20.1850   -3.7960 N.am  256  GLN256     -0.0878
    169  N        -33.0600   23.3780   -0.5190 N.am  257  LEU257     -0.1980
    170  CA       -32.9290   24.2360    0.6500 C.3   257  LEU257      0.1596
    171  C        -33.9370   23.8820    1.7360 C.2   257  LEU257      0.2287
    172  O        -33.7150   24.2230    2.9030 O.2   257  LEU257     -0.2864
    173  CB       -33.0910   25.7040    0.2490 C.3   257  LEU257      0.0297
    174  CG       -32.1060   26.2490   -0.7880 C.3   257  LEU257      0.0022
    175  CD1      -32.4560   27.6810   -1.1650 C.3   257  LEU257      0.0001
    176  CD2      -30.6760   26.1620   -0.2740 C.3   257  LEU257      0.0001
    177  N        -28.3660   12.6540    1.0580 N.3   292  HIS292     -0.1241
    178  CA       -28.0360   12.5330    2.4670 C.3   292  HIS292      0.1621
    179  C        -28.6080   13.7040    3.2510 C.2   292  HIS292      0.2264
    180  O        -28.8500   14.7890    2.7130 O.2   292  HIS292     -0.2867
    181  CB       -26.5180   12.4230    2.6980 C.3   292  HIS292      0.0745
    182  CG       -25.7160   13.4950    2.0290 C.ar  292  HIS292      0.0817
    183  ND1      -25.4050   13.4630    0.6860 N.ar  292  HIS292     -0.2268
    184  CD2      -25.1420   14.6180    2.5210 C.ar  292  HIS292      0.1154
    185  CE1      -24.6840   14.5260    0.3780 C.ar  292  HIS292      0.1986
    186  NE2      -24.5100   15.2430    1.4740 N.ar  292  HIS292     -0.2212
    187  N        -17.2570   20.1790   12.4680 N.3   302  ALA302     -0.1245
    188  CA       -17.0680   19.3210   11.3100 C.3   302  ALA302      0.1562
    189  C        -16.4400   20.0980   10.1600 C.2   302  ALA302      0.2260
    190  O        -16.5020   21.3290   10.1010 O.2   302  ALA302     -0.2867
    191  CB       -18.3960   18.7040   10.8540 C.3   302  ALA302      0.0290
    192  N        -15.9200   19.6270    5.7370 N.3   304  ALA304     -0.1245
    193  CA       -16.4160   18.8860    4.5860 C.3   304  ALA304      0.1562
    194  C        -15.9100   19.5160    3.2980 C.2   304  ALA304      0.2260
    195  O        -15.6950   20.7280    3.2220 O.2   304  ALA304     -0.2867
    196  CB       -17.9490   18.8400    4.5690 C.3   304  ALA304      0.0290
    197  N        -16.1490   18.5990   -1.2490 N.3   306  ASN306     -0.1240
    198  CA       -16.4150   17.7140   -2.3710 C.3   306  ASN306      0.1653
    199  C        -15.1050   17.3560   -3.0570 C.2   306  ASN306      0.2266
    200  O        -14.2180   18.2000   -3.2070 O.2   306  ASN306     -0.2867
    201  CB       -17.3670   18.3730   -3.3710 C.3   306  ASN306      0.1155
    202  CG       -18.7600   18.5710   -2.8080 C.2   306  ASN306      0.2627
    203  OD1      -19.1140   17.9930   -1.7820 O.2   306  ASN306     -0.2716
    204  ND2      -19.5620   19.3840   -3.4850 N.am  306  ASN306     -0.0877
@<TRIPOS>BOND
     1   117   116    2
     2   116   115    1
     3    46    47    1
     4    53    52    1
     5    53    54    1
     6    50    47    1
     7    50    51    1
     8    52    51    1
     9   115   114    1
    10   115   118    1
    11   167   166    2
    12   118   119    1
    13    47    48    1
    14   168   166   am
    15   166   165    1
    16   204   202   am
    17   201   202    1
    18   201   198    1
    19   200   199    2
    20   165   164    1
    21   199   198    1
    22   202   203    2
    23   119   120    1
    24    49    48    2
    25   160   161    1
    26   198   197    1
    27   164   161    1
    28   121   120   ar
    29   123   124    1
    30   161   162    1
    31   120   122   ar
    32   106   105    1
    33   106   107    2
    34   175   174    1
    35   105   108    1
    36   105   104    1
    37   174   176    1
    38   174   173    1
    39   108   109    1
    40   124   127    1
    41   124   125    1
    42   169   162   am
    43   169   170    1
    44   162   163    2
    45   127   128    1
    46   111   109   ar
    47   111   113   ar
    48   173   170    1
    49   109   110   ar
    50   185   183   ar
    51   185   186   ar
    52    63    64   ar
    53    63    61   ar
    54   125   126    2
    55    66    64   ar
    56    66    68   ar
    57   170   171    1
    58   183   182   ar
    59   177   178    1
    60    64    62   ar
    61   113   112   ar
    62    61    60   ar
    63    68    67   ar
    64   186   184   ar
    65   110   112   ar
    66   171   172    2
    67   182   184   ar
    68   182   181    1
    69   178   181    1
    70   178   179    1
    71    62    60   ar
    72    62    65   ar
    73    60    59    1
    74   180   179    2
    75    67    65   ar
    76    45    43   ar
    77   101   100    2
    78   195   194    2
    79   194   193    1
    80   103   102    1
    81   100    99    1
    82    55    56    1
    83    43    44   ar
    84    43    42    1
    85    59    56    1
    86   136   134   am
    87    80    79    1
    88   102    99    1
    89   196   193    1
    90   193   192    1
    91    56    57    1
    92    42    39    1
    93   129   130    1
    94    99    98    1
    95   135   134    2
    96   134   133    1
    97    11     9    1
    98    98    89   am
    99   158   159   ar
   100   158   156   ar
   101    10     9    1
   102    41    40    2
   103    79    78   ar
   104    79    77   ar
   105    39    40    1
   106    39    38    1
   107    94    96   ar
   108    94    92   ar
   109   130   133    1
   110   130   131    1
   111   159   157   ar
   112     9     8    2
   113    57    58    2
   114    78    76   ar
   115    96    97   ar
   116   156   153   ar
   117    89    90    2
   118    89    88    1
   119    77    75   ar
   120    91    92    1
   121    91    88    1
   122    38    35   am
   123    92    93   ar
   124    88    87    1
   125   131   132    2
   126     8     7    1
   127   157   155   ar
   128    97    95   ar
   129    76    74   ar
   130   153   155   ar
   131   153   151   ar
   132    36    35    2
   133    35    34    1
   134    75    74   ar
   135   155   154   ar
   136    93    95   ar
   137     7     6    1
   138    37    34    1
   139    74    73    1
   140    87    83   am
   141   150   151    1
   142   150   147    1
   143   151   152   ar
   144   148   147    1
   145   148   149    2
   146    34    33    1
   147    84    83    2
   148   147   146    1
   149   154   152   ar
   150    83    82    1
   151     5     6    1
   152     5     2    1
   153    20    18   am
   154    73    70    1
   155    69    70    1
   156   190   189    2
   157   189   188    1
   158    30    28   ar
   159    30    31   ar
   160    70    71    1
   161    32    31    1
   162    28    26   ar
   163    86    85    1
   164   143   144    1
   165   143   142    1
   166    82    85    1
   167    82    81    1
   168     2     1    1
   169     2     3    1
   170   191   188    1
   171    31    29   ar
   172    18    17    1
   173    18    19    2
   174    17    16    1
   175   144   145    1
   176   188   187    1
   177    26    25    1
   178    26    27   ar
   179    24    23    2
   180   142   141    1
   181     3     4    2
   182    71    72    2
   183    29    27   ar
   184    25    22    1
   185    16    13    1
   186    13    12    1
   187    13    14    1
   188    23    22    1
   189   141   138    1
   190   140   139    2
   191    14    15    2
   192    22    21    1
   193   139   138    1
   194   138   137    1
