@<TRIPOS>MOLECULE
tmp/6bgxA00.pdb
 219 210 0 0 0
SMALL
GASTEIGER

@<TRIPOS>ATOM
      1  N        -26.8590   30.5230   11.3650 N.3    62  ARG62      -0.1245
      2  CA       -28.1900   30.6290   10.7920 C.3    62  ARG62       0.1563
      3  C        -29.2250   30.0560   11.7510 C.2    62  ARG62       0.2260
      4  O        -28.9580   29.1150   12.5040 O.2    62  ARG62      -0.2867
      5  CB       -28.2610   29.9030    9.4480 C.3    62  ARG62       0.0307
      6  CG       -28.0910   28.3950    9.5340 C.3    62  ARG62       0.0489
      7  CD       -28.1370   27.7620    8.1520 C.3    62  ARG62       0.2205
      8  NE       -27.0160   28.1920    7.3210 N.pl3  62  ARG62      -0.0865
      9  CZ       -26.7720   27.7370    6.0950 C.cat  62  ARG62       0.5346
     10  NH1      -27.5720   26.8320    5.5470 N.pl3  62  ARG62       0.1354
     11  NH2      -25.7250   28.1860    5.4170 N.pl3  62  ARG62       0.1354
     12  N        -32.5760   28.0380   12.5950 N.3    64  GLN64      -0.1245
     13  CA       -33.2710   26.8800   12.0410 C.3    64  GLN64       0.1566
     14  C        -34.5170   26.6010   12.8730 C.2    64  GLN64       0.2260
     15  O        -34.4150   26.1990   14.0370 O.2    64  GLN64      -0.2867
     16  CB       -32.3550   25.6560   12.0040 C.3    64  GLN64       0.0367
     17  CG       -31.1670   25.7920   11.0650 C.3    64  GLN64       0.0905
     18  CD       -30.4230   24.4840   10.8750 C.2    64  GLN64       0.2608
     19  OE1      -30.2910   23.6900   11.8060 O.2    64  GLN64      -0.2717
     20  NE2      -29.9400   24.2490    9.6610 N.am   64  GLN64      -0.0878
     21  N        -27.1810   27.1370   13.7360 N.3   135  TYR135     -0.1241
     22  CA       -26.1920   26.2910   13.0770 C.3   135  TYR135      0.1605
     23  C        -25.1230   27.1710   12.4470 C.2   135  TYR135      0.2264
     24  O        -25.4310   28.0050   11.5900 O.2   135  TYR135     -0.2867
     25  CB       -26.8540   25.4080   12.0120 C.3   135  TYR135      0.0534
     26  CG       -26.0540   24.1870   11.6060 C.ar  135  TYR135     -0.0201
     27  CD1      -24.8710   23.8530   12.2520 C.ar  135  TYR135     -0.0009
     28  CD2      -26.4870   23.3680   10.5720 C.ar  135  TYR135     -0.0009
     29  CE1      -24.1420   22.7360   11.8790 C.ar  135  TYR135      0.0417
     30  CE2      -25.7650   22.2500   10.1920 C.ar  135  TYR135      0.0417
     31  CZ       -24.5950   21.9390   10.8480 C.ar  135  TYR135      0.1957
     32  OH       -23.8780   20.8260   10.4700 O.3   135  TYR135     -0.2866
     33  N        -23.1160   27.0780    9.9290 N.3   137  ALA137     -0.1231
     34  CA       -22.9860   26.2610    8.7340 C.3   137  ALA137      0.1694
     35  C        -22.3390   27.0340    7.5930 C.2   137  ALA137      0.2592
     36  O        -22.4270   28.2630    7.5160 O.2   137  ALA137     -0.2718
     37  CB       -24.3540   25.7420    8.2890 C.3   137  ALA137      0.0304
     38  N        -21.6850   26.2850    6.7030 N.am  138  ASP138     -0.1974
     39  CA       -21.0770   26.8280    5.4870 C.3   138  ASP138      0.1709
     40  C        -20.0810   27.9420    5.8010 C.2   138  ASP138      0.2293
     41  O        -20.0160   28.9580    5.1070 O.2   138  ASP138     -0.2864
     42  CB       -22.1470   27.3080    4.5050 C.3   138  ASP138      0.1436
     43  CG       -23.0610   26.1860    4.0550 C.2   138  ASP138      0.3671
     44  OD1      -22.6500   25.0110    4.1630 O.co2 138  ASP138     -0.2456
     45  OD2      -24.1850   26.4760    3.5950 O.co2 138  ASP138     -0.2456
     46  N        -15.4280   23.4050    3.7790 N.3   190  TRP190     -0.1241
     47  CA       -16.3530   24.2200    4.5500 C.3   190  TRP190      0.1605
     48  C        -16.4640   23.6690    5.9660 C.2   190  TRP190      0.2264
     49  O        -16.3030   22.4670    6.1960 O.2   190  TRP190     -0.2867
     50  CB       -17.7380   24.2610    3.8960 C.3   190  TRP190      0.0550
     51  CG       -17.7490   24.8980    2.5370 C.ar  190  TRP190      0.0003
     52  CD1      -17.5630   24.2740    1.3380 C.ar  190  TRP190      0.0946
     53  CD2      -17.9590   26.2840    2.2380 C.ar  190  TRP190      0.0152
     54  NE1      -17.6430   25.1840    0.3120 N.ar  190  TRP190     -0.2442
     55  CE2      -17.8860   26.4260    0.8380 C.ar  190  TRP190      0.0810
     56  CE3      -18.2030   27.4190    3.0190 C.ar  190  TRP190      0.0012
     57  CZ2      -18.0470   27.6550    0.2020 C.ar  190  TRP190      0.0191
     58  CZ3      -18.3610   28.6400    2.3850 C.ar  190  TRP190      0.0001
     59  CH2      -18.2830   28.7480    0.9910 C.ar  190  TRP190      0.0015
     60  N        -18.5160   23.4490    9.8520 N.3   192  TYR192     -0.1241
     61  CA       -19.8570   23.3540   10.4230 C.3   192  TYR192      0.1605
     62  C        -19.7410   23.2580   11.9370 C.2   192  TYR192      0.2264
     63  O        -19.2630   22.2480   12.4650 O.2   192  TYR192     -0.2867
     64  CB       -20.6170   22.1530    9.8590 C.3   192  TYR192      0.0534
     65  CG       -20.8760   22.2440    8.3740 C.ar  192  TYR192     -0.0201
     66  CD1      -22.0160   22.8690    7.8860 C.ar  192  TYR192     -0.0009
     67  CD2      -19.9780   21.7100    7.4610 C.ar  192  TYR192     -0.0009
     68  CE1      -22.2540   22.9570    6.5280 C.ar  192  TYR192      0.0417
     69  CE2      -20.2080   21.7920    6.1010 C.ar  192  TYR192      0.0417
     70  CZ       -21.3470   22.4170    5.6410 C.ar  192  TYR192      0.1957
     71  OH       -21.5820   22.5020    4.2880 O.3   192  TYR192     -0.2866
     72  N        -29.3570   20.8820   11.7680 N.3   199  SER199     -0.1202
     73  CA       -29.5490   19.8360   10.7750 C.3   199  SER199      0.2020
     74  C        -29.2530   20.3420    9.3710 C.2   199  SER199      0.2619
     75  O        -29.1790   21.5460    9.1150 O.2   199  SER199     -0.2717
     76  CB       -30.9800   19.2910   10.8260 C.3   199  SER199      0.2103
     77  OG       -31.9120   20.3040   10.4900 O.3   199  SER199     -0.2182
     78  N        -29.0880   19.3810    8.4630 N.am  200  PHE200     -0.1961
     79  CA       -29.0060   19.6170    7.0300 C.3   200  PHE200      0.1771
     80  C        -29.9310   18.6280    6.3340 C.2   200  PHE200      0.2619
     81  O        -29.9430   17.4400    6.6700 O.2   200  PHE200     -0.2715
     82  CB       -27.5630   19.4760    6.5080 C.3   200  PHE200      0.0574
     83  CG       -26.9110   18.1560    6.8400 C.ar  200  PHE200     -0.0200
     84  CD1      -26.4070   17.9120    8.1090 C.ar  200  PHE200     -0.0042
     85  CD2      -26.7780   17.1710    5.8740 C.ar  200  PHE200     -0.0042
     86  CE1      -25.8010   16.7050    8.4130 C.ar  200  PHE200     -0.0003
     87  CE2      -26.1690   15.9630    6.1720 C.ar  200  PHE200     -0.0003
     88  CZ       -25.6820   15.7300    7.4430 C.ar  200  PHE200     -0.0000
     89  N        -30.7130   19.1210    5.3760 N.am  201  CYS201     -0.1968
     90  CA       -31.7650   18.3240    4.7650 C.3   201  CYS201      0.1712
     91  C        -31.2430   17.5710    3.5390 C.2   201  CYS201      0.2296
     92  O        -30.0730   17.6740    3.1600 O.2   201  CYS201     -0.2864
     93  CB       -32.9590   19.2080    4.4070 C.3   201  CYS201      0.0983
     94  SG       -32.5770   20.6130    3.3420 S.3   201  CYS201     -0.0798
     95  N        -30.0680   16.2550    0.1120 N.3   203  HIS203     -0.1226
     96  CA       -29.4300   16.9190   -1.0150 C.3   203  HIS203      0.1752
     97  C        -28.3990   15.9800   -1.6210 C.2   203  HIS203      0.2596
     98  O        -27.9710   15.0070   -0.9950 O.2   203  HIS203     -0.2718
     99  CB       -28.7610   18.2310   -0.5880 C.3   203  HIS203      0.0759
    100  CG       -27.5320   18.0330    0.2450 C.ar  203  HIS203      0.0818
    101  ND1      -27.5840   17.7050    1.5820 N.ar  203  HIS203     -0.2268
    102  CD2      -26.2180   18.1060   -0.0740 C.ar  203  HIS203      0.1154
    103  CE1      -26.3550   17.5880    2.0520 C.ar  203  HIS203      0.1986
    104  NE2      -25.5070   17.8280    1.0680 N.ar  203  HIS203     -0.2212
    105  N        -28.0140   16.2840   -2.8590 N.am  204  ILE204     -0.1966
    106  CA       -26.8400   15.6970   -3.4880 C.3   204  ILE204      0.1727
    107  C        -25.8850   16.8330   -3.8290 C.2   204  ILE204      0.2616
    108  O        -26.2640   18.0060   -3.8620 O.2   204  ILE204     -0.2715
    109  CB       -27.1840   14.8680   -4.7430 C.3   204  ILE204      0.0290
    110  CG1      -28.1270   15.6460   -5.6620 C.3   204  ILE204      0.0022
    111  CG2      -27.7810   13.5250   -4.3490 C.3   204  ILE204      0.0023
    112  CD1      -28.5440   14.8810   -6.8990 C.3   204  ILE204      0.0001
    113  N        -24.6310   16.4730   -4.0760 N.am  205  GLU205     -0.1963
    114  CA       -23.6200   17.4830   -4.3360 C.3   205  GLU205      0.1733
    115  C        -23.6950   17.9630   -5.7820 C.2   205  GLU205      0.2616
    116  O        -24.2190   17.2810   -6.6660 O.2   205  GLU205     -0.2715
    117  CB       -22.2240   16.9370   -4.0360 C.3   205  GLU205      0.0429
    118  CG       -22.1010   16.2800   -2.6690 C.3   205  GLU205      0.1163
    119  CD       -22.4040   17.2350   -1.5260 C.2   205  GLU205      0.3649
    120  OE1      -22.1530   18.4490   -1.6720 O.co2 205  GLU205     -0.2457
    121  OE2      -22.8940   16.7700   -0.4760 O.co2 205  GLU205     -0.2457
    122  N        -23.1730   19.1680   -6.0080 N.am  206  ASP206     -0.1971
    123  CA       -23.0580   19.6880   -7.3630 C.3   206  ASP206      0.1709
    124  C        -22.2190   18.7460   -8.2160 C.2   206  ASP206      0.2293
    125  O        -21.2220   18.1840   -7.7510 O.2   206  ASP206     -0.2864
    126  CB       -22.4360   21.0850   -7.3460 C.3   206  ASP206      0.1436
    127  CG       -23.3370   22.1170   -6.6940 C.2   206  ASP206      0.3671
    128  OD1      -24.5020   21.7860   -6.3880 O.co2 206  ASP206     -0.2456
    129  OD2      -22.8790   23.2600   -6.4870 O.co2 206  ASP206     -0.2456
    130  N        -18.2530   13.4630   -1.6760 N.3   211  SER211     -0.1217
    131  CA       -17.9160   14.3610   -0.5840 C.3   211  SER211      0.1889
    132  C        -17.3160   13.5420    0.5470 C.2   211  SER211      0.2288
    133  O        -17.6800   12.3830    0.7580 O.2   211  SER211     -0.2866
    134  CB       -19.1330   15.1510   -0.0790 C.3   211  SER211      0.2089
    135  OG       -19.8280   14.4450    0.9330 O.3   211  SER211     -0.2183
    136  N        -16.2550   13.9730    4.7740 N.3   213  ASN213     -0.1240
    137  CA       -16.6410   14.7720    5.9270 C.3   213  ASN213      0.1653
    138  C        -15.9020   14.2640    7.1530 C.2   213  ASN213      0.2266
    139  O        -15.8870   13.0570    7.4130 O.2   213  ASN213     -0.2867
    140  CB       -18.1550   14.7010    6.1520 C.3   213  ASN213      0.1155
    141  CG       -18.9490   15.0320    4.9020 C.2   213  ASN213      0.2627
    142  OD1      -19.4890   16.1270    4.7690 O.2   213  ASN213     -0.2716
    143  ND2      -19.0340   14.0760    3.9820 N.am  213  ASN213     -0.0877
    144  N        -22.3830   13.4010   14.9880 N.3   221  LYS221     -0.1245
    145  CA       -23.2300   13.8990   13.9130 C.3   221  LYS221      0.1561
    146  C        -23.9640   12.7100   13.3080 C.2   221  LYS221      0.2260
    147  O        -23.3290   11.7710   12.8160 O.2   221  LYS221     -0.2867
    148  CB       -22.4010   14.6250   12.8530 C.3   221  LYS221      0.0271
    149  CG       -23.2080   15.1510   11.6800 C.3   221  LYS221      0.0035
    150  CD       -22.2970   15.7100   10.5980 C.3   221  LYS221      0.0206
    151  CE       -21.5110   16.9100   11.0930 C.3   221  LYS221      0.1093
    152  NZ       -22.3790   18.1070   11.2490 N.3   221  LYS221     -0.1314
    153  N        -26.1510   10.7600   10.6280 N.3   223  TRP223     -0.1241
    154  CA       -26.2800   10.8010    9.1800 C.3   223  TRP223      0.1605
    155  C        -27.3980    9.8830    8.7050 C.2   223  TRP223      0.2264
    156  O        -27.7250    8.8850    9.3520 O.2   223  TRP223     -0.2867
    157  CB       -24.9770   10.3750    8.4970 C.3   223  TRP223      0.0550
    158  CG       -23.8650   11.3630    8.5880 C.ar  223  TRP223      0.0003
    159  CD1      -23.1220   11.6620    9.6900 C.ar  223  TRP223      0.0946
    160  CD2      -23.3440   12.1650    7.5220 C.ar  223  TRP223      0.0152
    161  NE1      -22.1790   12.6110    9.3810 N.ar  223  TRP223     -0.2442
    162  CE2      -22.2940   12.9360    8.0550 C.ar  223  TRP223      0.0810
    163  CE3      -23.6690   12.3090    6.1700 C.ar  223  TRP223      0.0012
    164  CZ2      -21.5660   13.8390    7.2840 C.ar  223  TRP223      0.0191
    165  CZ3      -22.9460   13.2050    5.4060 C.ar  223  TRP223      0.0001
    166  CH2      -21.9080   13.9590    5.9640 C.ar  223  TRP223      0.0015
    167  N        -31.8030   22.5410   -7.1180 N.3   252  LEU252     -0.1245
    168  CA       -30.8240   23.2940   -6.3380 C.3   252  LEU252      0.1561
    169  C        -31.5010   24.1690   -5.2890 C.2   252  LEU252      0.2260
    170  O        -30.9910   24.3220   -4.1730 O.2   252  LEU252     -0.2867
    171  CB       -29.9540   24.1420   -7.2670 C.3   252  LEU252      0.0270
    172  CG       -28.9590   23.3840   -8.1460 C.3   252  LEU252      0.0019
    173  CD1      -28.3020   24.3660   -9.0880 C.3   252  LEU252      0.0001
    174  CD2      -27.8960   22.6940   -7.3320 C.3   252  LEU252      0.0001
    175  N        -33.5450   21.7150   -2.7400 N.3   255  GLN255     -0.1231
    176  CA       -32.6550   21.0680   -1.7800 C.3   255  GLN255      0.1698
    177  C        -32.3830   21.9160   -0.5440 C.2   255  GLN255      0.2592
    178  O        -31.8870   21.3840    0.4530 O.2   255  GLN255     -0.2718
    179  CB       -31.3180   20.7230   -2.4370 C.3   255  GLN255      0.0381
    180  CG       -31.2950   19.4210   -3.2090 C.3   255  GLN255      0.0905
    181  CD       -29.9270   19.1390   -3.7970 C.2   255  GLN255      0.2608
    182  OE1      -29.6160   18.0080   -4.1600 O.2   255  GLN255     -0.2717
    183  NE2      -29.0990   20.1750   -3.8910 N.am  255  GLN255     -0.0878
    184  N        -32.6670   23.2190   -0.5870 N.am  256  LEU256     -0.1980
    185  CA       -32.4240   24.0530    0.5840 C.3   256  LEU256      0.1596
    186  C        -33.4050   23.7710    1.7150 C.2   256  LEU256      0.2287
    187  O        -33.0780   24.0330    2.8770 O.2   256  LEU256     -0.2864
    188  CB       -32.4940   25.5350    0.2050 C.3   256  LEU256      0.0297
    189  CG       -31.5200   26.0380   -0.8610 C.3   256  LEU256      0.0022
    190  CD1      -31.7730   27.5070   -1.1670 C.3   256  LEU256      0.0001
    191  CD2      -30.0790   25.8210   -0.4240 C.3   256  LEU256      0.0001
    192  N        -28.1980   12.5730    1.0020 N.3   291  HIS291     -0.1241
    193  CA       -27.8890   12.4320    2.4140 C.3   291  HIS291      0.1621
    194  C        -28.4480   13.6120    3.1960 C.2   291  HIS291      0.2264
    195  O        -28.6440   14.7090    2.6680 O.2   291  HIS291     -0.2867
    196  CB       -26.3760   12.2890    2.6590 C.3   291  HIS291      0.0745
    197  CG       -25.5480   13.3490    2.0030 C.ar  291  HIS291      0.0817
    198  ND1      -25.2620   13.3400    0.6550 N.ar  291  HIS291     -0.2268
    199  CD2      -24.9270   14.4390    2.5130 C.ar  291  HIS291      0.1154
    200  CE1      -24.5090   14.3840    0.3600 C.ar  291  HIS291      0.1986
    201  NE2      -24.2910   15.0670    1.4700 N.ar  291  HIS291     -0.2212
    202  N        -17.2760   20.1900   12.4130 N.3   301  ALA301     -0.1245
    203  CA       -17.0650   19.3170   11.2690 C.3   301  ALA301      0.1562
    204  C        -16.4660   20.1010   10.1100 C.2   301  ALA301      0.2260
    205  O        -16.5770   21.3270   10.0340 O.2   301  ALA301     -0.2867
    206  CB       -18.3700   18.6460   10.8250 C.3   301  ALA301      0.0290
    207  N        -15.9110   19.6340    5.6930 N.3   303  ALA303     -0.1245
    208  CA       -16.4000   18.8850    4.5460 C.3   303  ALA303      0.1562
    209  C        -15.9080   19.5160    3.2540 C.2   303  ALA303      0.2260
    210  O        -15.7160   20.7300    3.1710 O.2   303  ALA303     -0.2867
    211  CB       -17.9330   18.8240    4.5300 C.3   303  ALA303      0.0290
    212  N        -16.0690   18.5680   -1.3120 N.3   305  ASN305     -0.1240
    213  CA       -16.3180   17.6890   -2.4440 C.3   305  ASN305      0.1653
    214  C        -14.9980   17.3650   -3.1290 C.2   305  ASN305      0.2266
    215  O        -14.1150   18.2210   -3.2320 O.2   305  ASN305     -0.2867
    216  CB       -17.2750   18.3380   -3.4480 C.3   305  ASN305      0.1155
    217  CG       -18.6450   18.6160   -2.8590 C.2   305  ASN305      0.2627
    218  OD1      -18.9930   18.1060   -1.7950 O.2   305  ASN305     -0.2716
    219  ND2      -19.4360   19.4230   -3.5580 N.am  305  ASN305     -0.0877
@<TRIPOS>BOND
     1   173   172    1
     2   124   125    2
     3   124   123    1
     4   172   174    1
     5   172   171    1
     6   123   126    1
     7   123   122    1
     8   126   127    1
     9   171   168    1
    10   167   168    1
    11   112   110    1
    12   127   129   ar
    13   127   128   ar
    14   116   115    2
    15   168   169    1
    16   122   115   am
    17   115   114    1
    18   110   109    1
    19   169   170    2
    20   109   111    1
    21   109   106    1
    22   114   113    1
    23   114   117    1
    24   182   181    2
    25   113   107   am
    26   117   118    1
    27   183   181   am
    28   108   107    2
    29   107   106    1
    30   181   180    1
    31   219   217   am
    32   106   105    1
    33   216   217    1
    34   216   213    1
    35   215   214    2
    36   180   179    1
    37   214   213    1
    38   105    97   am
    39   217   218    2
    40   175   176    1
    41   118   119    1
    42   213   212    1
    43   179   176    1
    44   176   177    1
    45   130   131    1
    46   120   119   ar
    47    97    96    1
    48    97    98    2
    49   119   121   ar
    50   190   189    1
    51    96    99    1
    52    96    95    1
    53   189   191    1
    54   189   188    1
    55    99   100    1
    56   184   177   am
    57   184   185    1
    58   131   134    1
    59   131   132    1
    60   177   178    2
    61   134   135    1
    62   102   100   ar
    63   102   104   ar
    64    57    55   ar
    65    57    59   ar
    66   188   185    1
    67   100   101   ar
    68    54    55   ar
    69    54    52   ar
    70   200   198   ar
    71   200   201   ar
    72   132   133    2
    73   185   186    1
    74   198   197   ar
    75    55    53   ar
    76    59    58   ar
    77   192   193    1
    78   104   103   ar
    79    52    51   ar
    80   201   199   ar
    81   101   103   ar
    82   186   187    2
    83   197   199   ar
    84   197   196    1
    85    53    51   ar
    86    53    56   ar
    87    58    56   ar
    88   193   196    1
    89   193   194    1
    90    51    50    1
    91   195   194    2
    92    92    91    2
    93   210   209    2
    94   209   208    1
    95    94    93    1
    96    91    90    1
    97    45    43   ar
    98    46    47    1
    99    50    47    1
   100   143   141   am
   101    43    44   ar
   102    43    42    1
   103    71    70    1
   104    93    90    1
   105    42    39    1
   106   211   208    1
   107   208   207    1
   108    47    48    1
   109    90    89    1
   110   142   141    2
   111   136   137    1
   112   141   140    1
   113    41    40    2
   114    89    80   am
   115   165   166   ar
   116   165   163   ar
   117    11     9    1
   118    39    40    1
   119    39    38    1
   120    10     9    1
   121    70    69   ar
   122    70    68   ar
   123    85    87   ar
   124    85    83   ar
   125   137   140    1
   126   137   138    1
   127   166   164   ar
   128    48    49    2
   129     9     8    2
   130    69    67   ar
   131   163   160   ar
   132    87    88   ar
   133    80    81    2
   134    80    79    1
   135    82    83    1
   136    82    79    1
   137    68    66   ar
   138    38    35   am
   139    83    84   ar
   140    79    78    1
   141   138   139    2
   142   164   162   ar
   143     8     7    1
   144    88    86   ar
   145    67    65   ar
   146    36    35    2
   147   160   162   ar
   148   160   158   ar
   149    35    34    1
   150    66    65   ar
   151   162   161   ar
   152    84    86   ar
   153     7     6    1
   154    37    34    1
   155    65    64    1
   156    78    74   am
   157   157   158    1
   158   157   154    1
   159   158   159   ar
   160   155   154    1
   161   155   156    2
   162    34    33    1
   163    75    74    2
   164   154   153    1
   165    74    73    1
   166   161   159   ar
   167     5     6    1
   168     5     2    1
   169    20    18   am
   170    60    61    1
   171    64    61    1
   172   205   204    2
   173   204   203    1
   174    30    28   ar
   175    30    31   ar
   176    61    62    1
   177    32    31    1
   178    77    76    1
   179    28    26   ar
   180   150   151    1
   181   150   149    1
   182    73    76    1
   183    73    72    1
   184     2     1    1
   185     2     3    1
   186   206   203    1
   187    31    29   ar
   188    18    17    1
   189    18    19    2
   190    17    16    1
   191   151   152    1
   192   203   202    1
   193    24    23    2
   194    26    25    1
   195    26    27   ar
   196   149   148    1
   197     3     4    2
   198    29    27   ar
   199    62    63    2
   200    16    13    1
   201    25    22    1
   202    13    12    1
   203    13    14    1
   204    23    22    1
   205   147   146    2
   206   148   145    1
   207    14    15    2
   208    22    21    1
   209   146   145    1
   210   145   144    1
