@<TRIPOS>MOLECULE
tmp/6bgzA00.pdb
 165 156 0 0 0
SMALL
GASTEIGER

@<TRIPOS>ATOM
      1  N        -26.8530   30.5420   11.4310 N.3    63  ARG63      -0.1245
      2  CA       -28.1940   30.6570   10.8790 C.3    63  ARG63       0.1563
      3  C        -29.2130   30.0860   11.8570 C.2    63  ARG63       0.2260
      4  O        -28.9270   29.1530   12.6130 O.2    63  ARG63      -0.2867
      5  CB       -28.2960   29.9350    9.5350 C.3    63  ARG63       0.0307
      6  CG       -28.1800   28.4260    9.6310 C.3    63  ARG63       0.0489
      7  CD       -28.4480   27.7660    8.2920 C.3    63  ARG63       0.2205
      8  NE       -27.4220   28.0900    7.3080 N.pl3  63  ARG63      -0.0865
      9  CZ       -27.4380   27.6670    6.0490 C.cat  63  ARG63       0.5346
     10  NH1      -28.4310   26.9030    5.6130 N.pl3  63  ARG63       0.1354
     11  NH2      -26.4610   28.0090    5.2220 N.pl3  63  ARG63       0.1354
     12  N        -32.6130   28.0770   12.7150 N.3    65  GLN65      -0.1245
     13  CA       -33.3260   26.9420   12.1380 C.3    65  GLN65       0.1566
     14  C        -34.5680   26.6450   12.9650 C.2    65  GLN65       0.2260
     15  O        -34.4610   26.2990   14.1460 O.2    65  GLN65      -0.2867
     16  CB       -32.4270   25.7040   12.0670 C.3    65  GLN65       0.0367
     17  CG       -31.2330   25.8560   11.1410 C.3    65  GLN65       0.0905
     18  CD       -30.4940   24.5490   10.9220 C.2    65  GLN65       0.2608
     19  OE1      -30.3000   23.7650   11.8520 O.2    65  GLN65      -0.2717
     20  NE2      -30.0800   24.3080    9.6830 N.am   65  GLN65      -0.0878
     21  N        -27.1910   27.0980   13.7840 N.3   126  TYR126     -0.1241
     22  CA       -26.2010   26.2440   13.1350 C.3   126  TYR126      0.1605
     23  C        -25.1300   27.1220   12.5090 C.2   126  TYR126      0.2264
     24  O        -25.4360   27.9630   11.6600 O.2   126  TYR126     -0.2867
     25  CB       -26.8570   25.3610   12.0660 C.3   126  TYR126      0.0534
     26  CG       -26.0630   24.1340   11.6630 C.ar  126  TYR126     -0.0201
     27  CD1      -24.9010   23.7720   12.3360 C.ar  126  TYR126     -0.0009
     28  CD2      -26.4790   23.3370   10.6050 C.ar  126  TYR126     -0.0009
     29  CE1      -24.1800   22.6490   11.9650 C.ar  126  TYR126      0.0417
     30  CE2      -25.7640   22.2130   10.2260 C.ar  126  TYR126      0.0417
     31  CZ       -24.6160   21.8740   10.9100 C.ar  126  TYR126      0.1957
     32  OH       -23.9040   20.7550   10.5370 O.3   126  TYR126     -0.2866
     33  N        -23.0650   27.1830    9.9150 N.3   128  ALA128     -0.1245
     34  CA       -22.9450   26.3800    8.7070 C.3   128  ALA128      0.1562
     35  C        -22.3050   27.1050    7.5320 C.2   128  ALA128      0.2260
     36  O        -21.9090   26.4410    6.5680 O.2   128  ALA128     -0.2867
     37  CB       -24.3290   25.8620    8.2840 C.3   128  ALA128      0.0290
     38  N        -18.5000   23.3270    9.9160 N.3   177  TYR177     -0.1241
     39  CA       -19.8360   23.2860   10.4990 C.3   177  TYR177      0.1605
     40  C        -19.7150   23.1900   12.0110 C.2   177  TYR177      0.2264
     41  O        -19.1970   22.1970   12.5290 O.2   177  TYR177     -0.2867
     42  CB       -20.6390   22.1040    9.9510 C.3   177  TYR177      0.0534
     43  CG       -20.9170   22.2060    8.4730 C.ar  177  TYR177     -0.0201
     44  CD1      -22.0310   22.8900    8.0050 C.ar  177  TYR177     -0.0009
     45  CD2      -20.0620   21.6310    7.5440 C.ar  177  TYR177     -0.0009
     46  CE1      -22.2900   22.9930    6.6580 C.ar  177  TYR177      0.0417
     47  CE2      -20.3140   21.7300    6.1880 C.ar  177  TYR177      0.0417
     48  CZ       -21.4310   22.4130    5.7540 C.ar  177  TYR177      0.1957
     49  OH       -21.6970   22.5210    4.4090 O.3   177  TYR177     -0.2866
     50  N        -29.3570   20.8970   11.8210 N.3   184  SER184     -0.1202
     51  CA       -29.5760   19.8450   10.8370 C.3   184  SER184      0.2020
     52  C        -29.2900   20.3400    9.4270 C.2   184  SER184      0.2619
     53  O        -29.1740   21.5420    9.1670 O.2   184  SER184     -0.2717
     54  CB       -31.0100   19.3080   10.9240 C.3   184  SER184      0.2103
     55  OG       -31.9510   20.3120   10.5830 O.3   184  SER184     -0.2182
     56  N        -29.1800   19.3760    8.5130 N.am  185  PHE185     -0.1961
     57  CA       -29.0950   19.6270    7.0800 C.3   185  PHE185      0.1771
     58  C        -30.0590   18.6820    6.3760 C.2   185  PHE185      0.2619
     59  O        -30.0990   17.4890    6.6910 O.2   185  PHE185     -0.2715
     60  CB       -27.6580   19.4520    6.5540 C.3   185  PHE185      0.0574
     61  CG       -27.0260   18.1200    6.8850 C.ar  185  PHE185     -0.0200
     62  CD1      -26.5070   17.8740    8.1480 C.ar  185  PHE185     -0.0042
     63  CD2      -26.9140   17.1300    5.9210 C.ar  185  PHE185     -0.0042
     64  CE1      -25.9150   16.6590    8.4500 C.ar  185  PHE185     -0.0003
     65  CE2      -26.3170   15.9140    6.2180 C.ar  185  PHE185     -0.0003
     66  CZ       -25.8220   15.6780    7.4820 C.ar  185  PHE185     -0.0000
     67  N        -30.8450   19.2160    5.4430 N.am  186  CYS186     -0.1968
     68  CA       -31.9110   18.4450    4.8230 C.3   186  CYS186      0.1712
     69  C        -31.3890   17.6540    3.6230 C.2   186  CYS186      0.2296
     70  O        -30.2100   17.7170    3.2640 O.2   186  CYS186     -0.2864
     71  CB       -33.0690   19.3560    4.4200 C.3   186  CYS186      0.0983
     72  SG       -32.6250   20.6990    3.3060 S.3   186  CYS186     -0.0798
     73  N        -30.2150   16.2720    0.2280 N.3   188  HIS188     -0.1241
     74  CA       -29.6030   16.8920   -0.9370 C.3   188  HIS188      0.1621
     75  C        -28.5620   15.9490   -1.5190 C.2   188  HIS188      0.2264
     76  O        -28.1150   15.0010   -0.8670 O.2   188  HIS188     -0.2867
     77  CB       -28.9490   18.2280   -0.5800 C.3   188  HIS188      0.0745
     78  CG       -27.7330   18.0810    0.2810 C.ar  188  HIS188      0.0817
     79  ND1      -27.8070   17.8710    1.6400 N.ar  188  HIS188     -0.2268
     80  CD2      -26.4150   18.0850   -0.0280 C.ar  188  HIS188      0.1154
     81  CE1      -26.5870   17.7640    2.1350 C.ar  188  HIS188      0.1986
     82  NE2      -25.7240   17.8910    1.1440 N.ar  188  HIS188     -0.2212
     83  N        -24.8280   16.4380   -4.0840 N.3   190  GLU190     -0.1245
     84  CA       -23.8010   17.4350   -4.3420 C.3   190  GLU190      0.1567
     85  C        -23.8780   17.9370   -5.7800 C.2   190  GLU190      0.2260
     86  O        -24.3970   17.2650   -6.6750 O.2   190  GLU190     -0.2867
     87  CB       -22.4100   16.8630   -4.0680 C.3   190  GLU190      0.0388
     88  CG       -22.2320   16.2850   -2.6730 C.3   190  GLU190      0.1160
     89  CD       -22.6040   17.2680   -1.5820 C.2   190  GLU190      0.3649
     90  OE1      -23.3080   16.8650   -0.6350 O.co2 190  GLU190     -0.2457
     91  OE2      -22.1990   18.4450   -1.6730 O.co2 190  GLU190     -0.2457
     92  N        -18.4360   13.3460   -1.5470 N.3   196  SER196     -0.1217
     93  CA       -18.0980   14.2460   -0.4570 C.3   196  SER196      0.1889
     94  C        -17.4890   13.4320    0.6720 C.2   196  SER196      0.2288
     95  O        -17.8500   12.2720    0.8890 O.2   196  SER196     -0.2866
     96  CB       -19.3150   15.0350    0.0510 C.3   196  SER196      0.2089
     97  OG       -20.0240   14.3130    1.0430 O.3   196  SER196     -0.2183
     98  N        -16.3710   13.8790    4.8820 N.3   198  ASN198     -0.1240
     99  CA       -16.7380   14.6730    6.0460 C.3   198  ASN198      0.1653
    100  C        -15.9840   14.1440    7.2530 C.2   198  ASN198      0.2266
    101  O        -15.9570   12.9320    7.4840 O.2   198  ASN198     -0.2867
    102  CB       -18.2500   14.6070    6.2950 C.3   198  ASN198      0.1155
    103  CG       -19.0610   14.9660    5.0650 C.2   198  ASN198      0.2627
    104  OD1      -19.5910   16.0710    4.9610 O.2   198  ASN198     -0.2716
    105  ND2      -19.1590   14.0320    4.1240 N.am  198  ASN198     -0.0877
    106  N        -22.5110   13.3650   15.0230 N.3   206  LYS206     -0.1245
    107  CA       -23.3580   13.8610   13.9470 C.3   206  LYS206      0.1561
    108  C        -24.0970   12.6650   13.3620 C.2   206  LYS206      0.2260
    109  O        -23.4660   11.7090   12.8990 O.2   206  LYS206     -0.2867
    110  CB       -22.5230   14.5740   12.8820 C.3   206  LYS206      0.0271
    111  CG       -23.3240   15.1550   11.7200 C.3   206  LYS206      0.0035
    112  CD       -22.4090   15.6920   10.6180 C.3   206  LYS206      0.0206
    113  CE       -21.5700   16.8780   11.0830 C.3   206  LYS206      0.1093
    114  NZ       -22.3680   18.1240   11.2780 N.3   206  LYS206     -0.1314
    115  N        -26.3540   10.7210   10.6860 N.3   208  TRP208     -0.1241
    116  CA       -26.4800   10.7730    9.2370 C.3   208  TRP208      0.1605
    117  C        -27.5950    9.8600    8.7510 C.2   208  TRP208      0.2264
    118  O        -27.9170    8.8490    9.3810 O.2   208  TRP208     -0.2867
    119  CB       -25.1830   10.3460    8.5400 C.3   208  TRP208      0.0550
    120  CG       -24.0600   11.3170    8.6430 C.ar  208  TRP208      0.0003
    121  CD1      -23.2930   11.5670    9.7390 C.ar  208  TRP208      0.0946
    122  CD2      -23.5550   12.1560    7.5970 C.ar  208  TRP208      0.0152
    123  NE1      -22.3470   12.5180    9.4490 N.ar  208  TRP208     -0.2442
    124  CE2      -22.4870   12.8960    8.1390 C.ar  208  TRP208      0.0810
    125  CE3      -23.9060   12.3560    6.2590 C.ar  208  TRP208      0.0012
    126  CZ2      -21.7650   13.8220    7.3900 C.ar  208  TRP208      0.0191
    127  CZ3      -23.1890   13.2770    5.5150 C.ar  208  TRP208      0.0001
    128  CH2      -22.1310   13.9980    6.0820 C.ar  208  TRP208      0.0015
    129  N        -34.0170   21.7760   -2.7410 N.3   240  GLN240     -0.1231
    130  CA       -33.1510   21.1360   -1.7580 C.3   240  GLN240      0.1698
    131  C        -32.7060   22.0820   -0.6490 C.2   240  GLN240      0.2592
    132  O        -31.9200   21.6720    0.2120 O.2   240  GLN240     -0.2718
    133  CB       -31.9370   20.5130   -2.4530 C.3   240  GLN240      0.0381
    134  CG       -32.2110   19.0990   -2.9640 C.3   240  GLN240      0.0905
    135  CD       -31.1580   18.5880   -3.9320 C.2   240  GLN240      0.2608
    136  OE1      -29.9580   18.7640   -3.7200 O.2   240  GLN240     -0.2717
    137  NE2      -31.6090   17.9470   -5.0040 N.am  240  GLN240     -0.0878
    138  N        -33.1810   23.3280   -0.6470 N.am  241  LEU241     -0.1980
    139  CA       -33.0430   24.1770    0.5280 C.3   241  LEU241      0.1596
    140  C        -34.0640   23.8330    1.6040 C.2   241  LEU241      0.2287
    141  O        -33.8730   24.2140    2.7640 O.2   241  LEU241     -0.2864
    142  CB       -33.1860   25.6520    0.1390 C.3   241  LEU241      0.0297
    143  CG       -32.1530   26.2460   -0.8230 C.3   241  LEU241      0.0022
    144  CD1      -32.5560   27.6560   -1.2320 C.3   241  LEU241      0.0001
    145  CD2      -30.7670   26.2490   -0.1980 C.3   241  LEU241      0.0001
    146  N        -28.3970   12.5760    1.0770 N.3   276  HIS276     -0.1241
    147  CA       -28.0810   12.4560    2.4900 C.3   276  HIS276      0.1621
    148  C        -28.6580   13.6350    3.2610 C.2   276  HIS276      0.2264
    149  O        -28.9080   14.7120    2.7120 O.2   276  HIS276     -0.2867
    150  CB       -26.5680   12.3330    2.7240 C.3   276  HIS276      0.0745
    151  CG       -25.7600   13.4130    2.0770 C.ar  276  HIS276      0.0817
    152  ND1      -25.4570   13.4130    0.7320 N.ar  276  HIS276     -0.2268
    153  CD2      -25.1780   14.5220    2.5930 C.ar  276  HIS276      0.1154
    154  CE1      -24.7310   14.4790    0.4460 C.ar  276  HIS276      0.1986
    155  NE2      -24.5460   15.1680    1.5580 N.ar  276  HIS276     -0.2212
    156  N        -17.2930   20.0960   12.5030 N.3   286  ALA286     -0.1245
    157  CA       -17.0870   19.2320   11.3510 C.3   286  ALA286      0.1562
    158  C        -16.4630   20.0090   10.1990 C.2   286  ALA286      0.2260
    159  O        -16.5610   21.2370   10.1180 O.2   286  ALA286     -0.2867
    160  CB       -18.4040   18.5950   10.8900 C.3   286  ALA286      0.0290
    161  N        -15.9030   19.5260    5.8020 N.3   288  ALA288     -0.1245
    162  CA       -16.3960   18.7730    4.6580 C.3   288  ALA288      0.1562
    163  C        -15.8830   19.3840    3.3640 C.2   288  ALA288      0.2260
    164  O        -15.6590   20.5940    3.2750 O.2   288  ALA288     -0.2867
    165  CB       -17.9290   18.7290    4.6330 C.3   288  ALA288      0.0290
@<TRIPOS>BOND
     1    86    85    2
     2    85    84    1
     3   137   135   am
     4    84    83    1
     5    84    87    1
     6    87    88    1
     7   135   136    2
     8   135   134    1
     9   134   133    1
    10   129   130    1
    11    88    89    1
    12   133   130    1
    13   130   131    1
    14    91    89   ar
    15    89    90   ar
    16    92    93    1
    17    75    74    1
    18    75    76    2
    19   144   143    1
    20    74    77    1
    21    74    73    1
    22   143   145    1
    23   143   142    1
    24   131   138   am
    25   131   132    2
    26   138   139    1
    27    77    78    1
    28    93    96    1
    29    93    94    1
    30    80    78   ar
    31    80    82   ar
    32    96    97    1
    33   142   139    1
    34    78    79   ar
    35   154   152   ar
    36   154   155   ar
    37   139   140    1
    38    94    95    2
    39   152   151   ar
    40   146   147    1
    41    82    81   ar
    42   155   153   ar
    43   140   141    2
    44    79    81   ar
    45   151   153   ar
    46   151   150    1
    47   147   150    1
    48   147   148    1
    49   149   148    2
    50    70    69    2
    51   164   163    2
    52    72    71    1
    53   163   162    1
    54    69    68    1
    55   105   103   am
    56    49    48    1
    57    71    68    1
    58   165   162    1
    59   162   161    1
    60    68    67    1
    61    98    99    1
    62   104   103    2
    63   103   102    1
    64    11     9    1
    65    67    58   am
    66   127   128   ar
    67   127   125   ar
    68    10     9    1
    69    48    47   ar
    70    48    46   ar
    71    63    65   ar
    72    63    61   ar
    73    99   102    1
    74    99   100    1
    75     9     8    2
    76   128   126   ar
    77    47    45   ar
    78    65    66   ar
    79   125   122   ar
    80    58    59    2
    81    58    57    1
    82    60    61    1
    83    60    57    1
    84    36    35    2
    85    46    44   ar
    86    61    62   ar
    87    57    56    1
    88   100   101    2
    89     8     7    1
    90   126   124   ar
    91    66    64   ar
    92    35    34    1
    93    45    43   ar
    94   122   124   ar
    95   122   120   ar
    96    44    43   ar
    97   124   123   ar
    98    62    64   ar
    99    37    34    1
   100     7     6    1
   101    43    42    1
   102    56    52   am
   103   119   120    1
   104   119   116    1
   105   120   121   ar
   106    34    33    1
   107   117   116    1
   108   117   118    2
   109    53    52    2
   110   116   115    1
   111    52    51    1
   112   123   121   ar
   113     5     6    1
   114     5     2    1
   115    20    18   am
   116    38    39    1
   117    42    39    1
   118   159   158    2
   119   158   157    1
   120    30    28   ar
   121    30    31   ar
   122    39    40    1
   123    32    31    1
   124    55    54    1
   125    28    26   ar
   126   112   113    1
   127   112   111    1
   128    51    54    1
   129    51    50    1
   130     2     1    1
   131     2     3    1
   132   160   157    1
   133    31    29   ar
   134    18    17    1
   135    18    19    2
   136   113   114    1
   137    17    16    1
   138   157   156    1
   139    24    23    2
   140    26    25    1
   141    26    27   ar
   142   111   110    1
   143     3     4    2
   144    29    27   ar
   145    40    41    2
   146    25    22    1
   147    16    13    1
   148    13    12    1
   149    13    14    1
   150    23    22    1
   151   110   107    1
   152   109   108    2
   153    14    15    2
   154    22    21    1
   155   108   107    1
   156   107   106    1
