@<TRIPOS>MOLECULE
tmp/6bh4A00.pdb
 173 166 0 0 0
SMALL
GASTEIGER

@<TRIPOS>ATOM
      1  N        -26.9780   30.2440   12.1230 N.3    63  ARG63      -0.1245
      2  CA       -28.3030   30.5020   11.5830 C.3    63  ARG63       0.1563
      3  C        -29.3520   29.7460   12.3900 C.2    63  ARG63       0.2260
      4  O        -29.0680   28.7150   13.0040 O.2    63  ARG63      -0.2867
      5  CB       -28.3840   30.1110   10.1040 C.3    63  ARG63       0.0307
      6  CG       -28.4240   28.6210    9.8500 C.3    63  ARG63       0.0489
      7  CD       -28.3950   28.3270    8.3620 C.3    63  ARG63       0.2205
      8  NE       -27.0780   28.5810    7.7850 N.pl3  63  ARG63      -0.0865
      9  CZ       -26.7940   28.4690    6.4920 C.cat  63  ARG63       0.5346
     10  NH1      -27.7380   28.1130    5.6320 N.pl3  63  ARG63       0.1354
     11  NH2      -25.5670   28.7170    6.0580 N.pl3  63  ARG63       0.1354
     12  N        -32.7550   27.5590   12.9940 N.3    65  GLN65      -0.1245
     13  CA       -33.4620   26.4620   12.3450 C.3    65  GLN65       0.1566
     14  C        -34.6030   26.0070   13.2430 C.2    65  GLN65       0.2260
     15  O        -34.3780   25.6530   14.4040 O.2    65  GLN65      -0.2867
     16  CB       -32.5150   25.2960   12.0450 C.3    65  GLN65       0.0367
     17  CG       -33.1690   24.1430   11.3030 C.3    65  GLN65       0.0905
     18  CD       -32.2100   22.9980   11.0380 C.2    65  GLN65       0.2608
     19  OE1      -31.6220   22.4380   11.9640 O.2    65  GLN65      -0.2717
     20  NE2      -32.0450   22.6470    9.7670 N.am   65  GLN65      -0.0878
     21  N        -27.0010   26.5730   14.1710 N.3   129  TYR129     -0.1227
     22  CA       -25.8570   25.8030   13.7040 C.3   129  TYR129      0.1736
     23  C        -25.0050   26.6600   12.7810 C.2   129  TYR129      0.2596
     24  O        -25.4740   27.6430   12.2010 O.2   129  TYR129     -0.2718
     25  CB       -26.2920   24.5120   12.9970 C.3   129  TYR129      0.0548
     26  CG       -27.0980   24.7080   11.7320 C.ar  129  TYR129     -0.0200
     27  CD1      -26.4700   24.8440   10.5000 C.ar  129  TYR129     -0.0009
     28  CD2      -28.4860   24.7350   11.7650 C.ar  129  TYR129     -0.0009
     29  CE1      -27.1980   25.0120    9.3390 C.ar  129  TYR129      0.0417
     30  CE2      -29.2250   24.9040   10.6050 C.ar  129  TYR129      0.0417
     31  CZ       -28.5730   25.0410    9.3950 C.ar  129  TYR129      0.1957
     32  OH       -29.2920   25.2110    8.2340 O.3   129  TYR129     -0.2866
     33  N        -23.7380   26.2670   12.6560 N.am  130  GLY130     -0.1942
     34  CA       -22.8080   26.9290   11.7720 C.3   130  GLY130      0.2014
     35  C        -22.5850   26.1170   10.5130 C.2   130  GLY130      0.2639
     36  O        -22.0570   25.0030   10.5640 O.2   130  GLY130     -0.2714
     37  N        -22.9980   26.6800    9.3800 N.am  131  ALA131     -0.1963
     38  CA       -22.8050   26.0610    8.0770 C.3   131  ALA131      0.1728
     39  C        -22.4110   27.1400    7.0780 C.2   131  ALA131      0.2616
     40  O        -22.4660   28.3370    7.3730 O.2   131  ALA131     -0.2715
     41  CB       -24.0640   25.3180    7.6110 C.3   131  ALA131      0.0334
     42  N        -22.0240   26.7000    5.8780 N.am  132  ASP132     -0.1971
     43  CA       -21.4420   27.5810    4.8600 C.3   132  ASP132      0.1709
     44  C        -20.1790   28.2590    5.3860 C.2   132  ASP132      0.2293
     45  O        -19.8990   29.4190    5.0770 O.2   132  ASP132     -0.2864
     46  CB       -22.4500   28.6230    4.3640 C.3   132  ASP132      0.1436
     47  CG       -23.5080   28.0310    3.4530 C.2   132  ASP132      0.3671
     48  OD1      -23.2240   27.0130    2.7860 O.co2 132  ASP132     -0.2456
     49  OD2      -24.6250   28.5900    3.3960 O.co2 132  ASP132     -0.2456
     50  N        -18.5800   22.5160    9.6620 N.3   180  TYR180     -0.1227
     51  CA       -19.9220   22.3810   10.2170 C.3   180  TYR180      0.1736
     52  C        -19.8270   22.4010   11.7350 C.2   180  TYR180      0.2595
     53  O        -19.1560   21.5490   12.3250 O.2   180  TYR180     -0.2718
     54  CB       -20.5930   21.0880    9.7420 C.3   180  TYR180      0.0548
     55  CG       -20.7780   21.0000    8.2440 C.ar  180  TYR180     -0.0200
     56  CD1      -21.8000   21.6940    7.6100 C.ar  180  TYR180     -0.0009
     57  CD2      -19.9380   20.2170    7.4650 C.ar  180  TYR180     -0.0009
     58  CE1      -21.9770   21.6170    6.2420 C.ar  180  TYR180      0.0417
     59  CE2      -20.1070   20.1310    6.0950 C.ar  180  TYR180      0.0417
     60  CZ       -21.1280   20.8340    5.4890 C.ar  180  TYR180      0.1957
     61  OH       -21.3030   20.7570    4.1260 O.3   180  TYR180     -0.2866
     62  N        -20.4950   23.3640   12.3620 N.am  181  VAL181     -0.1980
     63  CA       -20.5650   23.4610   13.8160 C.3   181  VAL181      0.1595
     64  C        -21.9950   23.1340   14.2180 C.2   181  VAL181      0.2287
     65  O        -22.9090   23.9380   14.0040 O.2   181  VAL181     -0.2864
     66  CB       -20.1480   24.8500   14.3190 C.3   181  VAL181      0.0276
     67  CG1      -20.1490   24.8880   15.8370 C.3   181  VAL181      0.0022
     68  CG2      -18.7780   25.2270   13.7680 C.3   181  VAL181      0.0022
     69  N        -29.7490   20.1550   15.3180 N.3   186  SER186     -0.1202
     70  CA       -29.3740   20.8150   14.0720 C.3   186  SER186      0.2020
     71  C        -29.2370   19.7740   12.9680 C.2   186  SER186      0.2619
     72  O        -28.6060   18.7310   13.1600 O.2   186  SER186     -0.2717
     73  CB       -28.0670   21.5930   14.2480 C.3   186  SER186      0.2103
     74  OG       -26.9820   20.7280   14.5300 O.3   186  SER186     -0.2182
     75  N        -29.8400   20.0500   11.8130 N.am  187  SER187     -0.1937
     76  CA       -30.0480   18.9990   10.8280 C.3   187  SER187      0.2055
     77  C        -29.8680   19.5290    9.4120 C.2   187  SER187      0.2643
     78  O        -29.8920   20.7380    9.1630 O.2   187  SER187     -0.2714
     79  CB       -31.4430   18.3820   10.9740 C.3   187  SER187      0.2130
     80  OG       -32.4440   19.3790   10.8750 O.3   187  SER187     -0.2179
     81  N        -29.6990   18.5870    8.4830 N.am  188  PHE188     -0.1973
     82  CA       -29.6330   18.8540    7.0540 C.3   188  PHE188      0.1639
     83  C        -30.5390   17.8660    6.3350 C.2   188  PHE188      0.2290
     84  O        -30.5720   16.6810    6.6790 O.2   188  PHE188     -0.2864
     85  CB       -28.1910   18.7590    6.5170 C.3   188  PHE188      0.0560
     86  CG       -27.4750   17.4830    6.8830 C.ar  188  PHE188     -0.0200
     87  CD1      -26.9540   17.2990    8.1570 C.ar  188  PHE188     -0.0042
     88  CD2      -27.2960   16.4780    5.9440 C.ar  188  PHE188     -0.0042
     89  CE1      -26.2900   16.1310    8.4910 C.ar  188  PHE188     -0.0003
     90  CE2      -26.6270   15.3090    6.2720 C.ar  188  PHE188     -0.0003
     91  CZ       -26.1270   15.1350    7.5460 C.ar  188  PHE188     -0.0000
     92  N        -30.4090   15.3990    0.1770 N.3   191  HIS191     -0.1241
     93  CA       -29.7610   16.0590   -0.9450 C.3   191  HIS191      0.1621
     94  C        -28.7130   15.1250   -1.5270 C.2   191  HIS191      0.2264
     95  O        -28.2950   14.1540   -0.8910 O.2   191  HIS191     -0.2867
     96  CB       -29.1120   17.3830   -0.5240 C.3   191  HIS191      0.0745
     97  CG       -27.8800   17.2100    0.3100 C.ar  191  HIS191      0.0817
     98  ND1      -27.9260   16.9700    1.6660 N.ar  191  HIS191     -0.2268
     99  CD2      -26.5670   17.2360   -0.0230 C.ar  191  HIS191      0.1154
    100  CE1      -26.6950   16.8590    2.1340 C.ar  191  HIS191      0.1986
    101  NE2      -25.8520   17.0160    1.1290 N.ar  191  HIS191     -0.2212
    102  N        -24.9050   15.5760   -3.9590 N.3   193  GLU193     -0.1245
    103  CA       -23.8670   16.5640   -4.2050 C.3   193  GLU193      0.1567
    104  C        -23.9380   17.0780   -5.6390 C.2   193  GLU193      0.2260
    105  O        -24.4820   16.4260   -6.5350 O.2   193  GLU193     -0.2867
    106  CB       -22.4820   15.9750   -3.9340 C.3   193  GLU193      0.0388
    107  CG       -22.2970   15.4300   -2.5260 C.3   193  GLU193      0.1160
    108  CD       -22.7590   16.4040   -1.4600 C.2   193  GLU193      0.3649
    109  OE1      -23.5260   15.9910   -0.5640 O.co2 193  GLU193     -0.2457
    110  OE2      -22.3640   17.5870   -1.5210 O.co2 193  GLU193     -0.2457
    111  N        -18.5060   12.5230   -1.5390 N.3   199  SER199     -0.1217
    112  CA       -18.2660   13.4460   -0.4420 C.3   199  SER199      0.1889
    113  C        -17.7320   12.6500    0.7360 C.2   199  SER199      0.2288
    114  O        -18.1890   11.5340    0.9970 O.2   199  SER199     -0.2866
    115  CB       -19.5310   14.2100   -0.0390 C.3   199  SER199      0.2089
    116  OG       -20.2700   13.4980    0.9390 O.3   199  SER199     -0.2183
    117  N        -16.6250   13.1270    4.9440 N.3   201  ASN201     -0.1240
    118  CA       -16.8410   13.9710    6.1110 C.3   201  ASN201      0.1653
    119  C        -16.0610   13.3980    7.2830 C.2   201  ASN201      0.2266
    120  O        -16.1400   12.1970    7.5560 O.2   201  ASN201     -0.2867
    121  CB       -18.3340   14.0630    6.4600 C.3   201  ASN201      0.1155
    122  CG       -18.6130   14.9930    7.6360 C.2   201  ASN201      0.2627
    123  OD1      -18.2830   14.6850    8.7820 O.2   201  ASN201     -0.2716
    124  ND2      -19.2430   16.1280    7.3550 N.am  201  ASN201     -0.0877
    125  N        -22.7600   12.5020   15.0420 N.3   209  LYS209     -0.1245
    126  CA       -23.5760   13.0200   13.9520 C.3   209  LYS209      0.1561
    127  C        -24.3090   11.8430   13.3250 C.2   209  LYS209      0.2260
    128  O        -23.6730   10.9000   12.8410 O.2   209  LYS209     -0.2867
    129  CB       -22.7100   13.7420   12.9160 C.3   209  LYS209      0.0271
    130  CG       -23.4790   14.3360   11.7490 C.3   209  LYS209      0.0035
    131  CD       -22.5350   14.7810   10.6410 C.3   209  LYS209      0.0206
    132  CE       -21.5760   15.8670   11.1090 C.3   209  LYS209      0.1093
    133  NZ       -22.2760   17.1480   11.4060 N.3   209  LYS209     -0.1314
    134  N        -26.4540    9.9520   10.5770 N.3   211  TRP211     -0.1241
    135  CA       -26.6260    9.9950    9.1340 C.3   211  TRP211      0.1605
    136  C        -27.7440    9.0590    8.6940 C.2   211  TRP211      0.2264
    137  O        -28.0160    8.0410    9.3370 O.2   211  TRP211     -0.2867
    138  CB       -25.3370    9.5970    8.4050 C.3   211  TRP211      0.0550
    139  CG       -24.1920   10.5440    8.5770 C.ar  211  TRP211      0.0003
    140  CD1      -23.4500   10.7370    9.7070 C.ar  211  TRP211      0.0946
    141  CD2      -23.6340   11.4060    7.5780 C.ar  211  TRP211      0.0152
    142  NE1      -22.4740   11.6760    9.4770 N.ar  211  TRP211     -0.2442
    143  CE2      -22.5650   12.1020    8.1770 C.ar  211  TRP211      0.0810
    144  CE3      -23.9390   11.6630    6.2370 C.ar  211  TRP211      0.0012
    145  CZ2      -21.8000   13.0380    7.4830 C.ar  211  TRP211      0.0191
    146  CZ3      -23.1780   12.5900    5.5490 C.ar  211  TRP211      0.0001
    147  CH2      -22.1210   13.2660    6.1720 C.ar  211  TRP211      0.0015
    148  N        -33.4240   22.4410   -0.5180 N.3   244  LEU244     -0.1245
    149  CA       -33.3280   23.2750    0.6690 C.3   244  LEU244      0.1561
    150  C        -34.4500   23.0170    1.6660 C.2   244  LEU244      0.2260
    151  O        -34.3810   23.5160    2.7950 O.2   244  LEU244     -0.2867
    152  CB       -33.3210   24.7570    0.2750 C.3   244  LEU244      0.0270
    153  CG       -32.1480   25.2470   -0.5800 C.3   244  LEU244      0.0019
    154  CD1      -32.3810   26.6860   -1.0150 C.3   244  LEU244      0.0001
    155  CD2      -30.8330   25.1220    0.1770 C.3   244  LEU244      0.0001
    156  N        -28.6840   11.7420    1.0340 N.3   279  HIS279     -0.1241
    157  CA       -28.3850   11.6120    2.4520 C.3   279  HIS279      0.1621
    158  C        -28.8950   12.8260    3.2140 C.2   279  HIS279      0.2264
    159  O        -29.0800   13.9110    2.6560 O.2   279  HIS279     -0.2867
    160  CB       -26.8820   11.4120    2.7050 C.3   279  HIS279      0.0745
    161  CG       -26.0130   12.4810    2.1160 C.ar  279  HIS279      0.0817
    162  ND1      -25.6530   12.4970    0.7860 N.ar  279  HIS279     -0.2268
    163  CD2      -25.4120   13.5550    2.6820 C.ar  279  HIS279      0.1154
    164  CE1      -24.8770   13.5420    0.5550 C.ar  279  HIS279      0.1986
    165  NE2      -24.7150   14.2000    1.6890 N.ar  279  HIS279     -0.2212
    166  N        -27.3810   16.3630   14.2020 N.3   283  ASN283     -0.1240
    167  CA       -26.3100   16.2480   15.1800 C.3   283  ASN283      0.1653
    168  C        -26.8740   15.9140   16.5560 C.2   283  ASN283      0.2266
    169  O        -27.8910   16.4720   16.9790 O.2   283  ASN283     -0.2867
    170  CB       -25.4890   17.5380   15.2460 C.3   283  ASN283      0.1155
    171  CG       -24.7590   17.8270   13.9480 C.2   283  ASN283      0.2627
    172  OD1      -23.8310   17.1110   13.5720 O.2   283  ASN283     -0.2716
    173  ND2      -25.1720   18.8830   13.2580 N.am  283  ASN283     -0.0877
@<TRIPOS>BOND
     1   105   104    2
     2   104   103    1
     3   103   102    1
     4   103   106    1
     5   106   107    1
     6   107   108    1
     7   111   112    1
     8    94    93    1
     9    94    95    2
    10   110   108   ar
    11   108   109   ar
    12   154   153    1
    13    93    96    1
    14    93    92    1
    15   153   155    1
    16   153   152    1
    17    96    97    1
    18   148   149    1
    19   112   115    1
    20   112   113    1
    21   115   116    1
    22    99    97   ar
    23    99   101   ar
    24   152   149    1
    25    97    98   ar
    26   164   162   ar
    27   164   165   ar
    28   149   150    1
    29   113   114    2
    30   162   161   ar
    31   156   157    1
    32   101   100   ar
    33   150   151    2
    34    98   100   ar
    35   165   163   ar
    36   161   163   ar
    37   161   160    1
    38   157   160    1
    39   157   158    1
    40   159   158    2
    41    48    47   ar
    42    49    47   ar
    43    47    46    1
    44    61    60    1
    45    46    43    1
    46    43    44    1
    47    43    42    1
    48   117   118    1
    49    45    44    2
    50    60    59   ar
    51    60    58   ar
    52   146   147   ar
    53   146   144   ar
    54    10     9    1
    55    42    39   am
    56    88    90   ar
    57    88    86   ar
    58    11     9    1
    59    59    57   ar
    60   118   121    1
    61   118   119    1
    62   147   145   ar
    63   144   141   ar
    64    58    56   ar
    65    90    91   ar
    66    83    84    2
    67    83    82    1
    68   121   122    1
    69     9     8    2
    70    85    86    1
    71    85    82    1
    72    86    87   ar
    73    82    81    1
    74    39    40    2
    75    39    38    1
    76   119   120    2
    77   124   122   am
    78    57    55   ar
    79   145   143   ar
    80    91    89   ar
    81   141   143   ar
    82   141   139   ar
    83    56    55   ar
    84    41    38    1
    85   122   123    2
    86     8     7    1
    87    38    37    1
    88    87    89   ar
    89   143   142   ar
    90    32    31    1
    91    55    54    1
    92     7     6    1
    93   138   139    1
    94   138   135    1
    95    81    77   am
    96   139   140   ar
    97   136   135    1
    98   136   137    2
    99   135   134    1
   100    78    77    2
   101    29    31   ar
   102    29    27   ar
   103    37    35   am
   104    31    30   ar
   105    77    76    1
   106   142   140   ar
   107    50    51    1
   108    54    51    1
   109    20    18   am
   110     6     5    1
   111     5     2    1
   112    51    52    1
   113    27    26   ar
   114    35    36    2
   115    35    34    1
   116    30    28   ar
   117   131   132    1
   118   131   130    1
   119    76    79    1
   120    76    75    1
   121    80    79    1
   122    18    17    1
   123    18    19    2
   124   132   133    1
   125    17    16    1
   126     2     1    1
   127     2     3    1
   128    26    28   ar
   129    26    25    1
   130    52    53    2
   131    52    62   am
   132   130   129    1
   133    34    33    1
   134    75    71   am
   135    16    13    1
   136    24    23    2
   137    13    12    1
   138    13    14    1
   139    62    63    1
   140     3     4    2
   141    33    23   am
   142    23    22    1
   143   128   127    2
   144   129   126    1
   145    71    72    2
   146    71    70    1
   147    25    22    1
   148    14    15    2
   149   173   171   am
   150   127   126    1
   151   172   171    2
   152    22    21    1
   153    68    66    1
   154    63    64    1
   155    63    66    1
   156   171   170    1
   157   126   125    1
   158    65    64    2
   159    70    73    1
   160    70    69    1
   161   166   167    1
   162    73    74    1
   163    66    67    1
   164   167   170    1
   165   167   168    1
   166   168   169    2
