@<TRIPOS>MOLECULE
tmp/6bh5A00.pdb
 184 176 0 0 0
SMALL
GASTEIGER

@<TRIPOS>ATOM
      1  N        -26.9250   30.5360   11.4800 N.3    62  ARG62      -0.1245
      2  CA       -28.2530   30.6560   10.9000 C.3    62  ARG62       0.1563
      3  C        -29.3020   30.0980   11.8540 C.2    62  ARG62       0.2260
      4  O        -29.0500   29.1550   12.6090 O.2    62  ARG62      -0.2867
      5  CB       -28.3280   29.9280    9.5570 C.3    62  ARG62       0.0307
      6  CG       -28.2170   28.4150    9.6550 C.3    62  ARG62       0.0489
      7  CD       -28.4690   27.7530    8.3110 C.3    62  ARG62       0.2205
      8  NE       -27.4240   28.0590    7.3390 N.pl3  62  ARG62      -0.0865
      9  CZ       -27.4310   27.6350    6.0790 C.cat  62  ARG62       0.5346
     10  NH1      -28.4320   26.8890    5.6340 N.pl3  62  ARG62       0.1354
     11  NH2      -26.4380   27.9590    5.2630 N.pl3  62  ARG62       0.1354
     12  N        -32.6420   28.0820   12.6800 N.3    64  GLN64      -0.1245
     13  CA       -33.3150   26.9150   12.1190 C.3    64  GLN64       0.1566
     14  C        -34.5610   26.6020   12.9350 C.2    64  GLN64       0.2260
     15  O        -34.4620   26.2110   14.1020 O.2    64  GLN64      -0.2867
     16  CB       -32.3800   25.7050   12.0800 C.3    64  GLN64       0.0367
     17  CG       -31.2260   25.8450   11.1000 C.3    64  GLN64       0.0905
     18  CD       -30.4570   24.5530   10.9220 C.2    64  GLN64       0.2608
     19  OE1      -30.2420   23.8080   11.8770 O.2    64  GLN64      -0.2717
     20  NE2      -30.0500   24.2730    9.6900 N.am   64  GLN64      -0.0878
     21  N        -27.2490   27.1450   13.7780 N.3   124  TYR124     -0.1241
     22  CA       -26.2580   26.3040   13.1160 C.3   124  TYR124      0.1605
     23  C        -25.2020   27.1960   12.4840 C.2   124  TYR124      0.2264
     24  O        -25.5210   28.0190   11.6210 O.2   124  TYR124     -0.2867
     25  CB       -26.9150   25.4160   12.0530 C.3   124  TYR124      0.0534
     26  CG       -26.1060   24.2000   11.6530 C.ar  124  TYR124     -0.0201
     27  CD1      -26.5330   23.3740   10.6210 C.ar  124  TYR124     -0.0009
     28  CD2      -24.9290   23.8690   12.3130 C.ar  124  TYR124     -0.0009
     29  CE1      -25.8060   22.2580   10.2490 C.ar  124  TYR124      0.0417
     30  CE2      -24.1950   22.7530   11.9480 C.ar  124  TYR124      0.0417
     31  CZ       -24.6380   21.9520   10.9170 C.ar  124  TYR124      0.1957
     32  OH       -23.9140   20.8400   10.5490 O.3   124  TYR124     -0.2866
     33  N        -23.1310   27.1360    9.9330 N.3   126  ALA126     -0.1245
     34  CA       -22.9520   26.3070    8.7500 C.3   126  ALA126      0.1562
     35  C        -22.3270   27.0300    7.5660 C.2   126  ALA126      0.2260
     36  O        -21.9700   26.3710    6.5830 O.2   126  ALA126     -0.2867
     37  CB       -24.3010   25.7150    8.3170 C.3   126  ALA126      0.0290
     38  N        -18.4870   23.4390    9.8990 N.3   176  TYR176     -0.1241
     39  CA       -19.8260   23.3690   10.4780 C.3   176  TYR176      0.1605
     40  C        -19.6970   23.2800   11.9920 C.2   176  TYR176      0.2264
     41  O        -19.1750   22.2900   12.5150 O.2   176  TYR176     -0.2867
     42  CB       -20.6060   22.1730    9.9300 C.3   176  TYR176      0.0534
     43  CG       -20.8970   22.2630    8.4510 C.ar  176  TYR176     -0.0201
     44  CD1      -22.0220   22.9310    7.9860 C.ar  176  TYR176     -0.0009
     45  CD2      -20.0490   21.6820    7.5180 C.ar  176  TYR176     -0.0009
     46  CE1      -22.2930   23.0200    6.6360 C.ar  176  TYR176      0.0417
     47  CE2      -20.3120   21.7660    6.1640 C.ar  176  TYR176      0.0417
     48  CZ       -21.4370   22.4360    5.7290 C.ar  176  TYR176      0.1957
     49  OH       -21.7050   22.5230    4.3830 O.3   176  TYR176     -0.2866
     50  N        -29.3700   20.9100   11.8090 N.3   183  SER183     -0.1202
     51  CA       -29.5850   19.8560   10.8290 C.3   183  SER183      0.2020
     52  C        -29.3230   20.3610    9.4170 C.2   183  SER183      0.2619
     53  O        -29.2400   21.5650    9.1620 O.2   183  SER183     -0.2717
     54  CB       -31.0100   19.3050   10.9270 C.3   183  SER183      0.2103
     55  OG       -31.9580   20.3030   10.5830 O.3   183  SER183     -0.2182
     56  N        -29.2030   19.4050    8.4980 N.am  184  PHE184     -0.1961
     57  CA       -29.1210   19.6610    7.0660 C.3   184  PHE184      0.1771
     58  C        -30.0660   18.6990    6.3610 C.2   184  PHE184      0.2619
     59  O        -30.0810   17.5040    6.6710 O.2   184  PHE184     -0.2715
     60  CB       -27.6830   19.5100    6.5420 C.3   184  PHE184      0.0574
     61  CG       -27.0270   18.1970    6.8930 C.ar  184  PHE184     -0.0200
     62  CD1      -26.5010   17.9820    8.1590 C.ar  184  PHE184     -0.0042
     63  CD2      -26.9050   17.1920    5.9470 C.ar  184  PHE184     -0.0042
     64  CE1      -25.8890   16.7840    8.4810 C.ar  184  PHE184     -0.0003
     65  CE2      -26.2890   15.9920    6.2620 C.ar  184  PHE184     -0.0003
     66  CZ       -25.7840   15.7870    7.5310 C.ar  184  PHE184     -0.0000
     67  N        -30.8620   19.2200    5.4280 N.am  185  CYS185     -0.1968
     68  CA       -31.9220   18.4420    4.8080 C.3   185  CYS185      0.1712
     69  C        -31.3970   17.6640    3.6010 C.2   185  CYS185      0.2296
     70  O        -30.2270   17.7590    3.2230 O.2   185  CYS185     -0.2864
     71  CB       -33.0880   19.3500    4.4190 C.3   185  CYS185      0.0983
     72  SG       -32.6490   20.7320    3.3470 S.3   185  CYS185     -0.0798
     73  N        -30.2200   16.3090    0.1990 N.3   187  HIS187     -0.1226
     74  CA       -29.6180   16.9510   -0.9620 C.3   187  HIS187      0.1752
     75  C        -28.5610   16.0330   -1.5540 C.2   187  HIS187      0.2596
     76  O        -28.1140   15.0730   -0.9200 O.2   187  HIS187     -0.2718
     77  CB       -28.9870   18.2980   -0.5950 C.3   187  HIS187      0.0759
     78  CG       -27.7660   18.1730    0.2610 C.ar  187  HIS187      0.0818
     79  ND1      -27.8320   17.9390    1.6180 N.ar  187  HIS187     -0.2268
     80  CD2      -26.4490   18.2360   -0.0470 C.ar  187  HIS187      0.1154
     81  CE1      -26.6080   17.8670    2.1100 C.ar  187  HIS187      0.1986
     82  NE2      -25.7500   18.0450    1.1210 N.ar  187  HIS187     -0.2212
     83  N        -28.1710   16.3470   -2.7870 N.am  188  ILE188     -0.1966
     84  CA       -26.9960   15.7700   -3.4200 C.3   188  ILE188      0.1727
     85  C        -26.0390   16.9100   -3.7540 C.2   188  ILE188      0.2616
     86  O        -26.3980   18.0870   -3.7060 O.2   188  ILE188     -0.2715
     87  CB       -27.3410   14.9490   -4.6780 C.3   188  ILE188      0.0290
     88  CG1      -28.2360   15.7560   -5.6190 C.3   188  ILE188      0.0022
     89  CG2      -28.0040   13.6360   -4.2900 C.3   188  ILE188      0.0023
     90  CD1      -28.5890   15.0240   -6.8980 C.3   188  ILE188      0.0001
     91  N        -24.8060   16.5460   -4.0900 N.am  189  GLU189     -0.1963
     92  CA       -23.7840   17.5520   -4.3250 C.3   189  GLU189      0.1733
     93  C        -23.8480   18.0710   -5.7570 C.2   189  GLU189      0.2616
     94  O        -24.4190   17.4430   -6.6530 O.2   189  GLU189     -0.2715
     95  CB       -22.3940   16.9850   -4.0370 C.3   189  GLU189      0.0429
     96  CG       -22.2420   16.4070   -2.6400 C.3   189  GLU189      0.1163
     97  CD       -22.5830   17.4090   -1.5530 C.2   189  GLU189      0.3649
     98  OE1      -22.2240   18.5970   -1.6970 O.co2 189  GLU189     -0.2457
     99  OE2      -23.2180   17.0100   -0.5560 O.co2 189  GLU189     -0.2457
    100  N        -23.2560   19.2470   -5.9600 N.am  190  ASP190     -0.1971
    101  CA       -23.1090   19.7810   -7.3060 C.3   190  ASP190      0.1709
    102  C        -22.2900   18.8230   -8.1600 C.2   190  ASP190      0.2293
    103  O        -21.3030   18.2440   -7.6990 O.2   190  ASP190     -0.2864
    104  CB       -22.4410   21.1570   -7.2670 C.3   190  ASP190      0.1436
    105  CG       -23.4140   22.2680   -6.9270 C.2   190  ASP190      0.3671
    106  OD1      -24.6080   22.1370   -7.2710 O.co2 190  ASP190     -0.2456
    107  OD2      -22.9850   23.2740   -6.3240 O.co2 190  ASP190     -0.2456
    108  N        -18.3060   13.5080   -1.5940 N.3   195  SER195     -0.1217
    109  CA       -18.0130   14.4160   -0.4950 C.3   195  SER195      0.1889
    110  C        -17.4210   13.6070    0.6460 C.2   195  SER195      0.2288
    111  O        -17.8060   12.4570    0.8660 O.2   195  SER195     -0.2866
    112  CB       -19.2580   15.1770   -0.0210 C.3   195  SER195      0.2089
    113  OG       -19.9920   14.4220    0.9270 O.3   195  SER195     -0.2183
    114  N        -16.3180   14.0150    4.8620 N.3   197  ASN197     -0.1240
    115  CA       -16.6720   14.8080    6.0310 C.3   197  ASN197      0.1653
    116  C        -15.9050   14.2880    7.2360 C.2   197  ASN197      0.2266
    117  O        -15.8650   13.0760    7.4700 O.2   197  ASN197     -0.2867
    118  CB       -18.1810   14.7470    6.2950 C.3   197  ASN197      0.1155
    119  CG       -19.0060   15.1190    5.0750 C.2   197  ASN197      0.2627
    120  OD1      -19.5300   16.2280    4.9820 O.2   197  ASN197     -0.2716
    121  ND2      -19.1300   14.1880    4.1330 N.am  197  ASN197     -0.0877
    122  N        -22.4290   13.4430   14.9980 N.3   205  LYS205     -0.1245
    123  CA       -23.2900   13.9310   13.9300 C.3   205  LYS205      0.1561
    124  C        -24.0260   12.7310   13.3470 C.2   205  LYS205      0.2260
    125  O        -23.3910   11.7840   12.8720 O.2   205  LYS205     -0.2867
    126  CB       -22.4760   14.6500   12.8520 C.3   205  LYS205      0.0271
    127  CG       -23.3000   15.2300   11.7110 C.3   205  LYS205      0.0035
    128  CD       -22.4030   15.7670   10.6020 C.3   205  LYS205      0.0206
    129  CE       -21.5270   16.9120   11.0890 C.3   205  LYS205      0.1093
    130  NZ       -22.3040   18.1710   11.2770 N.3   205  LYS205     -0.1314
    131  N        -26.2500   10.7850   10.6600 N.3   207  TRP207     -0.1241
    132  CA       -26.3690   10.8340    9.2100 C.3   207  TRP207      0.1605
    133  C        -27.4720    9.9080    8.7170 C.2   207  TRP207      0.2264
    134  O        -27.7750    8.8860    9.3400 O.2   207  TRP207     -0.2867
    135  CB       -25.0580   10.4230    8.5300 C.3   207  TRP207      0.0550
    136  CG       -23.9550   11.4180    8.6320 C.ar  207  TRP207      0.0003
    137  CD1      -23.1910   11.6870    9.7270 C.ar  207  TRP207      0.0946
    138  CD2      -23.4670   12.2610    7.5830 C.ar  207  TRP207      0.0152
    139  NE1      -22.2640   12.6560    9.4310 N.ar  207  TRP207     -0.2442
    140  CE2      -22.4130   13.0260    8.1200 C.ar  207  TRP207      0.0810
    141  CE3      -23.8240   12.4490    6.2450 C.ar  207  TRP207      0.0012
    142  CZ2      -21.7120   13.9620    7.3650 C.ar  207  TRP207      0.0191
    143  CZ3      -23.1270   13.3790    5.4970 C.ar  207  TRP207      0.0001
    144  CH2      -22.0830   14.1240    6.0580 C.ar  207  TRP207      0.0015
    145  N        -32.0500   22.6550   -7.0930 N.3   236  LEU236     -0.1245
    146  CA       -31.1150   23.4310   -6.2840 C.3   236  LEU236      0.1561
    147  C        -31.8380   24.2790   -5.2440 C.2   236  LEU236      0.2260
    148  O        -31.3290   24.4650   -4.1320 O.2   236  LEU236     -0.2867
    149  CB       -30.2500   24.3100   -7.1880 C.3   236  LEU236      0.0270
    150  CG       -29.2200   23.5800   -8.0520 C.3   236  LEU236      0.0019
    151  CD1      -28.4520   24.5700   -8.9120 C.3   236  LEU236      0.0001
    152  CD2      -28.2670   22.7690   -7.1860 C.3   236  LEU236      0.0001
    153  N        -33.9870   21.7330   -2.6870 N.3   239  GLN239     -0.1231
    154  CA       -33.1300   21.0820   -1.7010 C.3   239  GLN239      0.1698
    155  C        -32.7030   22.0110   -0.5750 C.2   239  GLN239      0.2592
    156  O        -31.9810   21.5660    0.3260 O.2   239  GLN239     -0.2718
    157  CB       -31.8990   20.4780   -2.3860 C.3   239  GLN239      0.0381
    158  CG       -32.1780   19.1330   -3.0500 C.3   239  GLN239      0.0905
    159  CD       -31.0420   18.6550   -3.9320 C.2   239  GLN239      0.2608
    160  OE1      -29.8730   18.9420   -3.6750 O.2   239  GLN239     -0.2717
    161  NE2      -31.3830   17.9230   -4.9870 N.am  239  GLN239     -0.0878
    162  N        -33.1170   23.2780   -0.6000 N.am  240  LEU240     -0.1980
    163  CA       -32.9640   24.1350    0.5680 C.3   240  LEU240      0.1596
    164  C        -33.9830   23.8120    1.6520 C.2   240  LEU240      0.2287
    165  O        -33.7700   24.1720    2.8140 O.2   240  LEU240     -0.2864
    166  CB       -33.0910   25.6060    0.1680 C.3   240  LEU240      0.0297
    167  CG       -32.0480   26.1510   -0.8070 C.3   240  LEU240      0.0022
    168  CD1      -32.3630   27.5910   -1.1900 C.3   240  LEU240      0.0001
    169  CD2      -30.6520   26.0460   -0.2120 C.3   240  LEU240      0.0001
    170  N        -28.3620   12.6430    1.0560 N.3   275  HIS275     -0.1241
    171  CA       -28.0250   12.5170    2.4640 C.3   275  HIS275      0.1621
    172  C        -28.5990   13.6820    3.2530 C.2   275  HIS275      0.2264
    173  O        -28.8280   14.7730    2.7210 O.2   275  HIS275     -0.2867
    174  CB       -26.5070   12.4180    2.6830 C.3   275  HIS275      0.0745
    175  CG       -25.7210   13.5110    2.0300 C.ar  275  HIS275      0.0817
    176  ND1      -25.4460   13.5230    0.6800 N.ar  275  HIS275     -0.2268
    177  CD2      -25.1320   14.6170    2.5440 C.ar  275  HIS275      0.1154
    178  CE1      -24.7320   14.5950    0.3880 C.ar  275  HIS275      0.1986
    179  NE2      -24.5270   15.2750    1.5010 N.ar  275  HIS275     -0.2212
    180  N        -17.2600   20.1930   12.5020 N.3   285  ALA285     -0.1245
    181  CA       -17.0570   19.3360   11.3460 C.3   285  ALA285      0.1562
    182  C        -16.4270   20.1200   10.2040 C.2   285  ALA285      0.2260
    183  O        -16.5250   21.3470   10.1320 O.2   285  ALA285     -0.2867
    184  CB       -18.3780   18.7110   10.8800 C.3   285  ALA285      0.0290
@<TRIPOS>BOND
     1   151   150    1
     2   102   103    2
     3   102   101    1
     4   150   149    1
     5   150   152    1
     6   101   104    1
     7   101   100    1
     8   106   105   ar
     9   104   105    1
    10   149   146    1
    11   145   146    1
    12   105   107   ar
    13    90    88    1
    14    94    93    2
    15   146   147    1
    16   100    93   am
    17    93    92    1
    18    88    87    1
    19   147   148    2
    20   161   159   am
    21    87    89    1
    22    87    84    1
    23    92    91    1
    24    92    95    1
    25    91    85   am
    26    95    96    1
    27   159   160    2
    28   159   158    1
    29    85    86    2
    30    85    84    1
    31    84    83    1
    32   158   157    1
    33    83    75   am
    34   153   154    1
    35    96    97    1
    36   157   154    1
    37   154   155    1
    38    98    97   ar
    39   108   109    1
    40    75    74    1
    41    75    76    2
    42    97    99   ar
    43   168   167    1
    44    74    77    1
    45    74    73    1
    46   167   169    1
    47   167   166    1
    48   162   155   am
    49   162   163    1
    50    77    78    1
    51   155   156    2
    52   109   112    1
    53   109   110    1
    54    80    78   ar
    55    80    82   ar
    56   112   113    1
    57   166   163    1
    58    78    79   ar
    59   178   176   ar
    60   178   179   ar
    61   163   164    1
    62   110   111    2
    63   176   175   ar
    64   170   171    1
    65    82    81   ar
    66   179   177   ar
    67    79    81   ar
    68   164   165    2
    69   175   177   ar
    70   175   174    1
    71   171   174    1
    72   171   172    1
    73   173   172    2
    74    70    69    2
    75    72    71    1
    76    69    68    1
    77   121   119   am
    78    49    48    1
    79    71    68    1
    80    68    67    1
    81   114   115    1
    82   120   119    2
    83   119   118    1
    84    11     9    1
    85    67    58   am
    86   143   144   ar
    87   143   141   ar
    88    10     9    1
    89    48    47   ar
    90    48    46   ar
    91    63    65   ar
    92    63    61   ar
    93   115   118    1
    94   115   116    1
    95   144   142   ar
    96     9     8    2
    97    47    45   ar
    98   141   138   ar
    99    65    66   ar
   100    58    59    2
   101    58    57    1
   102    60    61    1
   103    60    57    1
   104    36    35    2
   105    46    44   ar
   106    61    62   ar
   107    57    56    1
   108   116   117    2
   109     8     7    1
   110   142   140   ar
   111    45    43   ar
   112    66    64   ar
   113    35    34    1
   114   138   140   ar
   115   138   136   ar
   116    44    43   ar
   117   140   139   ar
   118    62    64   ar
   119     7     6    1
   120    37    34    1
   121    43    42    1
   122    56    52   am
   123   135   136    1
   124   135   132    1
   125   136   137   ar
   126   133   132    1
   127   133   134    2
   128    34    33    1
   129    53    52    2
   130   132   131    1
   131    52    51    1
   132   139   137   ar
   133     5     6    1
   134     5     2    1
   135    20    18   am
   136    38    39    1
   137    42    39    1
   138   183   182    2
   139   182   181    1
   140    29    27   ar
   141    29    31   ar
   142    39    40    1
   143    32    31    1
   144    55    54    1
   145   128   129    1
   146   128   127    1
   147    27    26   ar
   148    51    54    1
   149    51    50    1
   150   184   181    1
   151     2     1    1
   152     2     3    1
   153    31    30   ar
   154    18    17    1
   155    18    19    2
   156   129   130    1
   157    17    16    1
   158   181   180    1
   159    24    23    2
   160    26    25    1
   161    26    28   ar
   162   127   126    1
   163     3     4    2
   164    30    28   ar
   165    40    41    2
   166    25    22    1
   167    16    13    1
   168    13    12    1
   169    13    14    1
   170    23    22    1
   171   126   123    1
   172   125   124    2
   173    14    15    2
   174    22    21    1
   175   124   123    1
   176   123   122    1
