@<TRIPOS>MOLECULE
tmp/6bh7A02.pdb
 82 76 0 0 0
SMALL
GASTEIGER

@<TRIPOS>ATOM
      1  N         26.9470   15.2850   -8.4660 N.3    16  PHE16      -0.1241
      2  CA        25.5330   14.9730   -8.3390 C.3    16  PHE16       0.1605
      3  C         25.1400   15.2690   -6.8920 C.2    16  PHE16       0.2264
      4  O         25.6800   14.6740   -5.9430 O.2    16  PHE16      -0.2867
      5  CB        25.3540   13.4830   -8.6850 C.3    16  PHE16       0.0534
      6  CG        23.9250   12.9730   -8.7090 C.ar   16  PHE16      -0.0203
      7  CD1       22.8940   13.5840   -8.0280 C.ar   16  PHE16      -0.0042
      8  CD2       23.6240   11.8190   -9.3980 C.ar   16  PHE16      -0.0042
      9  CE1       21.6020   13.0710   -8.0500 C.ar   16  PHE16      -0.0003
     10  CE2       22.3320   11.3290   -9.4470 C.ar   16  PHE16      -0.0003
     11  CZ        21.3320   11.9520   -8.7540 C.ar   16  PHE16      -0.0000
     12  N         25.0260    4.9060   -6.3370 N.3    58  ALA58      -0.1231
     13  CA        24.0410    5.2200   -7.3690 C.3    58  ALA58       0.1694
     14  C         24.3620    6.5440   -8.0630 C.2    58  ALA58       0.2592
     15  O         23.6020    6.9990   -8.9190 O.2    58  ALA58      -0.2718
     16  CB        22.6470    5.2630   -6.7670 C.3    58  ALA58       0.0304
     17  N         25.4820    7.1540   -7.6870 N.am   59  GLY59      -0.1957
     18  CA        25.9560    8.3680   -8.3200 C.3    59  GLY59       0.1869
     19  C         26.0200    9.6440   -7.5010 C.2    59  GLY59       0.2309
     20  O         26.6130   10.6200   -7.9390 O.2    59  GLY59      -0.2863
     21  N         18.2050    8.7520   -7.8800 N.3   273  PRO273     -0.2116
     22  CA        19.0030    8.2050   -8.9900 C.3   273  PRO273      0.1372
     23  C         18.5440    6.8290   -9.4770 C.2   273  PRO273      0.2244
     24  O         18.7260    6.5050  -10.6630 O.2   273  PRO273     -0.2868
     25  CB        20.4170    8.1060   -8.4020 C.3   273  PRO273      0.0268
     26  CG        20.1870    8.0310   -6.8780 C.3   273  PRO273      0.0207
     27  CD        18.9970    8.9400   -6.6510 C.3   273  PRO273      0.0892
     28  N         15.3700    9.2370  -12.0220 N.3   277  ILE277     -0.1245
     29  CA        16.1850    9.5500  -13.1960 C.3   277  ILE277      0.1561
     30  C         15.9050    8.5830  -14.3590 C.2   277  ILE277      0.2260
     31  O         15.6950    9.0390  -15.4920 O.2   277  ILE277     -0.2867
     32  CB        17.6910    9.6050  -12.8250 C.3   277  ILE277      0.0252
     33  CG1       17.9910   10.7810  -11.8860 C.3   277  ILE277      0.0019
     34  CG2       18.5500    9.6600  -14.0910 C.3   277  ILE277      0.0019
     35  CD1       17.4490   12.1080  -12.2880 C.3   277  ILE277      0.0001
     36  N         14.3480    9.4940  -18.0250 N.3   281  ARG281     -0.1245
     37  CA        15.0820    9.0840  -19.2260 C.3   281  ARG281      0.1563
     38  C         14.1440    8.3030  -20.1610 C.2   281  ARG281      0.2260
     39  O         14.1820    8.4710  -21.3870 O.2   281  ARG281     -0.2867
     40  CB        16.2980    8.2500  -18.8320 C.3   281  ARG281      0.0307
     41  CG        17.2930    8.0110  -19.9420 C.3   281  ARG281      0.0489
     42  CD        18.3380    7.0100  -19.4880 C.3   281  ARG281      0.2205
     43  NE        18.9960    7.3920  -18.2370 N.pl3 281  ARG281     -0.0865
     44  CZ        19.8930    8.3690  -18.1380 C.cat 281  ARG281      0.5346
     45  NH1       20.4690    8.6360  -16.9720 N.pl3 281  ARG281      0.1354
     46  NH2       20.2150    9.0820  -19.2130 N.pl3 281  ARG281      0.1354
     47  N         20.1110   12.9420  -21.3860 N.3   287  GLN287     -0.1245
     48  CA        21.2010   12.9260  -20.4190 C.3   287  GLN287      0.1566
     49  C         21.6840   14.2780  -19.9460 C.2   287  GLN287      0.2260
     50  O         21.8040   14.5180  -18.7430 O.2   287  GLN287     -0.2867
     51  CB        22.3860   12.2300  -21.0800 C.3   287  GLN287      0.0367
     52  CG        22.7250   10.9190  -20.4670 C.3   287  GLN287      0.0905
     53  CD        22.8750   11.0490  -18.9890 C.2   287  GLN287      0.2608
     54  OE1       22.1250   10.4390  -18.2390 O.2   287  GLN287     -0.2717
     55  NE2       23.8150   11.8810  -18.5550 N.am  287  GLN287     -0.0878
     56  N         19.2400   15.9500  -17.6230 N.3   290  LEU290     -0.1231
     57  CA        19.2890   15.3240  -16.3000 C.3   290  LEU290      0.1693
     58  C         20.5450   15.7120  -15.5330 C.2   290  LEU290      0.2591
     59  O         20.4780   15.9360  -14.3200 O.2   290  LEU290     -0.2718
     60  CB        19.1920   13.8030  -16.4340 C.3   290  LEU290      0.0284
     61  CG        17.9160   13.2750  -17.1070 C.3   290  LEU290      0.0019
     62  CD1       18.0970   11.7880  -17.4380 C.3   290  LEU290      0.0001
     63  CD2       16.6740   13.4850  -16.2520 C.3   290  LEU290      0.0001
     64  N         21.6750   15.8200  -16.2270 N.am  291  ALA291     -0.1980
     65  CA        22.9210   16.2560  -15.6020 C.3   291  ALA291      0.1597
     66  C         22.8410   17.7200  -15.2120 C.2   291  ALA291      0.2287
     67  O         23.3470   18.1280  -14.1580 O.2   291  ALA291     -0.2864
     68  CB        24.0880   16.0170  -16.5560 C.3   291  ALA291      0.0319
     69  N         20.7940   17.7530  -11.9010 N.3   294  THR294     -0.1203
     70  CA        21.3850   17.0890  -10.7530 C.3   294  THR294      0.1994
     71  C         22.7930   17.5470  -10.4070 C.2   294  THR294      0.2617
     72  O         23.2440   17.2970   -9.2720 O.2   294  THR294     -0.2717
     73  CB        21.3940   15.5550  -10.9310 C.3   294  THR294      0.1784
     74  OG1       22.1350   15.2050  -12.1070 O.3   294  THR294     -0.2211
     75  CG2       19.9720   15.0150  -11.0300 C.3   294  THR294      0.0376
     76  N         23.4760   18.1880  -11.3570 N.am  295  VAL295     -0.1979
     77  CA        24.8610   18.6310  -11.1770 C.3   295  VAL295      0.1595
     78  C         24.9830   20.1300  -11.3340 C.2   295  VAL295      0.2287
     79  O         25.4390   20.8160  -10.4170 O.2   295  VAL295     -0.2864
     80  CB        25.8340   17.9340  -12.1660 C.3   295  VAL295      0.0276
     81  CG1       27.2770   18.3890  -11.9300 C.3   295  VAL295      0.0022
     82  CG2       25.7460   16.4550  -11.9930 C.3   295  VAL295      0.0022
@<TRIPOS>BOND
     1    39    38    2
     2    47    48    1
     3    51    52    1
     4    51    48    1
     5    52    53    1
     6    48    49    1
     7    38    37    1
     8    49    50    2
     9    41    42    1
    10    41    40    1
    11    42    43    1
    12    37    40    1
    13    37    36    1
    14    46    44    1
    15    53    55   am
    16    53    54    2
    17    43    44    2
    18    44    45    1
    19    56    57    1
    20    62    61    1
    21    61    60    1
    22    61    63    1
    23    68    65    1
    24    60    57    1
    25    57    58    1
    26    64    65    1
    27    64    58   am
    28    65    66    1
    29    58    59    2
    30    31    30    2
    31    66    67    2
    32    30    29    1
    33    34    32    1
    34    29    32    1
    35    29    28    1
    36    32    33    1
    37    35    33    1
    38    80    82    1
    39    80    81    1
    40    80    77    1
    41    74    73    1
    42    69    70    1
    43    76    77    1
    44    76    71   am
    45    78    77    1
    46    78    79    2
    47    75    73    1
    48    73    70    1
    49    70    71    1
    50    24    23    2
    51    71    72    2
    52    23    22    1
    53    10     8   ar
    54    10    11   ar
    55     8     6   ar
    56    22    25    1
    57    22    21    1
    58    15    14    2
    59    11     9   ar
    60     6     5    1
    61     6     7   ar
    62     5     2    1
    63     1     2    1
    64    25    26    1
    65     2     3    1
    66    18    17    1
    67    18    19    1
    68    14    17   am
    69    14    13    1
    70     9     7   ar
    71    20    19    2
    72    21    27    1
    73    13    16    1
    74    13    12    1
    75     3     4    2
    76    26    27    1
