@<TRIPOS>MOLECULE
tmp/6bh7A00.pdb
 113 107 0 0 0
SMALL
GASTEIGER

@<TRIPOS>ATOM
      1  N         18.0070   18.6310   -0.7330 N.3    20  HIS20      -0.1241
      2  CA        17.1390   18.6790    0.4440 C.3    20  HIS20       0.1621
      3  C         17.0660   17.2800    1.0440 C.2    20  HIS20       0.2264
      4  O         16.2570   16.4550    0.6280 O.2    20  HIS20      -0.2867
      5  CB        15.7260   19.2010    0.1170 C.3    20  HIS20       0.0745
      6  CG        14.8650   19.3600    1.3350 C.ar   20  HIS20       0.0817
      7  ND1       14.1060   20.4920    1.5950 N.ar   20  HIS20      -0.2268
      8  CD2       14.6740   18.5380    2.3920 C.ar   20  HIS20       0.1154
      9  CE1       13.4870   20.3430    2.7540 C.ar   20  HIS20       0.1986
     10  NE2       13.8180   19.1710    3.2560 N.ar   20  HIS20      -0.2212
     11  N         18.3220   14.9280    4.9810 N.3    22  HIS22      -0.1241
     12  CA        18.6580   14.9690    6.4020 C.3    22  HIS22       0.1621
     13  C         19.4090   13.6960    6.7680 C.2    22  HIS22       0.2264
     14  O         19.2210   12.6610    6.1350 O.2    22  HIS22      -0.2867
     15  CB        17.3920   15.0550    7.2590 C.3    22  HIS22       0.0745
     16  CG        16.4730   16.1750    6.8890 C.ar   22  HIS22       0.0817
     17  ND1       16.5150   17.4060    7.5060 N.ar   22  HIS22      -0.2268
     18  CD2       15.4720   16.2450    5.9780 C.ar   22  HIS22       0.1154
     19  CE1       15.5870   18.1890    6.9880 C.ar   22  HIS22       0.1986
     20  NE2       14.9430   17.5120    6.0540 N.ar   22  HIS22      -0.2212
     21  N         16.2110   13.6140   11.6490 N.3    25  GLY25      -0.1225
     22  CA        15.2530   14.6550   12.0090 C.3    25  GLY25       0.1811
     23  C         14.9080   14.5250   13.4690 C.2    25  GLY25       0.2280
     24  O         14.3140   13.5320   13.8880 O.2    25  GLY25      -0.2866
     25  N         15.7050   21.3910   14.3270 N.3    71  LEU71      -0.1245
     26  CA        15.5020   20.0330   13.8370 C.3    71  LEU71       0.1561
     27  C         16.6360   19.1080   14.3470 C.2    71  LEU71       0.2260
     28  O         16.8050   17.9720   13.8960 O.2    71  LEU71      -0.2867
     29  CB        15.3750   20.0450   12.3120 C.3    71  LEU71       0.0270
     30  CG        14.9250   18.7750   11.6260 C.3    71  LEU71       0.0019
     31  CD1       13.7060   18.2040   12.3240 C.3    71  LEU71       0.0001
     32  CD2       14.5990   19.0850   10.1780 C.3    71  LEU71       0.0001
     33  N         13.4680   25.7910   11.6000 N.3    96  TRP96      -0.1227
     34  CA        12.4810   24.8270   11.1210 C.3    96  TRP96       0.1737
     35  C         11.1370   25.1250   11.8170 C.2    96  TRP96       0.2595
     36  O         10.8770   26.2730   12.1780 O.2    96  TRP96      -0.2718
     37  CB        13.0150   23.3990   11.3590 C.3    96  TRP96       0.0564
     38  CG        12.1950   22.2720   10.7990 C.ar   96  TRP96       0.0003
     39  CD1       11.9400   22.0060    9.4860 C.ar   96  TRP96       0.0946
     40  CD2       11.5310   21.2500   11.5520 C.ar   96  TRP96       0.0152
     41  NE1       11.1500   20.8850    9.3760 N.ar   96  TRP96      -0.2442
     42  CE2       10.8840   20.4050   10.6320 C.ar   96  TRP96       0.0810
     43  CE3       11.4110   20.9790   12.9190 C.ar   96  TRP96       0.0012
     44  CZ2       10.1340   19.3000   11.0340 C.ar   96  TRP96       0.0191
     45  CZ3       10.6670   19.8840   13.3160 C.ar   96  TRP96       0.0001
     46  CH2       10.0390   19.0580   12.3770 C.ar   96  TRP96       0.0015
     47  N         10.2830   24.1210   12.0050 N.am   97  LEU97      -0.1980
     48  CA         8.9260   24.3210   12.4970 C.3    97  LEU97       0.1596
     49  C          8.8150   24.2830   14.0210 C.2    97  LEU97       0.2287
     50  O          7.7300   24.4980   14.5640 O.2    97  LEU97      -0.2864
     51  CB         8.0070   23.2410   11.9160 C.3    97  LEU97       0.0297
     52  CG         7.7720   23.2650   10.4050 C.3    97  LEU97       0.0022
     53  CD1        7.0500   22.0010    9.9560 C.3    97  LEU97       0.0001
     54  CD2        6.9790   24.4990   10.0090 C.3    97  LEU97       0.0001
     55  N         10.7160   25.2520    2.8200 N.3   165  HIS165     -0.1241
     56  CA         9.9020   24.0640    2.6360 C.3   165  HIS165      0.1621
     57  C          8.5900   24.3620    3.2980 C.2   165  HIS165      0.2264
     58  O          8.5630   24.9340    4.3830 O.2   165  HIS165     -0.2867
     59  CB        10.5960   22.8400    3.2280 C.3   165  HIS165      0.0745
     60  CG         9.9110   21.5410    2.9290 C.ar  165  HIS165      0.0817
     61  ND1        8.8530   21.0620    3.6750 N.ar  165  HIS165     -0.2268
     62  CD2       10.1340   20.6250    1.9610 C.ar  165  HIS165      0.1154
     63  CE1        8.4690   19.8950    3.1860 C.ar  165  HIS165      0.1986
     64  NE2        9.2430   19.6060    2.1520 N.ar  165  HIS165     -0.2212
     65  N         14.1150   14.3780    0.3890 N.3   245  ASP245     -0.1239
     66  CA        13.7480   14.7780    1.7730 C.3   245  ASP245      0.1674
     67  C         13.7060   13.5280    2.6540 C.2   245  ASP245      0.2266
     68  O         12.7400   13.2730    3.3900 O.2   245  ASP245     -0.2867
     69  CB        12.4140   15.5160    1.8160 C.3   245  ASP245      0.1410
     70  CG        12.1870   16.3330    3.0870 C.2   245  ASP245      0.3668
     71  OD1       13.0840   16.4770    3.9280 O.co2 245  ASP245     -0.2456
     72  OD2       11.0260   16.8370    3.1910 O.co2 245  ASP245     -0.2456
     73  N         15.6590   10.7220    5.4770 N.3   247  LEU247     -0.1245
     74  CA        16.4660   10.7290    6.7120 C.3   247  LEU247      0.1561
     75  C         16.7220    9.3050    7.1270 C.2   247  LEU247      0.2260
     76  O         16.0920    8.3910    6.6330 O.2   247  LEU247     -0.2867
     77  CB        15.8580   11.5210    7.8860 C.3   247  LEU247      0.0270
     78  CG        14.3640   11.6960    7.9050 C.3   247  LEU247      0.0019
     79  CD1       13.7840   10.3570    8.2560 C.3   247  LEU247      0.0001
     80  CD2       14.0190   12.7910    8.9440 C.3   247  LEU247      0.0001
     81  N         14.4250    9.4680   12.8440 N.3   250  ILE250     -0.1245
     82  CA        13.4810   10.5540   13.0900 C.3   250  ILE250      0.1561
     83  C         12.8320   10.3840   14.4540 C.2   250  ILE250      0.2260
     84  O         12.2930    9.3400   14.7600 O.2   250  ILE250     -0.2867
     85  CB        12.4310   10.7140   11.9320 C.3   250  ILE250      0.0252
     86  CG1       11.4960   11.8810   12.2580 C.3   250  ILE250      0.0019
     87  CG2       11.6910    9.4130   11.6550 C.3   250  ILE250      0.0019
     88  CD1       10.5980   12.3220   11.1350 C.3   250  ILE250      0.0001
     89  N         11.1190   13.4440   15.7740 N.3   252  SER252     -0.1217
     90  CA        10.2300   14.5920   15.8500 C.3   252  SER252      0.1889
     91  C          8.7830   14.2710   15.4920 C.2   252  SER252      0.2288
     92  O          7.9410   15.1590   15.5380 O.2   252  SER252     -0.2866
     93  CB        10.7850   15.6880   14.9280 C.3   252  SER252      0.2089
     94  OG        11.1120   15.1470   13.6460 O.3   252  SER252     -0.2183
     95  N          8.1020    6.0070   13.2430 N.3   257  PHE257     -0.1241
     96  CA         7.7890    6.5660   11.9170 C.3   257  PHE257      0.1605
     97  C          8.8940    6.2340   10.9160 C.2   257  PHE257      0.2264
     98  O          8.6370    6.0790    9.7170 O.2   257  PHE257     -0.2867
     99  CB         7.5650    8.0740   11.9570 C.3   257  PHE257      0.0534
    100  CG         6.9400    8.6210   10.7110 C.ar  257  PHE257     -0.0203
    101  CD1        5.6720    8.2240   10.3420 C.ar  257  PHE257     -0.0042
    102  CD2        7.6000    9.5560    9.9440 C.ar  257  PHE257     -0.0042
    103  CE1        5.0880    8.7180    9.1980 C.ar  257  PHE257     -0.0003
    104  CE2        7.0230   10.0610    8.7970 C.ar  257  PHE257     -0.0003
    105  CZ         5.7690    9.6470    8.4320 C.ar  257  PHE257     -0.0000
    106  N          8.4270    4.9330    7.0260 N.3   261  MET261     -0.1245
    107  CA         9.0460    5.5590    5.8920 C.3   261  MET261      0.1570
    108  C          9.8920    4.5520    5.1350 C.2   261  MET261      0.2261
    109  O          9.8400    4.4920    3.9120 O.2   261  MET261     -0.2867
    110  CB         9.9280    6.7160    6.3680 C.3   261  MET261      0.0387
    111  CG         9.1640    7.9380    6.8020 C.3   261  MET261      0.0595
    112  SD        10.1900    9.3190    7.3310 S.3   261  MET261     -0.1393
    113  CE        11.1310    9.6560    5.8250 C.3   261  MET261      0.0692
@<TRIPOS>BOND
     1     1     2    1
     2     5     2    1
     3     5     6    1
     4    65    66    1
     5     2     3    1
     6     4     3    2
     7     6     7   ar
     8     6     8   ar
     9     7     9   ar
    10    66    69    1
    11    66    67    1
    12    69    70    1
    13    62    64   ar
    14    62    60   ar
    15    64    63   ar
    16     8    10   ar
    17    56    55    1
    18    56    59    1
    19    56    57    1
    20    67    68    2
    21     9    10   ar
    22    60    59    1
    23    60    61   ar
    24    70    72   ar
    25    70    71   ar
    26    63    61   ar
    27    57    58    2
    28   109   108    2
    29    11    12    1
    30   108   107    1
    31    73    74    1
    32   113   112    1
    33   107   110    1
    34   107   106    1
    35    18    20   ar
    36    18    16   ar
    37    20    19   ar
    38    14    13    2
    39   110   111    1
    40    12    13    1
    41    12    15    1
    42    76    75    2
    43    74    75    1
    44    74    77    1
    45   111   112    1
    46    16    15    1
    47    16    17   ar
    48    19    17   ar
    49    77    78    1
    50    78    79    1
    51    78    80    1
    52   105   104   ar
    53   105   103   ar
    54   104   102   ar
    55   103   101   ar
    56    41    39   ar
    57    41    42   ar
    58    39    38   ar
    59    98    97    2
    60   102   100   ar
    61    53    52    1
    62    54    52    1
    63    32    30    1
    64   101   100   ar
    65    52    51    1
    66    42    44   ar
    67    42    40   ar
    68   100    99    1
    69    38    37    1
    70    38    40   ar
    71    97    96    1
    72    44    46   ar
    73    34    37    1
    74    34    33    1
    75    34    35    1
    76    88    86    1
    77    40    43   ar
    78    30    29    1
    79    30    31    1
    80    21    22    1
    81    87    85    1
    82    35    47   am
    83    35    36    2
    84    51    48    1
    85    96    99    1
    86    96    95    1
    87    85    86    1
    88    85    82    1
    89    47    48    1
    90    22    23    1
    91    29    26    1
    92    46    45   ar
    93    48    49    1
    94    81    82    1
    95    43    45   ar
    96    82    83    1
    97    23    24    2
    98    94    93    1
    99    26    25    1
   100    26    27    1
   101    28    27    2
   102    49    50    2
   103    83    84    2
   104    93    90    1
   105    91    92    2
   106    91    90    1
   107    89    90    1
