@<TRIPOS>MOLECULE
tmp/6bh8B00.pdb
 178 171 0 0 0
SMALL
GASTEIGER

@<TRIPOS>ATOM
      1  N         19.6180  -10.2180   -8.9830 N.3   248  HIS248     -0.1226
      2  CA        20.6180  -10.1640  -10.0450 C.3   248  HIS248      0.1752
      3  C         20.7440  -11.5160  -10.7140 C.2   248  HIS248      0.2597
      4  O         20.4950  -12.5540  -10.0950 O.2   248  HIS248     -0.2718
      5  CB        21.9860   -9.7690   -9.4510 C.3   248  HIS248      0.0759
      6  CG        22.1800   -8.2960   -9.2930 C.ar  248  HIS248      0.0818
      7  ND1       22.1670   -7.4250  -10.3620 N.ar  248  HIS248     -0.2268
      8  CD2       22.4250   -7.5390   -8.1960 C.ar  248  HIS248      0.1154
      9  CE1       22.3800   -6.1940   -9.9270 C.ar  248  HIS248      0.1986
     10  NE2       22.5330   -6.2360   -8.6170 N.ar  248  HIS248     -0.2212
     11  N         21.1330  -11.5070  -11.9840 N.am  249  SER249     -0.1938
     12  CA        21.2960  -12.7390  -12.7450 C.3   249  SER249      0.2055
     13  C         22.7220  -12.8630  -13.2700 C.2   249  SER249      0.2643
     14  O         23.4270  -11.8640  -13.4190 O.2   249  SER249     -0.2714
     15  CB        20.3060  -12.7800  -13.9100 C.3   249  SER249      0.2130
     16  OG        20.6610  -11.8450  -14.9120 O.3   249  SER249     -0.2179
     17  N         23.1700  -14.0760  -13.5110 N.am  250  ASN250     -0.1957
     18  CA        24.5000  -14.3090  -14.0600 C.3   250  ASN250      0.1819
     19  C         24.7200  -15.7930  -14.3270 C.2   250  ASN250      0.2621
     20  O         24.5160  -16.6290  -13.4460 O.2   250  ASN250     -0.2715
     21  CB        25.5710  -13.7870  -13.1000 C.3   250  ASN250      0.1195
     22  CG        26.9780  -13.9900  -13.6290 C.2   250  ASN250      0.2630
     23  OD1       27.6450  -14.9680  -13.2900 O.2   250  ASN250     -0.2716
     24  ND2       27.4390  -13.0640  -14.4640 N.am  250  ASN250     -0.0877
     25  N         25.1380  -16.1140  -15.5480 N.am  251  ALA251     -0.1963
     26  CA        25.3840  -17.4980  -15.9350 C.3   251  ALA251      0.1728
     27  C         26.8340  -17.8960  -15.6780 C.2   251  ALA251      0.2616
     28  O         27.7520  -17.1030  -15.8860 O.2   251  ALA251     -0.2715
     29  CB        25.0240  -17.7120  -17.3970 C.3   251  ALA251      0.0334
     30  N         27.0320  -19.1300  -15.2260 N.am  252  TYR252     -0.1960
     31  CA        28.3680  -19.6370  -14.9410 C.3   252  TYR252      0.1771
     32  C         28.9260  -20.4110  -16.1300 C.2   252  TYR252      0.2619
     33  O         28.2080  -20.7000  -17.0870 O.2   252  TYR252     -0.2715
     34  CB        28.3500  -20.5280  -13.6970 C.3   252  TYR252      0.0574
     35  CG        29.3510  -20.1240  -12.6390 C.ar  252  TYR252     -0.0198
     36  CD1       30.5010  -20.8720  -12.4210 C.ar  252  TYR252     -0.0009
     37  CD2       29.1480  -18.9950  -11.8570 C.ar  252  TYR252     -0.0009
     38  CE1       31.4190  -20.5070  -11.4550 C.ar  252  TYR252      0.0417
     39  CE2       30.0600  -18.6210  -10.8890 C.ar  252  TYR252      0.0417
     40  CZ        31.1940  -19.3810  -10.6920 C.ar  252  TYR252      0.1957
     41  OH        32.1050  -19.0130   -9.7290 O.3   252  TYR252     -0.2866
     42  N         30.2110  -20.7450  -16.0640 N.am  253  PHE253     -0.1974
     43  CA        30.8650  -21.4860  -17.1360 C.3   253  PHE253      0.1639
     44  C         30.5820  -22.9800  -17.0250 C.2   253  PHE253      0.2290
     45  O         29.8130  -23.5350  -17.8100 O.2   253  PHE253     -0.2864
     46  CB        32.3740  -21.2350  -17.1190 C.3   253  PHE253      0.0560
     47  CG        33.0530  -21.7010  -15.8630 C.ar  253  PHE253     -0.0200
     48  CD1       33.5540  -22.9880  -15.7680 C.ar  253  PHE253     -0.0042
     49  CD2       33.1900  -20.8520  -14.7770 C.ar  253  PHE253     -0.0042
     50  CE1       34.1790  -23.4220  -14.6140 C.ar  253  PHE253     -0.0003
     51  CE2       33.8130  -21.2790  -13.6190 C.ar  253  PHE253     -0.0003
     52  CZ        34.3090  -22.5660  -13.5380 C.ar  253  PHE253     -0.0000
     53  N         17.8910  -16.1260  -13.8770 N.3   262  LEU262     -0.1245
     54  CA        18.0780  -16.0240  -15.3090 C.3   262  LEU262      0.1561
     55  C         16.8900  -16.6120  -16.0710 C.2   262  LEU262      0.2260
     56  O         16.7460  -16.3530  -17.2650 O.2   262  LEU262     -0.2867
     57  CB        19.3650  -16.7540  -15.6830 C.3   262  LEU262      0.0270
     58  CG        19.7550  -16.9200  -17.1490 C.3   262  LEU262      0.0019
     59  CD1       20.5790  -15.7610  -17.5970 C.3   262  LEU262      0.0001
     60  CD2       20.5560  -18.1580  -17.3120 C.3   262  LEU262      0.0001
     61  N         22.6750  -17.9700  -24.5830 N.3   272  VAL272     -0.1245
     62  CA        23.6220  -17.6540  -23.5340 C.3   272  VAL272      0.1561
     63  C         24.4250  -18.8930  -23.1730 C.2   272  VAL272      0.2260
     64  O         25.6440  -18.8440  -22.9910 O.2   272  VAL272     -0.2867
     65  CB        22.8290  -17.0980  -22.3390 C.3   272  VAL272      0.0252
     66  CG1       23.6520  -17.0460  -21.0870 C.3   272  VAL272      0.0019
     67  CG2       22.2980  -15.7070  -22.6820 C.3   272  VAL272      0.0019
     68  N         26.9050  -19.3200  -25.8830 N.3   275  HIS275     -0.1226
     69  CA        28.0730  -18.4970  -25.5610 C.3   275  HIS275      0.1752
     70  C         28.9610  -19.1640  -24.5280 C.2   275  HIS275      0.2595
     71  O         30.1770  -19.3160  -24.7350 O.2   275  HIS275     -0.2718
     72  CB        27.5850  -17.1320  -25.0590 C.3   275  HIS275      0.0759
     73  CG        28.6360  -16.3130  -24.3980 C.ar  275  HIS275      0.0818
     74  ND1       29.2210  -15.2350  -25.0160 N.ar  275  HIS275     -0.2268
     75  CD2       29.1990  -16.4000  -23.1720 C.ar  275  HIS275      0.1154
     76  CE1       30.1230  -14.7060  -24.2050 C.ar  275  HIS275      0.1986
     77  NE2       30.1320  -15.3990  -23.0830 N.ar  275  HIS275     -0.2212
     78  N         28.3640  -19.5630  -23.4090 N.am  276  GLU276     -0.1979
     79  CA        29.1100  -20.2210  -22.3410 C.3   276  GLU276      0.1602
     80  C         29.9260  -21.3800  -22.9020 C.2   276  GLU276      0.2287
     81  O         31.1320  -21.4740  -22.6740 O.2   276  GLU276     -0.2864
     82  CB        28.1550  -20.7280  -21.2600 C.3   276  GLU276      0.0415
     83  CG        27.4960  -19.6240  -20.4490 C.3   276  GLU276      0.1163
     84  CD        28.4850  -18.8670  -19.5840 C.2   276  GLU276      0.3649
     85  OE1       29.5590  -19.4270  -19.2770 O.co2 276  GLU276     -0.2457
     86  OE2       28.1870  -17.7150  -19.2080 O.co2 276  GLU276     -0.2457
     87  N         33.2090  -20.8190  -24.5720 N.3   279  HIS279     -0.1241
     88  CA        34.4200  -20.7510  -23.7670 C.3   279  HIS279      0.1621
     89  C         35.0620  -22.1310  -23.6480 C.2   279  HIS279      0.2264
     90  O         36.2800  -22.2560  -23.5000 O.2   279  HIS279     -0.2867
     91  CB        34.0920  -20.1960  -22.3860 C.3   279  HIS279      0.0745
     92  CG        33.7210  -18.7370  -22.3600 C.ar  279  HIS279      0.0817
     93  ND1       34.4280  -17.7720  -23.0330 N.ar  279  HIS279     -0.2268
     94  CD2       32.7630  -18.0830  -21.6650 C.ar  279  HIS279      0.1154
     95  CE1       33.9070  -16.5860  -22.7760 C.ar  279  HIS279      0.1986
     96  NE2       32.9050  -16.7440  -21.9310 N.ar  279  HIS279     -0.2212
     97  N         40.3110  -11.0400  -21.8820 N.3   351  SER351     -0.1217
     98  CA        38.9470  -11.3740  -21.5210 C.3   351  SER351      0.1889
     99  C         37.9330  -10.7840  -22.4990 C.2   351  SER351      0.2288
    100  O         37.0150  -11.4710  -22.9500 O.2   351  SER351     -0.2866
    101  CB        38.7020  -10.8800  -20.0970 C.3   351  SER351      0.2089
    102  OG        37.3760  -10.9940  -19.7080 O.3   351  SER351     -0.2183
    103  N         35.3490  -12.8550  -24.9320 N.3   355  GLU355     -0.1245
    104  CA        33.9070  -12.6460  -24.9440 C.3   355  GLU355      0.1567
    105  C         33.3850  -12.4450  -26.3610 C.2   355  GLU355      0.2260
    106  O         32.3450  -13.0100  -26.7290 O.2   355  GLU355     -0.2867
    107  CB        33.5530  -11.4710  -24.0460 C.3   355  GLU355      0.0388
    108  CG        33.5980  -11.8670  -22.5830 C.3   355  GLU355      0.1160
    109  CD        32.4820  -12.8210  -22.2280 C.2   355  GLU355      0.3649
    110  OE1       31.3240  -12.3810  -22.0550 O.co2 355  GLU355     -0.2457
    111  OE2       32.7530  -14.0110  -22.1360 O.co2 355  GLU355     -0.2457
    112  N         20.7690  -14.4270  -28.9430 N.3   371  LEU371     -0.1245
    113  CA        21.7600  -13.8740  -28.0310 C.3   371  LEU371      0.1561
    114  C         21.6380  -12.3530  -27.9730 C.2   371  LEU371      0.2260
    115  O         21.6920  -11.7490  -26.8950 O.2   371  LEU371     -0.2867
    116  CB        23.1660  -14.3080  -28.4560 C.3   371  LEU371      0.0270
    117  CG        24.2800  -13.8470  -27.5010 C.3   371  LEU371      0.0019
    118  CD1       24.0050  -14.3180  -26.0870 C.3   371  LEU371      0.0001
    119  CD2       25.5720  -14.3760  -27.9950 C.3   371  LEU371      0.0001
    120  N         21.0400  -10.5410  -24.4070 N.3   375  LEU375     -0.1245
    121  CA        21.8980   -9.5320  -23.7880 C.3   375  LEU375      0.1561
    122  C         21.1210   -8.2600  -23.4590 C.2   375  LEU375      0.2260
    123  O         21.4080   -7.5970  -22.4520 O.2   375  LEU375     -0.2867
    124  CB        23.0810   -9.2130  -24.7060 C.3   375  LEU375      0.0270
    125  CG        24.0820  -10.3510  -24.9490 C.3   375  LEU375      0.0019
    126  CD1       25.1140  -10.0020  -26.0200 C.3   375  LEU375      0.0001
    127  CD2       24.7750  -10.7030  -23.6700 C.3   375  LEU375      0.0001
    128  N         18.9480   -9.1100  -20.1740 N.3   378  LEU378     -0.1231
    129  CA        19.7690   -9.2100  -18.9660 C.3   378  LEU378      0.1693
    130  C         20.3090   -7.8470  -18.5860 C.2   378  LEU378      0.2592
    131  O         20.3810   -7.5050  -17.4010 O.2   378  LEU378     -0.2718
    132  CB        20.9080  -10.1990  -19.1730 C.3   378  LEU378      0.0284
    133  CG        20.4610  -11.6060  -19.6090 C.3   378  LEU378      0.0019
    134  CD1       21.6220  -12.2720  -20.2740 C.3   378  LEU378      0.0001
    135  CD2       19.9740  -12.4560  -18.4340 C.3   378  LEU378      0.0001
    136  N         20.6760   -7.0470  -19.5770 N.am  379  ASN379     -0.1974
    137  CA        21.0920   -5.6840  -19.2590 C.3   379  ASN379      0.1688
    138  C         19.9870   -4.9190  -18.5370 C.2   379  ASN379      0.2292
    139  O         20.2630   -4.1700  -17.5970 O.2   379  ASN379     -0.2864
    140  CB        21.5200   -4.9290  -20.5100 C.3   379  ASN379      0.1181
    141  CG        22.1090   -3.5890  -20.1610 C.2   379  ASN379      0.2629
    142  OD1       23.1990   -3.4860  -19.5660 O.2   379  ASN379     -0.2716
    143  ND2       21.3720   -2.5700  -20.4520 N.am  379  ASN379     -0.0877
    144  N         19.3130   -6.3770  -14.8610 N.3   382  ASN382     -0.1240
    145  CA        20.4080   -6.0210  -13.9500 C.3   382  ASN382      0.1653
    146  C         20.6850   -4.5120  -13.9010 C.2   382  ASN382      0.2266
    147  O         21.5460   -4.0750  -13.1220 O.2   382  ASN382     -0.2867
    148  CB        21.6520   -6.8130  -14.3400 C.3   382  ASN382      0.1155
    149  CG        21.4890   -8.2860  -14.0580 C.2   382  ASN382      0.2627
    150  OD1       21.3730   -8.6840  -12.9100 O.2   382  ASN382     -0.2716
    151  ND2       21.3860   -9.1000  -15.1040 N.am  382  ASN382     -0.0877
    152  N         35.7990   -6.2750  -18.2850 N.3   398  SER398     -0.1202
    153  CA        36.2250   -7.6010  -18.7110 C.3   398  SER398      0.2020
    154  C         35.3290   -8.0430  -19.8630 C.2   398  SER398      0.2618
    155  O         35.7060   -8.8900  -20.6730 O.2   398  SER398     -0.2717
    156  CB        36.1310   -8.5960  -17.5550 C.3   398  SER398      0.2103
    157  OG        34.7880   -8.7640  -17.1360 O.3   398  SER398     -0.2182
    158  N         34.1390   -7.4540  -19.9220 N.am  399  HIS399     -0.1975
    159  CA        33.1720   -7.7480  -20.9700 C.3   399  HIS399      0.1656
    160  C         33.0030   -6.4810  -21.7970 C.2   399  HIS399      0.2291
    161  O         32.8290   -5.3960  -21.2430 O.2   399  HIS399     -0.2864
    162  CB        31.8340   -8.1740  -20.3680 C.3   399  HIS399      0.0771
    163  CG        31.9290   -8.6230  -18.9430 C.ar  399  HIS399      0.0820
    164  ND1       31.7940   -7.7570  -17.8790 N.ar  399  HIS399     -0.2267
    165  CD2       32.1450   -9.8470  -18.4070 C.ar  399  HIS399      0.1154
    166  CE1       31.9240   -8.4280  -16.7490 C.ar  399  HIS399      0.1986
    167  NE2       32.1370   -9.6990  -17.0410 N.ar  399  HIS399     -0.2212
    168  N         28.8350   -5.4480  -28.3530 N.3   405  ARG405     -0.1245
    169  CA        28.4830   -6.8580  -28.4950 C.3   405  ARG405      0.1563
    170  C         27.2990   -7.0260  -29.4480 C.2   405  ARG405      0.2260
    171  O         27.3010   -7.9120  -30.3070 O.2   405  ARG405     -0.2867
    172  CB        28.1870   -7.4520  -27.1180 C.3   405  ARG405      0.0307
    173  CG        29.3680   -7.4260  -26.1780 C.3   405  ARG405      0.0489
    174  CD        29.0710   -8.0060  -24.8160 C.3   405  ARG405      0.2205
    175  NE        28.8710   -9.4550  -24.9270 N.pl3 405  ARG405     -0.0865
    176  CZ        28.5050  -10.2610  -23.9390 C.cat 405  ARG405      0.5346
    177  NH1       28.3010   -9.7900  -22.7160 N.pl3 405  ARG405      0.1354
    178  NH2       28.3380  -11.5500  -24.1880 N.pl3 405  ARG405      0.1354
@<TRIPOS>BOND
     1   171   170    2
     2   170   169    1
     3   112   113    1
     4   169   168    1
     5   169   172    1
     6   116   113    1
     7   116   117    1
     8   113   114    1
     9   119   117    1
    10   114   115    2
    11   117   118    1
    12   172   173    1
    13   106   105    2
    14   105   104    1
    15   173   174    1
    16   126   125    1
    17    68    69    1
    18    69    72    1
    19    69    70    1
    20    72    73    1
    21    74    73   ar
    22    74    76   ar
    23   125   124    1
    24   125   127    1
    25   104   103    1
    26   104   107    1
    27   175   174    1
    28   175   176    2
    29    71    70    2
    30   124   121    1
    31    61    62    1
    32    87    88    1
    33    70    78   am
    34   120   121    1
    35    73    75   ar
    36    76    77   ar
    37   178   176    1
    38   107   108    1
    39   176   177    1
    40   121   122    1
    41    88    89    1
    42    88    91    1
    43    89    90    2
    44    62    63    1
    45    62    65    1
    46   122   123    2
    47    78    79    1
    48    63    64    2
    49    75    77   ar
    50    93    95   ar
    51    93    92   ar
    52   100    99    2
    53    80    81    2
    54    80    79    1
    55    95    96   ar
    56    67    65    1
    57   108   109    1
    58    99    98    1
    59    91    92    1
    60    92    94   ar
    61    79    82    1
    62    65    66    1
    63   109   111   ar
    64   109   110   ar
    65    96    94   ar
    66    97    98    1
    67   160   161    2
    68   160   159    1
    69    98   101    1
    70    82    83    1
    71   159   162    1
    72   159   158    1
    73   155   154    2
    74   140   141    1
    75   140   137    1
    76   143   141   am
    77    83    84    1
    78   162   163    1
    79   134   133    1
    80   128   129    1
    81   141   142    2
    82   101   102    1
    83   158   154   am
    84   154   153    1
    85   133   132    1
    86   133   135    1
    87    84    85   ar
    88    84    86   ar
    89   136   137    1
    90   136   130   am
    91   137   138    1
    92   132   129    1
    93   129   130    1
    94   163   165   ar
    95   163   164   ar
    96   153   152    1
    97   153   156    1
    98   130   131    2
    99   138   139    2
   100   165   167   ar
   101   164   166   ar
   102    45    44    2
   103    59    58    1
   104   156   157    1
   105    29    26    1
   106    60    58    1
   107    56    55    2
   108    58    57    1
   109    43    46    1
   110    43    44    1
   111    43    42    1
   112    46    47    1
   113    33    32    2
   114   167   166   ar
   115    32    42   am
   116    32    31    1
   117    55    54    1
   118    26    27    1
   119    26    25    1
   120    28    27    2
   121    47    48   ar
   122    47    49   ar
   123    48    50   ar
   124    57    54    1
   125    27    30   am
   126    25    19   am
   127    54    53    1
   128    30    31    1
   129   151   149   am
   130    31    34    1
   131    16    15    1
   132   144   145    1
   133    49    51   ar
   134    50    52   ar
   135    24    22   am
   136   148   149    1
   137   148   145    1
   138    19    18    1
   139    19    20    2
   140    18    17    1
   141    18    21    1
   142   149   150    2
   143   145   146    1
   144    15    12    1
   145   146   147    2
   146    34    35    1
   147    22    23    2
   148    22    21    1
   149    51    52   ar
   150    17    13   am
   151    14    13    2
   152    13    12    1
   153    12    11    1
   154    35    36   ar
   155    35    37   ar
   156    36    38   ar
   157    11     3   am
   158    37    39   ar
   159    38    40   ar
   160    39    40   ar
   161     3     4    2
   162     3     2    1
   163    40    41    1
   164     7     9   ar
   165     7     6   ar
   166     2     5    1
   167     2     1    1
   168     9    10   ar
   169     5     6    1
   170     6     8   ar
   171    10     8   ar
