@<TRIPOS>MOLECULE
tmp/6bhbA00.pdb
 93 87 0 0 0
SMALL
GASTEIGER

@<TRIPOS>ATOM
      1  N          1.1040   22.7630   49.9050 N.3   113  LEU113     -0.1231
      2  CA        -0.2430   23.2790   50.1060 C.3   113  LEU113      0.1693
      3  C         -0.1540   24.6950   50.6570 C.2   113  LEU113      0.2592
      4  O          0.6930   24.9840   51.5070 O.2   113  LEU113     -0.2718
      5  CB        -1.0360   22.3930   51.0680 C.3   113  LEU113      0.0284
      6  CG        -1.4860   21.0450   50.5040 C.3   113  LEU113      0.0019
      7  CD1       -1.1580   19.9230   51.4710 C.3   113  LEU113      0.0001
      8  CD2       -2.9730   21.0700   50.2020 C.3   113  LEU113      0.0001
      9  N         -1.0300   25.5760   50.1780 N.am  114  ALA114     -0.1966
     10  CA        -0.9340   26.9880   50.5190 C.3   114  ALA114      0.1728
     11  C         -2.3210   27.6120   50.5240 C.2   114  ALA114      0.2616
     12  O         -3.2870   27.0440   50.0080 O.2   114  ALA114     -0.2715
     13  CB        -0.0190   27.7330   49.5420 C.3   114  ALA114      0.0334
     14  N         -2.4040   28.8020   51.1160 N.am  115  GLY115     -0.1955
     15  CA        -3.6290   29.5740   51.1000 C.3   115  GLY115      0.1869
     16  C         -3.6460   30.5760   49.9590 C.2   115  GLY115      0.2309
     17  O         -2.6140   31.0970   49.5460 O.2   115  GLY115     -0.2863
     18  N          5.3670   32.3630   55.2610 N.3   192  ASN192     -0.1240
     19  CA         4.9890   32.5770   56.6540 C.3   192  ASN192      0.1653
     20  C          5.6270   31.4810   57.4990 C.2   192  ASN192      0.2266
     21  O          5.3650   30.2940   57.2790 O.2   192  ASN192     -0.2867
     22  CB         3.4660   32.5660   56.8080 C.3   192  ASN192      0.1155
     23  CG         3.0190   32.3740   58.2480 C.2   192  ASN192      0.2627
     24  OD1        3.6510   32.8620   59.1860 O.2   192  ASN192     -0.2716
     25  ND2        1.9160   31.6570   58.4250 N.am  192  ASN192     -0.0877
     26  N         -1.8040   29.3610   61.1970 N.3   197  TYR197     -0.1227
     27  CA        -2.2820   29.8360   59.9090 C.3   197  TYR197      0.1736
     28  C         -2.3010   31.3600   59.9040 C.2   197  TYR197      0.2595
     29  O         -2.4150   32.0040   60.9500 O.2   197  TYR197     -0.2718
     30  CB        -3.6790   29.2860   59.6100 C.3   197  TYR197      0.0548
     31  CG        -3.7070   27.8060   59.2860 C.ar  197  TYR197     -0.0200
     32  CD1       -3.1650   27.3270   58.1000 C.ar  197  TYR197     -0.0009
     33  CD2       -4.2840   26.8930   60.1580 C.ar  197  TYR197     -0.0009
     34  CE1       -3.1880   25.9790   57.7960 C.ar  197  TYR197      0.0417
     35  CE2       -4.3130   25.5420   59.8630 C.ar  197  TYR197      0.0417
     36  CZ        -3.7640   25.0910   58.6790 C.ar  197  TYR197      0.1957
     37  OH        -3.7900   23.7480   58.3820 O.3   197  TYR197     -0.2866
     38  N         -2.1680   31.9410   58.7130 N.am  198  GLU198     -0.1979
     39  CA        -2.2210   33.3920   58.5920 C.3   198  GLU198      0.1602
     40  C         -3.5280   33.9150   59.1770 C.2   198  GLU198      0.2287
     41  O         -4.6030   33.3720   58.9080 O.2   198  GLU198     -0.2864
     42  CB        -2.0800   33.8160   57.1260 C.3   198  GLU198      0.0415
     43  CG        -3.2100   33.3750   56.1850 C.3   198  GLU198      0.1163
     44  CD        -3.0430   31.9560   55.6750 C.2   198  GLU198      0.3649
     45  OE1       -2.0830   31.2830   56.0990 O.co2 198  GLU198     -0.2457
     46  OE2       -3.8690   31.5160   54.8450 O.co2 198  GLU198     -0.2457
     47  N          0.1930   32.0320   50.1730 N.3   214  VAL214     -0.1231
     48  CA         0.9830   32.0280   51.4010 C.3   214  VAL214      0.1692
     49  C          1.0850   30.6020   51.9280 C.2   214  VAL214      0.2593
     50  O          0.0980   29.8570   51.9400 O.2   214  VAL214     -0.2718
     51  CB         0.3760   32.9660   52.4700 C.3   214  VAL214      0.0266
     52  CG1       -1.0840   32.6150   52.7430 C.3   214  VAL214      0.0020
     53  CG2        1.1950   32.9230   53.7520 C.3   214  VAL214      0.0020
     54  N          2.2840   30.2280   52.3790 N.am  215  GLY215     -0.1942
     55  CA         2.5230   28.9110   52.9330 C.3   215  GLY215      0.2014
     56  C          3.6920   28.9310   53.8980 C.2   215  GLY215      0.2638
     57  O          4.3220   29.9690   54.1160 O.2   215  GLY215     -0.2714
     58  N          3.9900   27.7570   54.4710 N.am  216  MET216     -0.1976
     59  CA         4.9860   27.6330   55.5340 C.3   216  MET216      0.1605
     60  C          6.1950   26.7880   55.1340 C.2   216  MET216      0.2287
     61  O          6.8770   26.2500   56.0140 O.2   216  MET216     -0.2864
     62  CB         4.3560   27.0280   56.7940 C.3   216  MET216      0.0413
     63  CG         3.0640   27.6780   57.2620 C.3   216  MET216      0.0598
     64  SD         2.3370   26.7860   58.6560 S.3   216  MET216     -0.1393
     65  CE         0.7730   27.6410   58.8310 C.3   216  MET216      0.0692
     66  N         -5.7400   25.3970   49.0600 N.3   239  ALA239     -0.1231
     67  CA        -6.7400   24.7590   49.9050 C.3   239  ALA239      0.1694
     68  C         -7.9050   25.6750   50.2530 C.2   239  ALA239      0.2592
     69  O         -8.9660   25.1760   50.6430 O.2   239  ALA239     -0.2718
     70  CB        -6.0950   24.2620   51.2010 C.3   239  ALA239      0.0304
     71  N         -7.7370   26.9890   50.1330 N.am  240  ASN240     -0.1974
     72  CA        -8.7880   27.9430   50.4690 C.3   240  ASN240      0.1688
     73  C         -8.3350   29.3180   50.0010 C.2   240  ASN240      0.2292
     74  O         -7.1610   29.5310   49.6860 O.2   240  ASN240     -0.2864
     75  CB        -9.0820   27.9530   51.9720 C.3   240  ASN240      0.1181
     76  CG        -7.9160   28.4820   52.7880 C.2   240  ASN240      0.2629
     77  OD1       -6.8790   27.8310   52.9050 O.2   240  ASN240     -0.2716
     78  ND2       -8.0830   29.6690   53.3600 N.am  240  ASN240     -0.0877
     79  N        -10.2760   28.0720   58.7540 N.3   252  ILE252     -0.1245
     80  CA        -9.4830   27.0680   58.0590 C.3   252  ILE252      0.1561
     81  C         -8.8490   26.1780   59.1170 C.2   252  ILE252      0.2260
     82  O         -8.6290   26.5990   60.2570 O.2   252  ILE252     -0.2867
     83  CB        -8.4030   27.7030   57.1500 C.3   252  ILE252      0.0252
     84  CG1       -7.6940   26.6460   56.2950 C.3   252  ILE252      0.0019
     85  CG2       -7.3860   28.4790   57.9800 C.3   252  ILE252      0.0019
     86  CD1       -8.5860   25.9650   55.2740 C.3   252  ILE252      0.0001
     87  N         -7.5620   21.1830   54.9590 N.3   257  VAL257     -0.1245
     88  CA        -6.4300   21.1980   54.0370 C.3   257  VAL257      0.1561
     89  C         -6.2170   19.8130   53.4350 C.2   257  VAL257      0.2260
     90  O         -6.0640   19.6620   52.2170 O.2   257  VAL257     -0.2867
     91  CB        -5.1670   21.7060   54.7580 C.3   257  VAL257      0.0252
     92  CG1       -3.9190   21.4850   53.9140 C.3   257  VAL257      0.0019
     93  CG2       -5.3130   23.1820   55.0860 C.3   257  VAL257      0.0019
@<TRIPOS>BOND
     1    66    67    1
     2    13    10    1
     3    17    16    2
     4    74    73    2
     5     1     2    1
     6    67    68    1
     7    67    70    1
     8    16    15    1
     9    73    72    1
    10    12    11    2
    11     2     3    1
    12     2     5    1
    13    71    68   am
    14    71    72    1
    15    47    48    1
    16     9    10    1
    17     9     3   am
    18     8     6    1
    19    68    69    2
    20    72    75    1
    21     6     5    1
    22     6     7    1
    23    10    11    1
    24    11    14   am
    25     3     4    2
    26    15    14    1
    27    48    49    1
    28    48    51    1
    29    49    50    2
    30    49    54   am
    31    75    76    1
    32    90    89    2
    33    54    55    1
    34    51    52    1
    35    51    53    1
    36    76    77    2
    37    76    78   am
    38    55    56    1
    39    89    88    1
    40    56    57    2
    41    56    58   am
    42    92    91    1
    43    88    91    1
    44    88    87    1
    45    58    59    1
    46    91    93    1
    47    46    44   ar
    48    60    59    1
    49    60    61    2
    50    18    19    1
    51    86    84    1
    52    59    62    1
    53    44    45   ar
    54    44    43    1
    55    43    42    1
    56    84    83    1
    57    19    22    1
    58    19    20    1
    59    62    63    1
    60    22    23    1
    61    42    39    1
    62    83    85    1
    63    83    80    1
    64    63    64    1
    65    21    20    2
    66    34    32   ar
    67    34    36   ar
    68    80    79    1
    69    80    81    1
    70    32    31   ar
    71    23    25   am
    72    23    24    2
    73    37    36    1
    74    39    38    1
    75    39    40    1
    76    64    65    1
    77    36    35   ar
    78    38    28   am
    79    41    40    2
    80    81    82    2
    81    31    30    1
    82    31    33   ar
    83    30    27    1
    84    35    33   ar
    85    28    27    1
    86    28    29    2
    87    27    26    1
