@<TRIPOS>MOLECULE
tmp/6bhhA00.pdb
 227 227 0 0 0
SMALL
GASTEIGER

@<TRIPOS>ATOM
      1  N         61.0340   -6.2050   70.6480 N.3    79  TYR79      -0.1241
      2  CA        59.9710   -5.8600   69.7030 C.3    79  TYR79       0.1605
      3  C         58.8720   -5.3140   70.6030 C.2    79  TYR79       0.2264
      4  O         58.2530   -6.0610   71.3730 O.2    79  TYR79      -0.2867
      5  CB        59.5560   -7.1500   68.9470 C.3    79  TYR79       0.0534
      6  CG        58.5650   -7.0940   67.7430 C.ar   79  TYR79      -0.0201
      7  CD1       57.2960   -6.5020   67.8460 C.ar   79  TYR79      -0.0009
      8  CD2       58.8870   -7.7380   66.5180 C.ar   79  TYR79      -0.0009
      9  CE1       56.4060   -6.5160   66.7680 C.ar   79  TYR79       0.0417
     10  CE2       58.0010   -7.7630   65.4420 C.ar   79  TYR79       0.0417
     11  CZ        56.7630   -7.1600   65.5690 C.ar   79  TYR79       0.1957
     12  OH        55.8910   -7.1870   64.5040 O.3    79  TYR79      -0.2866
     13  N         58.2420   -8.5710   73.1390 N.3    84  TRP84      -0.1241
     14  CA        58.8650   -9.8810   72.8700 C.3    84  TRP84       0.1605
     15  C         60.3050   -9.7020   72.3760 C.2    84  TRP84       0.2264
     16  O         60.7040   -8.6100   71.9800 O.2    84  TRP84      -0.2867
     17  CB        58.0870  -10.6500   71.8040 C.3    84  TRP84       0.0550
     18  CG        56.7140  -11.1010   72.1530 C.ar   84  TRP84       0.0003
     19  CD1       56.3170  -12.0860   73.0150 C.ar   84  TRP84       0.0946
     20  CD2       55.5060  -10.5790   71.5680 C.ar   84  TRP84       0.0152
     21  NE1       54.9340  -12.2020   73.0130 N.ar   84  TRP84      -0.2442
     22  CE2       54.4270  -11.2850   72.1320 C.ar   84  TRP84       0.0810
     23  CE3       55.2750   -9.5780   70.6300 C.ar   84  TRP84       0.0012
     24  CZ2       53.1060  -11.0340   71.7800 C.ar   84  TRP84       0.0191
     25  CZ3       53.9600   -9.3330   70.2830 C.ar   84  TRP84       0.0001
     26  CH2       52.8970  -10.0440   70.8370 C.ar   84  TRP84       0.0015
     27  N         65.2740   -4.1020   61.1650 N.3   105  PHE105     -0.1241
     28  CA        64.2740   -4.6320   60.2850 C.3   105  PHE105      0.1605
     29  C         64.0220   -6.0800   60.7660 C.2   105  PHE105      0.2264
     30  O         64.8520   -6.9720   60.5590 O.2   105  PHE105     -0.2867
     31  CB        64.7440   -4.6010   58.8250 C.3   105  PHE105      0.0534
     32  CG        64.8480   -3.1960   58.1880 C.ar  105  PHE105     -0.0203
     33  CD1       64.3510   -2.0360   58.8030 C.ar  105  PHE105     -0.0042
     34  CD2       65.4530   -3.0570   56.9400 C.ar  105  PHE105     -0.0042
     35  CE1       64.4660   -0.8050   58.1970 C.ar  105  PHE105     -0.0003
     36  CE2       65.5710   -1.8150   56.3320 C.ar  105  PHE105     -0.0003
     37  CZ        65.0690   -0.6950   56.9560 C.ar  105  PHE105     -0.0000
     38  N         59.5700  -10.4040   60.2750 N.3   108  ASP108     -0.1225
     39  CA        58.1810  -10.3220   59.8100 C.3   108  ASP108      0.1805
     40  C         57.8790   -9.0600   59.0040 C.2   108  ASP108      0.2598
     41  O         56.7600   -8.9040   58.5520 O.2   108  ASP108     -0.2718
     42  CB        57.2280  -10.4140   60.9980 C.3   108  ASP108      0.1424
     43  CG        57.2740   -9.1960   61.9240 C.2   108  ASP108      0.3668
     44  OD1       58.2190   -8.3550   61.8680 O.co2 108  ASP108     -0.2456
     45  OD2       56.3380   -9.0820   62.7240 O.co2 108  ASP108     -0.2456
     46  N         58.8610   -8.1610   58.8570 N.am  109  GLY109     -0.1942
     47  CA        58.6950   -6.8950   58.0960 C.3   109  GLY109      0.2014
     48  C         58.5820   -5.6250   58.9310 C.2   109  GLY109      0.2639
     49  O         58.6530   -4.4880   58.3890 O.2   109  GLY109     -0.2714
     50  N         58.4230   -5.8050   60.2430 N.am  110  TYR110     -0.1959
     51  CA        58.3340   -4.7010   61.2090 C.3   110  TYR110      0.1771
     52  C         59.6610   -3.9590   61.3100 C.2   110  TYR110      0.2619
     53  O         60.7420   -4.5530   61.1070 O.2   110  TYR110     -0.2715
     54  CB        57.9460   -5.2850   62.5690 C.3   110  TYR110      0.0574
     55  CG        57.6540   -4.3060   63.6500 C.ar  110  TYR110     -0.0198
     56  CD1       56.4420   -3.6240   63.7040 C.ar  110  TYR110     -0.0009
     57  CD2       58.5590   -4.0970   64.6610 C.ar  110  TYR110     -0.0009
     58  CE1       56.1840   -2.7300   64.7370 C.ar  110  TYR110      0.0417
     59  CE2       58.3080   -3.2340   65.6800 C.ar  110  TYR110      0.0417
     60  CZ        57.1290   -2.5550   65.7260 C.ar  110  TYR110      0.1957
     61  OH        56.9480   -1.7030   66.7630 O.3   110  TYR110     -0.2866
     62  N         59.5880   -2.6570   61.5920 N.am  111  ALA111     -0.1977
     63  CA        60.7740   -1.8440   61.7560 C.3   111  ALA111      0.1597
     64  C         60.6480   -1.0020   63.0220 C.2   111  ALA111      0.2287
     65  O         59.5540   -0.5110   63.3730 O.2   111  ALA111     -0.2864
     66  CB        61.0030   -0.9420   60.5350 C.3   111  ALA111      0.0319
     67  N         59.2240  -12.3060   50.8100 N.3   137  SER137     -0.1202
     68  CA        59.2490  -10.8710   50.4780 C.3   137  SER137      0.2020
     69  C         60.2030  -10.0730   51.4220 C.2   137  SER137      0.2619
     70  O         60.8750   -9.1320   51.0070 O.2   137  SER137     -0.2717
     71  CB        57.8530  -10.2860   50.5230 C.3   137  SER137      0.2103
     72  OG        57.3710  -10.2730   51.8440 O.3   137  SER137     -0.2182
     73  N         60.2270  -10.4650   52.6890 N.am  138  CYS138     -0.1969
     74  CA        61.1910   -9.9550   53.6700 C.3   138  CYS138      0.1712
     75  C         62.6190  -10.3350   53.2980 C.2   138  CYS138      0.2296
     76  O         63.4940   -9.4960   53.2680 O.2   138  CYS138     -0.2864
     77  CB        60.8460  -10.5120   55.0430 C.3   138  CYS138      0.0983
     78  SG        59.2320   -9.9470   55.6320 S.3   138  CYS138     -0.0798
     79  N         63.7290   -8.3850   50.2470 N.3   141  PHE141     -0.1227
     80  CA        63.9580   -6.9850   50.6030 C.3   141  PHE141      0.1736
     81  C         65.3030   -6.7730   51.3000 C.2   141  PHE141      0.2595
     82  O         66.0770   -5.8310   50.9450 O.2   141  PHE141     -0.2718
     83  CB        62.8460   -6.4120   51.4700 C.3   141  PHE141      0.0547
     84  CG        63.1140   -5.0040   51.8770 C.ar  141  PHE141     -0.0202
     85  CD1       62.9100   -3.9800   50.9730 C.ar  141  PHE141     -0.0042
     86  CD2       63.6470   -4.7120   53.1110 C.ar  141  PHE141     -0.0042
     87  CE1       63.1970   -2.6890   51.2990 C.ar  141  PHE141     -0.0003
     88  CE2       63.9340   -3.3970   53.4650 C.ar  141  PHE141     -0.0003
     89  CZ        63.7220   -2.3850   52.5440 C.ar  141  PHE141     -0.0000
     90  N         65.6030   -7.6370   52.2710 N.am  142  ILE142     -0.1980
     91  CA        66.8380   -7.4830   53.0530 C.3   142  ILE142      0.1595
     92  C         68.0700   -7.6990   52.1820 C.2   142  ILE142      0.2287
     93  O         69.0530   -6.9530   52.3140 O.2   142  ILE142     -0.2864
     94  CB        66.8850   -8.4330   54.3210 C.3   142  ILE142      0.0276
     95  CG1       65.7660   -8.1000   55.3260 C.3   142  ILE142      0.0022
     96  CG2       68.2280   -8.3340   55.0180 C.3   142  ILE142      0.0022
     97  CD1       65.7850   -6.7020   55.9210 C.3   142  ILE142      0.0001
     98  N         50.6980    2.4200   50.9710 N.3   166  GLU166     -0.1231
     99  CA        50.2170    1.0800   50.6610 C.3   166  GLU166      0.1699
    100  C         50.0550    0.2370   51.9130 C.2   166  GLU166      0.2592
    101  O         50.8880    0.3060   52.8330 O.2   166  GLU166     -0.2718
    102  CB        51.2110    0.3820   49.7150 C.3   166  GLU166      0.0402
    103  CG        50.7260   -0.9590   49.0880 C.3   166  GLU166      0.1161
    104  CD        50.9870   -2.1980   49.9380 C.2   166  GLU166      0.3649
    105  OE1       51.6420   -2.0890   51.0000 O.co2 166  GLU166     -0.2457
    106  OE2       50.5320   -3.3020   49.5430 O.co2 166  GLU166     -0.2457
    107  N         48.9920   -0.5680   51.9480 N.am  167  ALA167     -0.1966
    108  CA        48.8920   -1.6850   52.9230 C.3   167  ALA167      0.1728
    109  C         47.9290   -2.7360   52.3950 C.2   167  ALA167      0.2616
    110  O         46.8600   -2.3890   51.8990 O.2   167  ALA167     -0.2715
    111  CB        48.4310   -1.1730   54.2770 C.3   167  ALA167      0.0334
    112  N         48.3360   -4.0020   52.4370 N.am  168  GLU168     -0.1963
    113  CA        47.4800   -5.1460   52.0600 C.3   168  GLU168      0.1733
    114  C         46.9280   -5.0920   50.6040 C.2   168  GLU168      0.2616
    115  O         45.7870   -5.4780   50.3430 O.2   168  GLU168     -0.2715
    116  CB        46.3200   -5.2750   53.0650 C.3   168  GLU168      0.0429
    117  CG        46.7650   -5.5560   54.4780 C.3   168  GLU168      0.1163
    118  CD        47.4130   -6.8860   54.6900 C.2   168  GLU168      0.3649
    119  OE1       47.2970   -7.7980   53.8280 O.co2 168  GLU168     -0.2457
    120  OE2       47.9570   -7.0470   55.7930 O.co2 168  GLU168     -0.2457
    121  N         47.7290   -4.5920   49.6570 N.am  169  GLY169     -0.1955
    122  CA        47.2680   -4.4750   48.2520 C.3   169  GLY169      0.1869
    123  C         46.5560   -3.1690   47.8550 C.2   169  GLY169      0.2309
    124  O         46.4080   -2.9210   46.6690 O.2   169  GLY169     -0.2863
    125  N         46.0940    1.2270   48.2260 N.3   171  TRP171     -0.1241
    126  CA        46.7680    2.4850   48.5130 C.3   171  TRP171      0.1605
    127  C         45.8100    3.3820   49.2660 C.2   171  TRP171      0.2264
    128  O         44.7560    3.7270   48.7400 O.2   171  TRP171     -0.2867
    129  CB        47.2650    3.1270   47.2190 C.3   171  TRP171      0.0550
    130  CG        48.4360    2.3670   46.6450 C.ar  171  TRP171      0.0003
    131  CD1       48.3900    1.3020   45.8020 C.ar  171  TRP171      0.0946
    132  CD2       49.8100    2.5980   46.9140 C.ar  171  TRP171      0.0152
    133  NE1       49.6450    0.8710   45.5160 N.ar  171  TRP171     -0.2442
    134  CE2       50.5400    1.6410   46.2000 C.ar  171  TRP171      0.0810
    135  CE3       50.5010    3.5290   47.6920 C.ar  171  TRP171      0.0012
    136  CZ2       51.9170    1.5950   46.2250 C.ar  171  TRP171      0.0191
    137  CZ3       51.8720    3.4660   47.7270 C.ar  171  TRP171      0.0001
    138  CH2       52.5630    2.5180   46.9990 C.ar  171  TRP171      0.0015
    139  N         44.6660    4.0040   62.3740 N.3   193  ARG193     -0.1245
    140  CA        45.8610    3.3470   62.9500 C.3   193  ARG193      0.1563
    141  C         47.1770    4.0020   62.4340 C.2   193  ARG193      0.2260
    142  O         47.2090    4.5830   61.3360 O.2   193  ARG193     -0.2867
    143  CB        45.8330    1.8460   62.6780 C.3   193  ARG193      0.0307
    144  CG        46.2670    1.4500   61.2840 C.3   193  ARG193      0.0489
    145  CD        45.7500    0.0900   60.8770 C.3   193  ARG193      0.2205
    146  NE        46.5250   -0.4240   59.7420 N.pl3 193  ARG193     -0.0865
    147  CZ        46.3790   -0.0560   58.4600 C.cat 193  ARG193      0.5346
    148  NH1       45.4770    0.8400   58.0910 N.pl3 193  ARG193      0.1354
    149  NH2       47.1490   -0.6070   57.5330 N.pl3 193  ARG193      0.1354
    150  N         51.4730    3.4930   61.7480 N.3   195  GLU195     -0.1231
    151  CA        52.5530    2.5720   61.4940 C.3   195  GLU195      0.1699
    152  C         53.8300    3.3660   61.2470 C.2   195  GLU195      0.2592
    153  O         53.8110    4.3750   60.5240 O.2   195  GLU195     -0.2718
    154  CB        52.2240    1.6790   60.2800 C.3   195  GLU195      0.0402
    155  CG        53.2010    0.5230   60.0840 C.3   195  GLU195      0.1161
    156  CD        52.9050   -0.3150   58.8470 C.2   195  GLU195      0.3649
    157  OE1       51.9410   -0.0170   58.0960 O.co2 195  GLU195     -0.2457
    158  OE2       53.6610   -1.2710   58.6000 O.co2 195  GLU195     -0.2457
    159  N         54.9270    2.9000   61.8360 N.am  196  TRP196     -0.1962
    160  CA        56.2650    3.4180   61.5450 C.3   196  TRP196      0.1771
    161  C         56.8090    2.7120   60.2920 C.2   196  TRP196      0.2619
    162  O         56.9110    1.4900   60.2610 O.2   196  TRP196     -0.2715
    163  CB        57.1930    3.1850   62.7140 C.3   196  TRP196      0.0590
    164  CG        56.9600    4.1150   63.8770 C.ar  196  TRP196      0.0006
    165  CD1       56.3070    3.8250   65.0370 C.ar  196  TRP196      0.0946
    166  CD2       57.4140    5.4660   63.9990 C.ar  196  TRP196      0.0152
    167  NE1       56.3100    4.9250   65.8720 N.ar  196  TRP196     -0.2442
    168  CE2       57.0020    5.9350   65.2740 C.ar  196  TRP196      0.0810
    169  CE3       58.1500    6.3310   63.1600 C.ar  196  TRP196      0.0012
    170  CZ2       57.2620    7.2380   65.7170 C.ar  196  TRP196      0.0191
    171  CZ3       58.4220    7.6060   63.5980 C.ar  196  TRP196      0.0001
    172  CH2       57.9970    8.0530   64.8850 C.ar  196  TRP196      0.0015
    173  N         57.1720    3.4990   59.2770 N.am  197  ILE197     -0.1963
    174  CA        57.6020    2.9580   58.0050 C.3   197  ILE197      0.1727
    175  C         58.9420    3.5850   57.5900 C.2   197  ILE197      0.2616
    176  O         59.1780    4.8000   57.7590 O.2   197  ILE197     -0.2715
    177  CB        56.5190    3.1860   56.9190 C.3   197  ILE197      0.0290
    178  CG1       55.2110    2.4750   57.3450 C.3   197  ILE197      0.0022
    179  CG2       57.0080    2.7270   55.5340 C.3   197  ILE197      0.0023
    180  CD1       54.0410    2.6120   56.3780 C.3   197  ILE197      0.0001
    181  N         59.7860    2.7720   57.0030 N.am  198  TYR198     -0.1974
    182  CA        61.0970    3.2210   56.5050 C.3   198  TYR198      0.1639
    183  C         60.9200    4.2370   55.3580 C.2   198  TYR198      0.2290
    184  O         60.1690    3.9880   54.4360 O.2   198  TYR198     -0.2864
    185  CB        61.8800    2.0050   56.0720 C.3   198  TYR198      0.0560
    186  CG        63.1770    2.2810   55.3580 C.ar  198  TYR198     -0.0198
    187  CD1       64.1680    3.0800   55.9320 C.ar  198  TYR198     -0.0009
    188  CD2       63.4130    1.7440   54.0960 C.ar  198  TYR198     -0.0009
    189  CE1       65.3650    3.3440   55.2490 C.ar  198  TYR198      0.0417
    190  CE2       64.6040    1.9760   53.4240 C.ar  198  TYR198      0.0417
    191  CZ        65.5670    2.7760   53.9830 C.ar  198  TYR198      0.1957
    192  OH        66.7290    2.9960   53.2560 O.3   198  TYR198     -0.2866
    193  N         61.0180    3.0590   51.8420 N.3   201  SER201     -0.1202
    194  CA        60.0790    2.0070   51.4350 C.3   201  SER201      0.2020
    195  C         59.1840    2.5200   50.3190 C.2   201  SER201      0.2619
    196  O         58.5790    3.6080   50.4490 O.2   201  SER201     -0.2717
    197  CB        59.1980    1.5520   52.6050 C.3   201  SER201      0.2103
    198  OG        58.1590    0.7010   52.1690 O.3   201  SER201     -0.2182
    199  N         59.0540    1.7140   49.2580 N.am  202  THR202     -0.1938
    200  CA        58.1450    2.0240   48.1820 C.3   202  THR202      0.2028
    201  C         56.6440    1.8730   48.6030 C.2   202  THR202      0.2642
    202  O         55.7840    2.0190   47.7890 O.2   202  THR202     -0.2714
    203  CB        58.4350    1.1830   46.9250 C.3   202  THR202      0.1808
    204  OG1       58.2800   -0.2150   47.2180 O.3   202  THR202     -0.2208
    205  CG2       59.8550    1.4620   46.3910 C.3   202  THR202      0.0379
    206  N         56.3550    1.5340   49.8550 N.am  203  ARG203     -0.1977
    207  CA        54.9630    1.6130   50.3660 C.3   203  ARG203      0.1597
    208  C         54.5300    3.0490   50.5570 C.2   203  ARG203      0.2287
    209  O         53.3260    3.3180   50.6770 O.2   203  ARG203     -0.2864
    210  CB        54.8060    0.8380   51.6730 C.3   203  ARG203      0.0334
    211  CG        54.9770   -0.6690   51.5290 C.3   203  ARG203      0.0492
    212  CD        54.8800   -1.3540   52.8920 C.3   203  ARG203      0.2205
    213  NE        53.6000   -1.0580   53.5260 N.pl3 203  ARG203     -0.0865
    214  CZ        53.3690   -0.9680   54.8390 C.cat 203  ARG203      0.5346
    215  NH1       54.3350   -1.1990   55.7390 N.pl3 203  ARG203      0.1354
    216  NH2       52.1390   -0.6410   55.2770 N.pl3 203  ARG203      0.1354
    217  N         57.5530    5.1200   45.9770 N.3   208  PHE208     -0.1241
    218  CA        57.0630    4.2610   44.8810 C.3   208  PHE208      0.1605
    219  C         57.1750    4.9560   43.5120 C.2   208  PHE208      0.2264
    220  O         57.6130    4.3550   42.5050 O.2   208  PHE208     -0.2867
    221  CB        55.5790    3.9160   45.0950 C.3   208  PHE208      0.0534
    222  CG        55.0520    2.9140   44.1210 C.ar  208  PHE208     -0.0203
    223  CD1       54.5510    3.3210   42.8670 C.ar  208  PHE208     -0.0042
    224  CD2       55.0820    1.5490   44.4170 C.ar  208  PHE208     -0.0042
    225  CE1       54.0760    2.3770   41.9550 C.ar  208  PHE208     -0.0003
    226  CE2       54.5960    0.6150   43.5080 C.ar  208  PHE208     -0.0003
    227  CZ        54.0970    1.0290   42.2810 C.ar  208  PHE208     -0.0000
@<TRIPOS>BOND
     1   225   227   ar
     2   225   223   ar
     3   227   226   ar
     4   220   219    2
     5   223   222   ar
     6   226   224   ar
     7   219   218    1
     8   222   224   ar
     9   222   221    1
    10   218   221    1
    11   218   217    1
    12   133   131   ar
    13   133   134   ar
    14   131   130   ar
    15   134   136   ar
    16   134   132   ar
    17   136   138   ar
    18   205   203    1
    19   130   132   ar
    20   130   129    1
    21   124   123    2
    22   132   135   ar
    23   203   204    1
    24   203   200    1
    25   138   137   ar
    26   129   126    1
    27   135   137   ar
    28   202   201    2
    29   123   122    1
    30   200   201    1
    31   200   199    1
    32   125   126    1
    33   122   121    1
    34   126   127    1
    35   201   206   am
    36   128   127    2
    37   103   102    1
    38   103   104    1
    39   199   195   am
    40   106   104   ar
    41   121   114   am
    42   102    99    1
    43   206   207    1
    44   104   105   ar
    45    79    80    1
    46   195   196    2
    47   195   194    1
    48   115   114    2
    49   207   208    1
    50   207   210    1
    51    68    71    1
    52    68    67    1
    53    68    69    1
    54    71    72    1
    55   208   209    2
    56    80    81    1
    57    80    83    1
    58   114   113    1
    59    99    98    1
    60    99   100    1
    61    82    81    2
    62    85    87   ar
    63    85    84   ar
    64    70    69    2
    65    87    89   ar
    66    81    90   am
    67    69    73   am
    68   194   193    1
    69   194   197    1
    70    83    84    1
    71   211   210    1
    72   211   212    1
    73    84    86   ar
    74   110   109    2
    75   100   107   am
    76   100   101    2
    77   107   108    1
    78   113   112    1
    79   113   116    1
    80   198   197    1
    81    92    93    2
    82    92    91    1
    83    90    91    1
    84   109   112   am
    85   109   108    1
    86    89    88   ar
    87    73    74    1
    88   212   213    1
    89   108   111    1
    90    91    94    1
    91   116   117    1
    92    86    88   ar
    93   192   191    1
    94    76    75    2
    95    75    74    1
    96   190   191   ar
    97   190   188   ar
    98   213   214    2
    99    74    77    1
   100   119   118   ar
   101   191   189   ar
   102   188   186   ar
   103    94    96    1
   104    94    95    1
   105   184   183    2
   106   117   118    1
   107   118   120   ar
   108   214   216    1
   109   214   215    1
   110    77    78    1
   111   189   187   ar
   112    95    97    1
   113   183   182    1
   114   186   187   ar
   115   186   185    1
   116   179   177    1
   117   185   182    1
   118    36    34   ar
   119    36    37   ar
   120   180   178    1
   121   182   181    1
   122   177   178    1
   123   177   174    1
   124    34    32   ar
   125    37    35   ar
   126   181   175   am
   127   149   147    1
   128   175   176    2
   129   175   174    1
   130   174   173    1
   131   148   147    1
   132   157   156   ar
   133    47    46    1
   134    47    48    1
   135    32    33   ar
   136    32    31    1
   137    35    33   ar
   138    49    48    2
   139   147   146    2
   140    41    40    2
   141   158   156   ar
   142    31    28    1
   143   156   155    1
   144    46    40   am
   145    48    50   am
   146    40    39    1
   147   173   161   am
   148   146   145    1
   149    39    38    1
   150    39    42    1
   151   155   154    1
   152    50    51    1
   153   162   161    2
   154   154   151    1
   155    28    29    1
   156    28    27    1
   157   161   160    1
   158   153   152    2
   159    66    63    1
   160    30    29    2
   161   145   144    1
   162    42    43    1
   163    53    52    2
   164    51    52    1
   165    51    54    1
   166   152   151    1
   167   152   159   am
   168   144   143    1
   169    52    62   am
   170   142   141    2
   171   151   150    1
   172   160   159    1
   173   160   163    1
   174    62    63    1
   175    63    64    1
   176    44    43   ar
   177    43    45   ar
   178   139   140    1
   179   141   140    1
   180    54    55    1
   181   143   140    1
   182   163   164    1
   183    64    65    2
   184   169   171   ar
   185   169   166   ar
   186   171   172   ar
   187    55    56   ar
   188    55    57   ar
   189    56    58   ar
   190   164   166   ar
   191   164   165   ar
   192   166   168   ar
   193    12    11    1
   194    57    59   ar
   195    58    60   ar
   196   172   170   ar
   197   165   167   ar
   198   168   170   ar
   199   168   167   ar
   200    10    11   ar
   201    10     8   ar
   202    11     9   ar
   203    59    60   ar
   204    60    61    1
   205     8     6   ar
   206     9     7   ar
   207     6     7   ar
   208     6     5    1
   209     5     2    1
   210     2     3    1
   211     2     1    1
   212    25    23   ar
   213    25    26   ar
   214     3     4    2
   215    23    20   ar
   216    26    24   ar
   217    20    22   ar
   218    20    18   ar
   219    24    22   ar
   220    17    18    1
   221    17    14    1
   222    16    15    2
   223    22    21   ar
   224    18    19   ar
   225    15    14    1
   226    14    13    1
   227    21    19   ar
