@<TRIPOS>MOLECULE
tmp/6bhjD00.pdb
 133 129 0 0 0
SMALL
GASTEIGER

@<TRIPOS>ATOM
      1  N        -28.6850   -3.3850   -7.5320 N.3    16  VAL16      -0.1245
      2  CA       -28.3460   -2.5540   -8.6860 C.3    16  VAL16       0.1561
      3  C        -28.3230   -1.1030   -8.2350 C.2    16  VAL16       0.2260
      4  O        -29.2450   -0.6450   -7.5480 O.2    16  VAL16      -0.2867
      5  CB       -29.3490   -2.7460   -9.8360 C.3    16  VAL16       0.0252
      6  CG1      -28.8810   -1.9970  -11.0760 C.3    16  VAL16       0.0019
      7  CG2      -29.5390   -4.2240  -10.1420 C.3    16  VAL16       0.0019
      8  N        -28.9680    5.2660  -10.9970 N.3    19  TRP19      -0.1241
      9  CA       -28.2080    6.1370  -11.8790 C.3    19  TRP19       0.1605
     10  C        -28.7090    7.5700  -11.7840 C.2    19  TRP19       0.2264
     11  O        -29.8490    7.8200  -11.3770 O.2    19  TRP19      -0.2867
     12  CB       -28.2930    5.6490  -13.3300 C.3    19  TRP19       0.0550
     13  CG       -29.6880    5.5380  -13.8840 C.ar   19  TRP19       0.0003
     14  CD1      -30.5370    6.5630  -14.1810 C.ar   19  TRP19       0.0946
     15  CD2      -30.3760    4.3300  -14.2330 C.ar   19  TRP19       0.0152
     16  NE1      -31.7180    6.0680  -14.6820 N.ar   19  TRP19      -0.2442
     17  CE2      -31.6470    4.7010  -14.7230 C.ar   19  TRP19       0.0810
     18  CE3      -30.0460    2.9740  -14.1750 C.ar   19  TRP19       0.0012
     19  CZ2      -32.5840    3.7610  -15.1530 C.ar   19  TRP19       0.0191
     20  CZ3      -30.9800    2.0440  -14.6020 C.ar   19  TRP19       0.0001
     21  CH2      -32.2330    2.4430  -15.0810 C.ar   19  TRP19       0.0015
     22  N        -36.9360   -0.5060  -13.0440 N.3    71  ASP71      -0.1239
     23  CA       -36.2060   -1.4780  -13.8560 C.3    71  ASP71       0.1674
     24  C        -36.0700   -2.7730  -13.0610 C.2    71  ASP71       0.2266
     25  O        -35.0600   -3.0440  -12.4150 O.2    71  ASP71      -0.2867
     26  CB       -34.8470   -0.9170  -14.2630 C.3    71  ASP71       0.1410
     27  CG       -34.0060   -1.9260  -15.0200 C.2    71  ASP71       0.3668
     28  OD1      -34.5910   -2.8340  -15.6520 O.co2  71  ASP71      -0.2456
     29  OD2      -32.7650   -1.8120  -14.9840 O.co2  71  ASP71      -0.2456
     30  N        -35.7630   -5.6900  -14.2570 N.3    73  ARG73      -0.1231
     31  CA       -35.1850   -6.7390  -15.0890 C.3    73  ARG73       0.1694
     32  C        -34.3690   -7.7180  -14.2570 C.2    73  ARG73       0.2591
     33  O        -34.4290   -8.9330  -14.4780 O.2    73  ARG73      -0.2718
     34  CB       -34.3200   -6.1210  -16.1890 C.3    73  ARG73       0.0321
     35  CG       -35.1120   -5.6570  -17.3970 C.3    73  ARG73       0.0489
     36  CD       -34.2120   -4.9750  -18.4040 C.3    73  ARG73       0.2205
     37  NE       -33.6000   -3.7680  -17.8530 N.pl3  73  ARG73      -0.0865
     38  CZ       -32.6790   -3.0470  -18.4830 C.cat  73  ARG73       0.5346
     39  NH1      -32.2550   -3.4080  -19.6880 N.pl3  73  ARG73       0.1354
     40  NH2      -32.1760   -1.9650  -17.9070 N.pl3  73  ARG73       0.1354
     41  N        -33.5930   -7.2120  -13.2990 N.am   74  GLU74      -0.1979
     42  CA       -32.8070   -8.0960  -12.4460 C.3    74  GLU74       0.1602
     43  C        -33.7140   -8.9060  -11.5290 C.2    74  GLU74       0.2287
     44  O        -33.5360  -10.1230  -11.3750 O.2    74  GLU74      -0.2864
     45  CB       -31.8020   -7.2830  -11.6310 C.3    74  GLU74       0.0415
     46  CG       -30.8830   -8.1280  -10.7610 C.3    74  GLU74       0.1163
     47  CD       -29.9660   -9.0180  -11.5790 C.2    74  GLU74       0.3649
     48  OE1      -29.8620   -8.8080  -12.8070 O.co2  74  GLU74      -0.2457
     49  OE2      -29.3490   -9.9340  -10.9940 O.co2  74  GLU74      -0.2457
     50  N        -35.5770  -11.8720  -13.1640 N.3    77  LYS77      -0.1245
     51  CA       -34.7560  -13.0350  -13.4740 C.3    77  LYS77       0.1561
     52  C        -34.4160  -13.8550  -12.2370 C.2    77  LYS77       0.2260
     53  O        -34.1460  -15.0550  -12.3610 O.2    77  LYS77      -0.2867
     54  CB       -33.4670  -12.6010  -14.1720 C.3    77  LYS77       0.0271
     55  CG       -33.6660  -12.1970  -15.6230 C.3    77  LYS77       0.0035
     56  CD       -32.3460  -11.8800  -16.3040 C.3    77  LYS77       0.0206
     57  CE       -31.7590  -10.5680  -15.8070 C.3    77  LYS77       0.1093
     58  NZ       -30.4100  -10.3140  -16.3730 N.3    77  LYS77      -0.1314
     59  N        -34.0200  -10.6940  -26.3830 N.3   371  LYS371     -0.1245
     60  CA       -32.7410  -10.1230  -25.9780 C.3   371  LYS371      0.1561
     61  C        -32.1480   -9.3850  -27.1710 C.2   371  LYS371      0.2260
     62  O        -31.9960   -9.9640  -28.2520 O.2   371  LYS371     -0.2867
     63  CB       -31.7910  -11.2110  -25.4780 C.3   371  LYS371      0.0271
     64  CG       -30.4550  -10.6750  -24.9790 C.3   371  LYS371      0.0035
     65  CD       -29.5320  -11.7880  -24.5120 C.3   371  LYS371      0.0206
     66  CE       -28.2910  -11.2240  -23.8410 C.3   371  LYS371      0.1093
     67  NZ       -27.3480  -12.2900  -23.4100 N.3   371  LYS371     -0.1314
     68  N        -21.7590    1.0010  -25.4610 N.3   378  LYS378     -0.1245
     69  CA       -22.4210    0.9270  -24.1660 C.3   378  LYS378      0.1561
     70  C        -22.6200    2.3130  -23.5630 C.2   378  LYS378      0.2260
     71  O        -23.7490    2.7240  -23.2660 O.2   378  LYS378     -0.2867
     72  CB       -21.6060    0.0380  -23.2240 C.3   378  LYS378      0.0271
     73  CG       -22.1810   -0.1190  -21.8270 C.3   378  LYS378      0.0035
     74  CD       -21.3160   -1.0540  -20.9940 C.3   378  LYS378      0.0206
     75  CE       -22.0510   -1.5570  -19.7640 C.3   378  LYS378      0.1093
     76  NZ       -22.1610   -0.5250  -18.6920 N.3   378  LYS378     -0.1314
     77  N        -26.3540    4.0670  -22.6580 N.3   382  GLU382     -0.1245
     78  CA       -26.7360    4.2470  -21.2640 C.3   382  GLU382      0.1567
     79  C        -26.7950    5.7100  -20.8450 C.2   382  GLU382      0.2260
     80  O        -27.2680    5.9980  -19.7430 O.2   382  GLU382     -0.2867
     81  CB       -25.7680    3.4830  -20.3660 C.3   382  GLU382      0.0388
     82  CG       -25.8560    1.9760  -20.5430 C.3   382  GLU382      0.1160
     83  CD       -24.8780    1.2250  -19.6650 C.2   382  GLU382      0.3649
     84  OE1      -24.0070    1.8730  -19.0480 O.co2 382  GLU382     -0.2457
     85  OE2      -24.9840   -0.0190  -19.5930 O.co2 382  GLU382     -0.2457
     86  N        -30.7340    6.6460  -23.4570 N.3   385  TRP385     -0.1241
     87  CA       -31.8980    5.8420  -23.8050 C.3   385  TRP385      0.1605
     88  C        -33.1120    6.1870  -22.9470 C.2   385  TRP385      0.2264
     89  O        -34.2500    6.1060  -23.4300 O.2   385  TRP385     -0.2867
     90  CB       -31.5720    4.3490  -23.6940 C.3   385  TRP385      0.0550
     91  CG       -31.5550    3.7940  -22.2990 C.ar  385  TRP385      0.0003
     92  CD1      -30.4720    3.6600  -21.4810 C.ar  385  TRP385      0.0946
     93  CD2      -32.6750    3.2790  -21.5680 C.ar  385  TRP385      0.0152
     94  NE1      -30.8480    3.1020  -20.2850 N.ar  385  TRP385     -0.2442
     95  CE2      -32.1950    2.8580  -20.3130 C.ar  385  TRP385      0.0810
     96  CE3      -34.0360    3.1370  -21.8540 C.ar  385  TRP385      0.0012
     97  CZ2      -33.0310    2.3080  -19.3410 C.ar  385  TRP385      0.0191
     98  CZ3      -34.8630    2.5900  -20.8880 C.ar  385  TRP385      0.0001
     99  CH2      -34.3590    2.1810  -19.6480 C.ar  385  TRP385      0.0015
    100  N        -34.1920   -7.0690  -22.1770 N.3   396  GLU396     -0.1231
    101  CA       -32.7770   -7.3550  -22.0030 C.3   396  GLU396      0.1699
    102  C        -32.0060   -6.9040  -23.2420 C.2   396  GLU396      0.2592
    103  O        -32.5340   -6.9060  -24.3580 O.2   396  GLU396     -0.2718
    104  CB       -32.5670   -8.8510  -21.7710 C.3   396  GLU396      0.0402
    105  CG       -31.3440   -9.2050  -20.9370 C.3   396  GLU396      0.1161
    106  CD       -31.6380   -9.2340  -19.4490 C.2   396  GLU396      0.3649
    107  OE1      -32.8140   -9.4300  -19.0730 O.co2 396  GLU396     -0.2457
    108  OE2      -30.6900   -9.0640  -18.6540 O.co2 396  GLU396     -0.2457
    109  N        -30.7500   -6.5150  -23.0460 N.am  397  TRP397     -0.1976
    110  CA       -29.9510   -6.0920  -24.1870 C.3   397  TRP397      0.1640
    111  C        -28.4700   -6.2810  -23.9010 C.2   397  TRP397      0.2290
    112  O        -28.0350   -6.2770  -22.7490 O.2   397  TRP397     -0.2864
    113  CB       -30.2270   -4.6290  -24.5690 C.3   397  TRP397      0.0576
    114  CG       -30.0130   -3.6290  -23.4680 C.ar  397  TRP397      0.0006
    115  CD1      -28.8980   -3.4730  -22.6920 C.ar  397  TRP397      0.0946
    116  CD2      -30.9420   -2.6260  -23.0370 C.ar  397  TRP397      0.0152
    117  NE1      -29.0810   -2.4450  -21.8000 N.ar  397  TRP397     -0.2442
    118  CE2      -30.3250   -1.9030  -21.9930 C.ar  397  TRP397      0.0810
    119  CE3      -32.2360   -2.2670  -23.4290 C.ar  397  TRP397      0.0012
    120  CZ2      -30.9590   -0.8540  -21.3320 C.ar  397  TRP397      0.0191
    121  CZ3      -32.8600   -1.2200  -22.7770 C.ar  397  TRP397      0.0001
    122  CH2      -32.2210   -0.5250  -21.7380 C.ar  397  TRP397      0.0015
    123  N        -24.5310   -5.2030  -26.1060 N.3   399  PHE399     -0.1241
    124  CA       -23.9800   -4.3010  -27.1090 C.3   399  PHE399      0.1605
    125  C        -22.9540   -5.0260  -27.9740 C.2   399  PHE399      0.2264
    126  O        -22.2690   -5.9460  -27.5170 O.2   399  PHE399     -0.2867
    127  CB       -23.3510   -3.0840  -26.4380 C.3   399  PHE399      0.0534
    128  CG       -24.2620   -2.4060  -25.4590 C.ar  399  PHE399     -0.0203
    129  CD1      -25.3040   -1.6160  -25.9020 C.ar  399  PHE399     -0.0042
    130  CD2      -24.0910   -2.5750  -24.0980 C.ar  399  PHE399     -0.0042
    131  CE1      -26.1550   -0.9980  -25.0100 C.ar  399  PHE399     -0.0003
    132  CE2      -24.9380   -1.9640  -23.1960 C.ar  399  PHE399     -0.0003
    133  CZ       -25.9680   -1.1710  -23.6530 C.ar  399  PHE399     -0.0000
@<TRIPOS>BOND
     1    62    61    2
     2   125   126    2
     3   125   124    1
     4    61    60    1
     5   124   127    1
     6   124   123    1
     7   127   128    1
     8    59    60    1
     9    60    63    1
    10   129   128   ar
    11   129   131   ar
    12    63    64    1
    13    68    69    1
    14   128   130   ar
    15   131   133   ar
    16    64    65    1
    17   113   110    1
    18   113   114    1
    19    65    66    1
    20   103   102    2
    21   110   111    1
    22   110   109    1
    23    69    70    1
    24    69    72    1
    25   130   132   ar
    26   111   112    2
    27    66    67    1
    28    87    90    1
    29    87    86    1
    30    87    88    1
    31    90    91    1
    32   133   132   ar
    33    70    71    2
    34   114   116   ar
    35   114   115   ar
    36    89    88    2
    37   119   116   ar
    38   119   121   ar
    39   102   109   am
    40   102   101    1
    41    72    73    1
    42   116   118   ar
    43   121   122   ar
    44   115   117   ar
    45    77    78    1
    46    91    93   ar
    47    91    92   ar
    48   100   101    1
    49   101   104    1
    50   118   117   ar
    51   118   120   ar
    52    96    93   ar
    53    96    98   ar
    54    73    74    1
    55   104   105    1
    56   122   120   ar
    57    93    95   ar
    58    92    94   ar
    59    78    79    1
    60    78    81    1
    61    74    75    1
    62   105   106    1
    63    98    99   ar
    64    79    80    2
    65    82    81    1
    66    82    83    1
    67    95    94   ar
    68    95    97   ar
    69    75    76    1
    70    39    38    1
    71    83    85   ar
    72    83    84   ar
    73    99    97   ar
    74   106   107   ar
    75   106   108   ar
    76    38    40    1
    77    38    37    2
    78    36    37    1
    79    36    35    1
    80    35    34    1
    81    58    57    1
    82    56    57    1
    83    56    55    1
    84    34    31    1
    85    28    27   ar
    86    55    54    1
    87    19    21   ar
    88    19    17   ar
    89    31    30    1
    90    31    32    1
    91    21    20   ar
    92    27    29   ar
    93    27    26    1
    94    17    16   ar
    95    17    15   ar
    96    16    14   ar
    97    20    18   ar
    98    33    32    2
    99    26    23    1
   100    32    41   am
   101    15    18   ar
   102    15    13   ar
   103    14    13   ar
   104    54    51    1
   105    13    12    1
   106    23    24    1
   107    23    22    1
   108    51    50    1
   109    51    52    1
   110    12     9    1
   111    41    42    1
   112    24    25    2
   113    48    47   ar
   114    42    45    1
   115    42    43    1
   116    53    52    2
   117     9    10    1
   118     9     8    1
   119    10    11    2
   120    45    46    1
   121    47    49   ar
   122    47    46    1
   123    43    44    2
   124     6     5    1
   125     7     5    1
   126     5     2    1
   127     2     3    1
   128     2     1    1
   129     3     4    2
