@<TRIPOS>MOLECULE
tmp/6bhnA00.pdb
 225 225 0 0 0
SMALL
GASTEIGER

@<TRIPOS>ATOM
      1  N         32.3130   11.9710   -0.1730 N.3    26  TYR26      -0.1241
      2  CA        32.3590   10.7670   -0.9720 C.3    26  TYR26       0.1605
      3  C         32.7440   11.1170   -2.4020 C.2    26  TYR26       0.2264
      4  O         31.9720   11.7290   -3.1140 O.2    26  TYR26      -0.2867
      5  CB        30.9740   10.1090   -0.9200 C.3    26  TYR26       0.0534
      6  CG        30.8030    8.8810   -1.7740 C.ar   26  TYR26      -0.0201
      7  CD1       30.2040    8.9640   -3.0220 C.ar   26  TYR26      -0.0009
      8  CD2       31.2190    7.6380   -1.3270 C.ar   26  TYR26      -0.0009
      9  CE1       30.0260    7.8460   -3.7990 C.ar   26  TYR26       0.0417
     10  CE2       31.0460    6.5140   -2.1020 C.ar   26  TYR26       0.0417
     11  CZ        30.4470    6.6240   -3.3390 C.ar   26  TYR26       0.1957
     12  OH        30.2710    5.5050   -4.1200 O.3    26  TYR26      -0.2866
     13  N         36.0770    7.4710    0.1320 N.3    36  PHE36      -0.1241
     14  CA        35.8930    8.5340    1.1070 C.3    36  PHE36       0.1605
     15  C         37.2150    9.2480    1.3140 C.2    36  PHE36       0.2264
     16  O         38.1990    8.6340    1.7260 O.2    36  PHE36      -0.2867
     17  CB        35.3950    7.9860    2.4480 C.3    36  PHE36       0.0534
     18  CG        33.9550    7.5600    2.4520 C.ar   36  PHE36      -0.0203
     19  CD1       33.6100    6.2270    2.3220 C.ar   36  PHE36      -0.0042
     20  CD2       32.9460    8.4950    2.6020 C.ar   36  PHE36      -0.0042
     21  CE1       32.2900    5.8330    2.3400 C.ar   36  PHE36      -0.0003
     22  CE2       31.6230    8.1080    2.6190 C.ar   36  PHE36      -0.0003
     23  CZ        31.2950    6.7750    2.4890 C.ar   36  PHE36      -0.0000
     24  N         33.5340    2.1210   -1.0470 N.3    57  TRP57      -0.1227
     25  CA        32.1750    1.6450   -0.9530 C.3    57  TRP57       0.1737
     26  C         31.7140    1.2900   -2.3460 C.2    57  TRP57       0.2595
     27  O         31.2250    2.1470   -3.0910 O.2    57  TRP57      -0.2718
     28  CB        31.2540    2.7220   -0.3400 C.3    57  TRP57       0.0564
     29  CG        29.8600    2.2370    0.0070 C.ar   57  TRP57       0.0003
     30  CD1       29.0590    1.4120   -0.7360 C.ar   57  TRP57       0.0946
     31  CD2       29.1020    2.5720    1.1790 C.ar   57  TRP57       0.0152
     32  NE1       27.8650    1.2060   -0.0950 N.ar   57  TRP57      -0.2442
     33  CE2       27.8630    1.9070    1.0800 C.ar   57  TRP57       0.0810
     34  CE3       29.3500    3.3630    2.3020 C.ar   57  TRP57       0.0012
     35  CZ2       26.8800    2.0110    2.0590 C.ar   57  TRP57       0.0191
     36  CZ3       28.3720    3.4670    3.2730 C.ar   57  TRP57       0.0001
     37  CH2       27.1520    2.7940    3.1460 C.ar   57  TRP57       0.0015
     38  N         31.8830    0.0390   -2.7040 N.am   58  GLU58      -0.1965
     39  CA        31.5370   -0.4080   -4.0260 C.3    58  GLU58       0.1733
     40  C         30.0560   -0.6410   -4.1290 C.2    58  GLU58       0.2616
     41  O         29.5640   -1.7400   -3.8500 O.2    58  GLU58      -0.2715
     42  CB        32.2950   -1.6800   -4.3750 C.3    58  GLU58       0.0429
     43  CG        33.7980   -1.5380   -4.2690 C.3    58  GLU58       0.1163
     44  CD        34.5150   -2.8330   -4.5300 C.2    58  GLU58       0.3649
     45  OE1       34.8320   -3.5480   -3.5600 O.co2  58  GLU58      -0.2457
     46  OE2       34.7730   -3.1450   -5.7090 O.co2  58  GLU58      -0.2457
     47  N         29.3420    0.3900   -4.5080 N.am   59  ASP59      -0.1957
     48  CA        27.9100    0.2840   -4.6640 C.3    59  ASP59       0.1840
     49  C         27.5740    0.0230   -6.1180 C.2    59  ASP59       0.2623
     50  O         27.5470    0.9370   -6.9360 O.2    59  ASP59      -0.2715
     51  CB        27.1970    1.5420   -4.1510 C.3    59  ASP59       0.1450
     52  CG        25.6830    1.4180   -4.2090 C.2    59  ASP59       0.3671
     53  OD1       25.1060    1.7300   -5.2530 O.co2  59  ASP59      -0.2456
     54  OD2       25.0700    1.0070   -3.2030 O.co2  59  ASP59      -0.2456
     55  N         27.3590   -1.2460   -6.4360 N.am   60  THR60      -0.1937
     56  CA        27.0440   -1.6750   -7.7920 C.3    60  THR60       0.2028
     57  C         25.7910   -0.9700   -8.3280 C.2    60  THR60       0.2642
     58  O         25.6330   -0.7940   -9.5390 O.2    60  THR60      -0.2714
     59  CB        26.8520   -3.2150   -7.8550 C.3    60  THR60       0.1808
     60  OG1       26.6020   -3.6320   -9.2020 O.3    60  THR60      -0.2208
     61  CG2       25.7000   -3.6580   -6.9620 C.3    60  THR60       0.0379
     62  N         24.9350   -0.5280   -7.4160 N.am   61  HIS61      -0.1959
     63  CA        23.7040    0.1420   -7.7780 C.3    61  HIS61       0.1787
     64  C         24.0170    1.4740   -8.4560 C.2    61  HIS61       0.2620
     65  O         23.5640    1.7300   -9.5710 O.2    61  HIS61      -0.2715
     66  CB        22.8310    0.3350   -6.5210 C.3    61  HIS61       0.0785
     67  CG        21.6060    1.1810   -6.7080 C.ar   61  HIS61       0.0821
     68  ND1       20.3970    0.6780   -7.1330 N.ar   61  HIS61      -0.2267
     69  CD2       21.4010    2.4970   -6.4810 C.ar   61  HIS61       0.1154
     70  CE1       19.5040    1.6520   -7.1560 C.ar   61  HIS61       0.1986
     71  NE2       20.0880    2.7660   -6.7620 N.ar   61  HIS61      -0.2212
     72  N         24.8030    2.3100   -7.7910 N.am   62  LEU62      -0.1977
     73  CA        25.2100    3.6020   -8.3280 C.3    62  LEU62       0.1596
     74  C         26.2460    3.4690   -9.4370 C.2    62  LEU62       0.2287
     75  O         26.3890    4.3680  -10.2570 O.2    62  LEU62      -0.2864
     76  CB        25.7630    4.4970   -7.2190 C.3    62  LEU62       0.0297
     77  CG        24.7830    4.8810   -6.1120 C.3    62  LEU62       0.0022
     78  CD1       25.4820    5.7300   -5.0670 C.3    62  LEU62       0.0001
     79  CD2       23.5840    5.6230   -6.6870 C.3    62  LEU62       0.0001
     80  N         23.0970    7.2300  -11.0170 N.3    68  GLY68      -0.1210
     81  CA        21.6550    7.1840  -10.9530 C.3    68  GLY68       0.1956
     82  C         21.0530    8.5650  -11.0120 C.2    68  GLY68       0.2612
     83  O         21.4050    9.3570  -11.8820 O.2    68  GLY68      -0.2717
     84  N         20.1660    8.8620  -10.0780 N.am   69  ARG69      -0.1965
     85  CA        19.5240   10.1720  -10.0150 C.3    69  ARG69       0.1729
     86  C         20.5240   11.2530   -9.6240 C.2    69  ARG69       0.2616
     87  O         20.3220   12.4360   -9.9020 O.2    69  ARG69      -0.2715
     88  CB        18.3410   10.1740   -9.0260 C.3    69  ARG69       0.0348
     89  CG        18.7070    9.8410   -7.5740 C.3    69  ARG69       0.0492
     90  CD        18.6100    8.3460   -7.2900 C.3    69  ARG69       0.2205
     91  NE        17.2530    7.8390   -7.5130 N.pl3  69  ARG69      -0.0865
     92  CZ        16.9050    6.5480   -7.4640 C.cat  69  ARG69       0.5346
     93  NH1       17.8000    5.6210   -7.1790 N.pl3  69  ARG69       0.1354
     94  NH2       15.6510    6.1900   -7.6850 N.pl3  69  ARG69       0.1354
     95  N         21.6130   10.8400   -8.9970 N.am   70  TYR70      -0.1974
     96  CA        22.6260   11.7720   -8.5400 C.3    70  TYR70       0.1639
     97  C         23.4300   12.3260   -9.7120 C.2    70  TYR70       0.2290
     98  O         24.0660   13.3710   -9.5980 O.2    70  TYR70      -0.2864
     99  CB        23.5450   11.1040   -7.5090 C.3    70  TYR70       0.0560
    100  CG        22.8130   10.6420   -6.2630 C.ar   70  TYR70      -0.0198
    101  CD1       22.1050   11.5470   -5.4850 C.ar   70  TYR70      -0.0009
    102  CD2       22.8270    9.3030   -5.8630 C.ar   70  TYR70      -0.0009
    103  CE1       21.4320   11.1440   -4.3520 C.ar   70  TYR70       0.0417
    104  CE2       22.1550    8.8960   -4.7280 C.ar   70  TYR70       0.0417
    105  CZ        21.4590    9.8200   -3.9780 C.ar   70  TYR70       0.1957
    106  OH        20.7900    9.4170   -2.8470 O.3    70  TYR70      -0.2866
    107  N         18.8000   13.8810   -2.4680 N.3    76  PHE76      -0.1241
    108  CA        17.8650   12.9610   -1.8570 C.3    76  PHE76       0.1605
    109  C         17.9360   13.0680   -0.3380 C.2    76  PHE76       0.2264
    110  O         19.0240   13.1660    0.2400 O.2    76  PHE76      -0.2867
    111  CB        18.1570   11.5260   -2.3150 C.3    76  PHE76       0.0534
    112  CG        17.0350   10.5570   -2.0590 C.ar   76  PHE76      -0.0203
    113  CD1       15.8210   10.6940   -2.7170 C.ar   76  PHE76      -0.0042
    114  CD2       17.1950    9.5070   -1.1720 C.ar   76  PHE76      -0.0042
    115  CE1       14.7900    9.8020   -2.4930 C.ar   76  PHE76      -0.0003
    116  CE2       16.1670    8.6120   -0.9430 C.ar   76  PHE76      -0.0003
    117  CZ        14.9630    8.7600   -1.6040 C.ar   76  PHE76      -0.0000
    118  N         12.8680    0.7490    1.9560 N.3    86  HIS86      -0.1226
    119  CA        14.0340    0.3660    1.1650 C.3    86  HIS86       0.1752
    120  C         14.2510   -1.1460    1.1310 C.2    86  HIS86       0.2597
    121  O         13.7110   -1.8930    1.9570 O.2    86  HIS86      -0.2718
    122  CB        15.2870    1.0770    1.6590 C.3    86  HIS86       0.0759
    123  CG        15.5830    2.3440    0.9150 C.ar   86  HIS86       0.0818
    124  ND1       14.6970    2.9260    0.0360 N.ar   86  HIS86      -0.2268
    125  CD2       16.6880    3.1190    0.8940 C.ar   86  HIS86       0.1154
    126  CE1       15.2480    3.9990   -0.4970 C.ar   86  HIS86       0.1986
    127  NE2       16.4590    4.1430    0.0030 N.ar   86  HIS86      -0.2212
    128  N         15.0280   -1.5800    0.1520 N.am   87  SER87      -0.1938
    129  CA        15.3330   -2.9860   -0.0500 C.3    87  SER87       0.2040
    130  C         16.4940   -3.4310    0.8580 C.2    87  SER87       0.2485
    131  O         17.1660   -2.5930    1.4610 O.2    87  SER87      -0.2729
    132  CB        15.7070   -3.1980   -1.5170 C.3    87  SER87       0.2129
    133  OG        14.7280   -2.6290   -2.3680 O.3    87  SER87      -0.2179
    134  N         16.7270   -4.7640    0.9800 N.am   88  PRO88      -0.2715
    135  CA        17.8360   -5.3060    1.7790 C.3    88  PRO88       0.1536
    136  C         19.2020   -4.8610    1.2460 C.2    88  PRO88       0.2599
    137  O         19.3330   -4.4970    0.0660 O.2    88  PRO88      -0.2715
    138  CB        17.6760   -6.8230    1.6430 C.3    88  PRO88       0.0310
    139  CG        16.2620   -7.0210    1.2210 C.3    88  PRO88       0.0237
    140  CD        15.9200   -5.8370    0.3770 C.3    88  PRO88       0.0939
    141  N         20.2120   -4.9310    2.1190 N.am   89  CYS89      -0.1954
    142  CA        21.5680   -4.4450    1.8410 C.3    89  CYS89       0.1843
    143  C         21.5750   -2.9230    1.8160 C.2    89  CYS89       0.2625
    144  O         20.5200   -2.3020    1.7070 O.2    89  CYS89      -0.2714
    145  CB        22.1620   -5.0120    0.5360 C.3    89  CYS89       0.0997
    146  SG        23.8830   -4.4920    0.2510 S.3    89  CYS89      -0.0797
    147  N         22.7660   -2.3240    1.9800 N.am   90  HIS90      -0.1959
    148  CA        22.9330   -0.8680    2.0010 C.3    90  HIS90       0.1787
    149  C         22.4510   -0.3270    3.3390 C.2    90  HIS90       0.2620
    150  O         23.1220    0.4790    3.9770 O.2    90  HIS90      -0.2715
    151  CB        22.1980   -0.2050    0.8020 C.3    90  HIS90       0.0785
    152  CG        22.1460    1.2970    0.8310 C.ar   90  HIS90       0.0821
    153  ND1       20.9870    2.0060    0.6060 N.ar   90  HIS90      -0.2267
    154  CD2       23.1110    2.2210    1.0480 C.ar   90  HIS90       0.1154
    155  CE1       21.2350    3.2940    0.6840 C.ar   90  HIS90       0.1986
    156  NE2       22.5190    3.4560    0.9540 N.ar   90  HIS90      -0.2212
    157  N         21.3100   -0.8180    3.7670 N.am   91  ILE91      -0.1977
    158  CA        20.7270   -0.4440    5.0260 C.3    91  ILE91       0.1596
    159  C         21.5050   -1.0630    6.1860 C.2    91  ILE91       0.2287
    160  O         21.7000   -0.4350    7.2270 O.2    91  ILE91      -0.2864
    161  CB        19.2370   -0.8780    5.0910 C.3    91  ILE91       0.0276
    162  CG1       18.4420   -0.2220    3.9550 C.3    91  ILE91       0.0022
    163  CG2       18.6170   -0.5470    6.4430 C.3    91  ILE91       0.0022
    164  CD1       18.6580    1.2730    3.8530 C.3    91  ILE91       0.0001
    165  N         24.6220   -1.6610    6.3230 N.3    93  ILE93      -0.1231
    166  CA        25.8560   -0.9180    6.4800 C.3    93  ILE93       0.1692
    167  C         25.6040    0.3860    7.2400 C.2    93  ILE93       0.2591
    168  O         26.3600    0.7510    8.1360 O.2    93  ILE93      -0.2718
    169  CB        26.4930   -0.6030    5.1010 C.3    93  ILE93       0.0266
    170  CG1       26.5230   -1.8710    4.2280 C.3    93  ILE93       0.0019
    171  CG2       27.9010   -0.0540    5.2860 C.3    93  ILE93       0.0020
    172  CD1       27.0360   -1.6420    2.8180 C.3    93  ILE93       0.0001
    173  N         24.5160    1.0630    6.8930 N.am   94  LEU94      -0.1980
    174  CA        24.1580    2.3340    7.5240 C.3    94  LEU94       0.1596
    175  C         23.8340    2.1460    9.0020 C.2    94  LEU94       0.2287
    176  O         24.2810    2.9240    9.8500 O.2    94  LEU94      -0.2864
    177  CB        22.9730    2.9610    6.7990 C.3    94  LEU94       0.0297
    178  CG        23.2050    3.2870    5.3240 C.3    94  LEU94       0.0022
    179  CD1       21.9060    3.6900    4.6660 C.3    94  LEU94       0.0001
    180  CD2       24.2450    4.3910    5.1740 C.3    94  LEU94       0.0001
    181  N         19.7880   10.3370    6.7470 N.3   102  TYR102     -0.1241
    182  CA        20.8800   11.0940    6.1500 C.3   102  TYR102      0.1605
    183  C         20.3910   11.9150    4.9650 C.2   102  TYR102      0.2264
    184  O         19.2570   11.7530    4.4990 O.2   102  TYR102     -0.2867
    185  CB        22.0090   10.1510    5.6980 C.3   102  TYR102      0.0534
    186  CG        21.5630    9.0890    4.7160 C.ar  102  TYR102     -0.0201
    187  CD1       21.6190    9.3110    3.3470 C.ar  102  TYR102     -0.0009
    188  CD2       21.0730    7.8720    5.1610 C.ar  102  TYR102     -0.0009
    189  CE1       21.1980    8.3500    2.4500 C.ar  102  TYR102      0.0417
    190  CE2       20.6530    6.9070    4.2710 C.ar  102  TYR102      0.0417
    191  CZ        20.7160    7.1510    2.9180 C.ar  102  TYR102      0.1957
    192  OH        20.2890    6.1880    2.0290 O.3   102  TYR102     -0.2866
    193  N         21.7700   13.4070    1.0560 N.3   104  ILE104     -0.1245
    194  CA        22.7740   13.2980    0.0060 C.3   104  ILE104      0.1561
    195  C         22.6590   14.4580   -0.9750 C.2   104  ILE104      0.2260
    196  O         21.6210   14.6330   -1.6170 O.2   104  ILE104     -0.2867
    197  CB        22.6200   11.9790   -0.7980 C.3   104  ILE104      0.0252
    198  CG1       22.6180   10.7550    0.1280 C.3   104  ILE104      0.0019
    199  CG2       23.7290   11.8570   -1.8350 C.3   104  ILE104      0.0019
    200  CD1       23.9200   10.5350    0.8660 C.3   104  ILE104      0.0001
    201  N         29.6900   13.0390   -3.7960 N.3   116  LEU116     -0.1245
    202  CA        28.5260   13.3660   -3.0170 C.3   116  LEU116      0.1561
    203  C         28.9310   13.8360   -1.6310 C.2   116  LEU116      0.2260
    204  O         30.0150   13.5050   -1.1380 O.2   116  LEU116     -0.2867
    205  CB        27.6040   12.1470   -2.9050 C.3   116  LEU116      0.0270
    206  CG        27.1360   11.5370   -4.2310 C.3   116  LEU116      0.0019
    207  CD1       26.3120   10.2850   -3.9820 C.3   116  LEU116      0.0001
    208  CD2       26.3360   12.5510   -5.0370 C.3   116  LEU116      0.0001
    209  N         27.4800   13.7990    2.1830 N.3   118  ALA118     -0.1245
    210  CA        26.4730   13.2150    3.0360 C.3   118  ALA118      0.1562
    211  C         26.6650   13.6110    4.4820 C.2   118  ALA118      0.2260
    212  O         27.7890   13.7070    4.9670 O.2   118  ALA118     -0.2867
    213  CB        26.4960   11.7050    2.9010 C.3   118  ALA118      0.0290
    214  N         25.1900   12.7180    8.4340 N.3   120  TYR120     -0.1241
    215  CA        24.4580   11.7680    9.2500 C.3   120  TYR120      0.1605
    216  C         24.3940   12.2860   10.6810 C.2   120  TYR120      0.2264
    217  O         25.3050   12.9970   11.1220 O.2   120  TYR120     -0.2867
    218  CB        25.1820   10.4110    9.2490 C.3   120  TYR120      0.0534
    219  CG        25.8060   10.0020    7.9160 C.ar  120  TYR120     -0.0201
    220  CD1       27.0710   10.4550    7.5530 C.ar  120  TYR120     -0.0009
    221  CD2       25.1460    9.1490    7.0400 C.ar  120  TYR120     -0.0009
    222  CE1       27.6540   10.0750    6.3640 C.ar  120  TYR120      0.0417
    223  CE2       25.7250    8.7660    5.8430 C.ar  120  TYR120      0.0417
    224  CZ        26.9800    9.2330    5.5130 C.ar  120  TYR120      0.1957
    225  OH        27.5650    8.8500    4.3280 O.3   120  TYR120     -0.2866
@<TRIPOS>BOND
     1    83    82    2
     2    80    81    1
     3    82    81    1
     4    82    84   am
     5    75    74    2
     6    84    85    1
     7    85    86    1
     8    85    88    1
     9    87    86    2
    10    97    98    2
    11    97    96    1
    12    86    95   am
    13    65    64    2
    14    58    57    2
    15    74    73    1
    16    60    59    1
    17    88    89    1
    18    95    96    1
    19    96    99    1
    20    64    72   am
    21    64    63    1
    22    73    72    1
    23    73    76    1
    24    57    56    1
    25    57    62   am
    26    59    56    1
    27    59    61    1
    28    56    55    1
    29    63    62    1
    30    63    66    1
    31    94    92    1
    32    89    90    1
    33    91    92    2
    34    91    90    1
    35    99   100    1
    36    92    93    1
    37    76    77    1
    38    70    68   ar
    39    70    71   ar
    40    68    67   ar
    41    50    49    2
    42    71    69   ar
    43    67    66    1
    44    67    69   ar
    45    79    77    1
    46    55    49   am
    47   100   102   ar
    48   100   101   ar
    49    49    48    1
    50    77    78    1
    51   102   104   ar
    52    46    44   ar
    53   101   103   ar
    54    53    52   ar
    55   208   206    1
    56   104   105   ar
    57    48    47    1
    58    48    51    1
    59    44    43    1
    60    44    45   ar
    61    47    40   am
    62    42    43    1
    63    42    39    1
    64   103   105   ar
    65   206   207    1
    66   206   205    1
    67    52    51    1
    68    52    54   ar
    69    40    39    1
    70    40    41    2
    71    12    11    1
    72    39    38    1
    73   105   106    1
    74     9    11   ar
    75     9     7   ar
    76   201   202    1
    77    11    10   ar
    78     4     3    2
    79    27    26    2
    80     7     6   ar
    81   202   205    1
    82   202   203    1
    83   113   115   ar
    84   113   112   ar
    85    38    26   am
    86   115   117   ar
    87   107   108    1
    88     3     2    1
    89   133   132    1
    90    26    25    1
    91   111   112    1
    92   111   108    1
    93    10     8   ar
    94   112   114   ar
    95   108   109    1
    96   199   197    1
    97     6     8   ar
    98     6     5    1
    99   203   204    2
   100   196   195    2
   101   117   116   ar
   102   132   129    1
   103   114   116   ar
   104    24    25    1
   105   195   194    1
   106     2     5    1
   107     2     1    1
   108    25    28    1
   109   197   194    1
   110   197   198    1
   111    30    32   ar
   112    30    29   ar
   113   126   127   ar
   114   126   124   ar
   115    28    29    1
   116   109   110    2
   117    32    33   ar
   118   129   128    1
   119   129   130    1
   120   127   125   ar
   121   194   193    1
   122    29    31   ar
   123   124   123   ar
   124   137   136    2
   125   198   200    1
   126    13    14    1
   127   128   120   am
   128   146   145    1
   129   140   134    1
   130   140   139    1
   131   145   142    1
   132   153   155   ar
   133   153   152   ar
   134   155   156   ar
   135   151   152    1
   136   151   148    1
   137   152   154   ar
   138   130   134   am
   139   130   131    2
   140   125   123   ar
   141   123   122    1
   142   156   154   ar
   143   134   135    1
   144    33    31   ar
   145    33    35   ar
   146    14    15    1
   147    14    17    1
   148   120   119    1
   149   120   121    2
   150   119   122    1
   151   119   118    1
   152    31    34   ar
   153   139   138    1
   154   136   135    1
   155   136   141   am
   156    15    16    2
   157   138   135    1
   158   144   143    2
   159   143   142    1
   160   143   147   am
   161   142   141    1
   162   147   148    1
   163   148   149    1
   164   192   191    1
   165    35    37   ar
   166   209   210    1
   167    34    36   ar
   168    19    21   ar
   169    19    18   ar
   170    21    23   ar
   171    17    18    1
   172   189   191   ar
   173   189   187   ar
   174    18    20   ar
   175    23    22   ar
   176    20    22   ar
   177   172   170    1
   178   213   210    1
   179   191   190   ar
   180   210   211    1
   181    37    36   ar
   182   149   157   am
   183   149   150    2
   184   187   186   ar
   185   157   158    1
   186   164   162    1
   187   162   161    1
   188   170   169    1
   189   190   188   ar
   190   225   224    1
   191   211   212    2
   192   184   183    2
   193   179   178    1
   194   186   188   ar
   195   186   185    1
   196   183   182    1
   197   158   161    1
   198   158   159    1
   199   161   163    1
   200   169   171    1
   201   169   166    1
   202   180   178    1
   203   178   177    1
   204   224   223   ar
   205   224   222   ar
   206   185   182    1
   207   223   221   ar
   208   182   181    1
   209   159   160    2
   210   165   166    1
   211   222   220   ar
   212   166   167    1
   213   177   174    1
   214   173   167   am
   215   173   174    1
   216   221   219   ar
   217   167   168    2
   218   174   175    1
   219   220   219   ar
   220   219   218    1
   221   214   215    1
   222   175   176    2
   223   218   215    1
   224   215   216    1
   225   216   217    2
