@<TRIPOS>MOLECULE
tmp/6bhvB00.pdb
 79 75 0 0 0
SMALL
GASTEIGER

@<TRIPOS>ATOM
      1  N        -25.7010    3.9120   28.9860 N.3    89  HIS89      -0.1241
      2  CA       -26.6500    5.0020   29.2020 C.3    89  HIS89       0.1621
      3  C        -27.1270    4.9990   30.6470 C.2    89  HIS89       0.2264
      4  O        -27.7780    4.0520   31.0960 O.2    89  HIS89      -0.2867
      5  CB       -27.8580    4.8900   28.2640 C.3    89  HIS89       0.0745
      6  CG       -28.8500    5.9940   28.4470 C.ar   89  HIS89       0.0817
      7  ND1      -28.8120    7.1500   27.7000 N.ar   89  HIS89      -0.2268
      8  CD2      -29.8670    6.1450   29.3340 C.ar   89  HIS89       0.1154
      9  CE1      -29.7790    7.9580   28.1100 C.ar   89  HIS89       0.1986
     10  NE2      -30.4410    7.3680   29.0930 N.ar   89  HIS89      -0.2212
     11  N        -29.2220    6.8500   33.8960 N.3    91  SER91      -0.1202
     12  CA       -30.4130    7.6190   34.1630 C.3    91  SER91       0.2020
     13  C        -30.8200    7.4430   35.6230 C.2    91  SER91       0.2618
     14  O        -30.3710    6.5190   36.3250 O.2    91  SER91      -0.2717
     15  CB       -31.5600    7.1760   33.2480 C.3    91  SER91       0.2103
     16  OG       -32.6050    8.1310   33.2100 O.3    91  SER91      -0.2182
     17  N        -31.6620    8.3680   36.0890 N.am   92  ARG92      -0.1979
     18  CA       -32.2260    8.2730   37.4260 C.3    92  ARG92       0.1597
     19  C        -33.0520    6.9760   37.5360 C.2    92  ARG92       0.2287
     20  O        -33.7320    6.5620   36.5830 O.2    92  ARG92      -0.2864
     21  CB       -33.1480    9.4540   37.6790 C.3    92  ARG92       0.0334
     22  CG       -32.4490   10.7440   37.9180 C.3    92  ARG92       0.0492
     23  CD       -33.4710   11.8630   38.0820 C.3    92  ARG92       0.2205
     24  NE       -32.8830   13.0310   38.7510 N.pl3  92  ARG92      -0.0865
     25  CZ       -32.2350   14.0120   38.1470 C.cat  92  ARG92       0.5346
     26  NH1      -32.0580   14.0140   36.8190 N.pl3  92  ARG92       0.1354
     27  NH2      -31.7420   15.0080   38.8750 N.pl3  92  ARG92       0.1354
     28  N        -36.6780    6.9420   36.3900 N.3    95  ASN95      -0.1240
     29  CA       -37.0220    6.8560   34.9620 C.3    95  ASN95       0.1653
     30  C        -37.0870    5.4240   34.4310 C.2    95  ASN95       0.2266
     31  O        -37.5560    5.2210   33.3080 O.2    95  ASN95      -0.2867
     32  CB       -36.0290    7.6370   34.1000 C.3    95  ASN95       0.1155
     33  CG       -35.9510    9.1120   34.4680 C.2    95  ASN95       0.2627
     34  OD1      -36.8910    9.7060   34.9600 O.2    95  ASN95      -0.2716
     35  ND2      -34.7950    9.7000   34.2340 N.am   95  ASN95      -0.0877
     36  N        -40.4920    3.7770   32.9490 N.3    98  GLY98      -0.1210
     37  CA       -40.7480    4.2550   31.5890 C.3    98  GLY98       0.1956
     38  C        -39.7570    3.6940   30.5870 C.2    98  GLY98       0.2611
     39  O        -40.1490    3.2140   29.5160 O.2    98  GLY98      -0.2717
     40  N        -38.4710    3.7230   30.9330 N.am   99  ILE99      -0.1979
     41  CA       -37.4390    3.2540   30.0110 C.3    99  ILE99       0.1595
     42  C        -37.6510    1.8050   29.5890 C.2    99  ILE99       0.2287
     43  O        -37.5680    1.5180   28.3960 O.2    99  ILE99      -0.2864
     44  CB       -36.0120    3.4510   30.5720 C.3    99  ILE99       0.0276
     45  CG1      -35.6780    4.9550   30.6330 C.3    99  ILE99       0.0022
     46  CG2      -34.9710    2.7030   29.7340 C.3    99  ILE99       0.0022
     47  CD1      -34.4430    5.2780   31.4500 C.3    99  ILE99       0.0001
     48  N        -41.2720    1.4750   27.6550 N.3   102  GLN102     -0.1231
     49  CA       -41.3550    2.2500   26.4060 C.3   102  GLN102      0.1698
     50  C        -40.0810    2.2570   25.5550 C.2   102  GLN102      0.2593
     51  O        -40.1440    2.6310   24.3970 O.2   102  GLN102     -0.2718
     52  CB       -41.7290    3.6960   26.7160 C.3   102  GLN102      0.0381
     53  CG       -43.0570    3.8390   27.4470 C.3   102  GLN102      0.0905
     54  CD       -43.4860    5.2740   27.6510 C.2   102  GLN102      0.2608
     55  OE1      -42.6540    6.1830   27.7280 O.2   102  GLN102     -0.2717
     56  NE2      -44.7900    5.4910   27.7670 N.am  102  GLN102     -0.0878
     57  N        -38.9360    1.8580   26.1180 N.am  103  GLY103     -0.1942
     58  CA       -37.6360    2.0140   25.4440 C.3   103  GLY103      0.2014
     59  C        -37.0640    3.4110   25.6580 C.2   103  GLY103      0.2639
     60  O        -37.7390    4.2960   26.1560 O.2   103  GLY103     -0.2714
     61  N        -35.8040    3.6000   25.3010 N.am  104  LEU104     -0.1963
     62  CA       -35.1960    4.9460   25.3280 C.3   104  LEU104      0.1728
     63  C        -35.8700    5.8020   24.2540 C.2   104  LEU104      0.2616
     64  O        -35.9570    5.3820   23.0760 O.2   104  LEU104     -0.2715
     65  CB       -33.7040    4.9010   25.0950 C.3   104  LEU104      0.0311
     66  CG       -32.8600    4.3190   26.2310 C.3   104  LEU104      0.0022
     67  CD1      -31.4060    4.1290   25.8710 C.3   104  LEU104      0.0001
     68  CD2      -32.9720    5.1660   27.4890 C.3   104  LEU104      0.0001
     69  N        -36.4030    6.9470   24.6680 N.am  105  ARG105     -0.1977
     70  CA       -37.0810    7.8400   23.7450 C.3   105  ARG105      0.1597
     71  C        -36.3430    9.1490   23.5720 C.2   105  ARG105      0.2287
     72  O        -35.5190    9.5300   24.3680 O.2   105  ARG105     -0.2864
     73  CB       -38.5090    8.1120   24.2250 C.3   105  ARG105      0.0334
     74  CG       -39.4200    6.9040   24.1130 C.3   105  ARG105      0.0492
     75  CD       -40.8780    7.3090   24.2800 C.3   105  ARG105      0.2205
     76  NE       -41.1520    7.7400   25.6540 N.pl3 105  ARG105     -0.0865
     77  CZ       -41.8510    8.8200   26.0400 C.cat 105  ARG105      0.5346
     78  NH1      -42.3080    9.7040   25.1430 N.pl3 105  ARG105      0.1354
     79  NH2      -42.0120    9.0770   27.3350 N.pl3 105  ARG105      0.1354
@<TRIPOS>BOND
     1    64    63    2
     2    71    70    1
     3    71    72    2
     4    70    73    1
     5    70    69    1
     6    74    73    1
     7    74    75    1
     8    63    69   am
     9    63    62    1
    10    75    76    1
    11    51    50    2
    12    65    62    1
    13    65    66    1
    14    78    77    1
    15    61    62    1
    16    61    59   am
    17    58    59    1
    18    58    57    1
    19    50    57   am
    20    50    49    1
    21    76    77    2
    22    59    60    2
    23    67    66    1
    24    77    79    1
    25    66    68    1
    26    49    52    1
    27    49    48    1
    28    52    53    1
    29    53    54    1
    30    54    55    2
    31    54    56   am
    32     7     9   ar
    33     7     6   ar
    34     9    10   ar
    35     5     6    1
    36     5     2    1
    37    43    42    2
    38     6     8   ar
    39     1     2    1
    40    10     8   ar
    41     2     3    1
    42    39    38    2
    43    42    41    1
    44    46    44    1
    45    41    44    1
    46    41    40    1
    47    44    45    1
    48    38    40   am
    49    38    37    1
    50    45    47    1
    51     3     4    2
    52    37    36    1
    53    16    15    1
    54    15    12    1
    55    31    30    2
    56    11    12    1
    57    32    33    1
    58    32    29    1
    59    12    13    1
    60    35    33   am
    61    30    29    1
    62    33    34    2
    63    29    28    1
    64    13    17   am
    65    13    14    2
    66    17    18    1
    67    20    19    2
    68    26    25    1
    69    18    19    1
    70    18    21    1
    71    21    22    1
    72    22    23    1
    73    23    24    1
    74    25    24    2
    75    25    27    1
