@<TRIPOS>MOLECULE
tmp/6bhvD00.pdb
 124 120 0 0 0
SMALL
GASTEIGER

@<TRIPOS>ATOM
      1  N        -16.8080   40.2980   -3.9730 N.3    89  HIS89      -0.1226
      2  CA       -15.7420   39.3270   -4.2090 C.3    89  HIS89       0.1752
      3  C        -15.3000   38.7020   -2.8910 C.2    89  HIS89       0.2597
      4  O        -14.7860   39.3710   -2.0350 O.2    89  HIS89      -0.2718
      5  CB       -14.5360   39.9610   -4.9060 C.3    89  HIS89       0.0759
      6  CG       -13.4290   38.9870   -5.1760 C.ar   89  HIS89       0.0818
      7  ND1      -13.3300   38.2640   -6.3490 N.ar   89  HIS89      -0.2268
      8  CD2      -12.4100   38.5640   -4.3950 C.ar   89  HIS89       0.1154
      9  CE1      -12.2660   37.4880   -6.3090 C.ar   89  HIS89       0.1986
     10  NE2      -11.7020   37.6260   -5.1210 N.ar   89  HIS89      -0.2212
     11  N        -15.4870   37.3990   -2.7610 N.am   90  GLY90      -0.1942
     12  CA       -15.1030   36.6650   -1.5750 C.3    90  GLY90       0.2014
     13  C        -13.7530   36.0170   -1.8230 C.2    90  GLY90       0.2640
     14  O        -13.4370   35.6620   -2.9480 O.2    90  GLY90      -0.2714
     15  N        -12.9970   35.8190   -0.7460 N.am   91  SER91      -0.1935
     16  CA       -11.7460   35.0810   -0.7850 C.3    91  SER91       0.2055
     17  C        -11.3940   34.5640    0.6120 C.2    91  SER91       0.2642
     18  O        -11.9400   35.0300    1.6120 O.2    91  SER91      -0.2714
     19  CB       -10.6270   35.9620   -1.3210 C.3    91  SER91       0.2130
     20  OG        -9.4890   35.2110   -1.7120 O.3    91  SER91      -0.2179
     21  N        -10.4850   33.6090    0.6590 N.am   92  ARG92      -0.1977
     22  CA        -9.9170   33.1420    1.9070 C.3    92  ARG92       0.1597
     23  C         -9.2630   34.2760    2.6830 C.2    92  ARG92       0.2287
     24  O         -8.6200   35.1380    2.0910 O.2    92  ARG92      -0.2864
     25  CB        -8.8990   32.0290    1.6840 C.3    92  ARG92       0.0334
     26  CG        -9.4870   30.7400    1.1660 C.3    92  ARG92       0.0492
     27  CD        -8.3800   29.7520    0.8730 C.3    92  ARG92       0.2205
     28  NE        -8.8880   28.3770    0.8140 N.pl3  92  ARG92      -0.0865
     29  CZ        -9.3990   27.7810   -0.2590 C.cat  92  ARG92       0.5346
     30  NH1       -9.5010   28.4270   -1.4280 N.pl3  92  ARG92       0.1354
     31  NH2       -9.8150   26.5220   -0.1600 N.pl3  92  ARG92       0.1354
     32  N         -5.6420   35.1500    1.9620 N.3    95  ASN95      -0.1240
     33  CA        -5.2850   35.9310    0.7660 C.3    95  ASN95       0.1653
     34  C         -5.3670   37.4440    0.9570 C.2    95  ASN95       0.2266
     35  O         -4.9080   38.1780    0.0830 O.2    95  ASN95      -0.2867
     36  CB        -6.1700   35.5500   -0.4320 C.3    95  ASN95       0.1155
     37  CG        -6.0710   34.0980   -0.8000 C.2    95  ASN95       0.2627
     38  OD1       -5.0320   33.4660   -0.6090 O.2    95  ASN95      -0.2716
     39  ND2       -7.1590   33.5570   -1.3460 N.am   95  ASN95      -0.0877
     40  N         -2.1470   39.8900    0.6030 N.3    98  GLY98      -0.1210
     41  CA        -1.8120   40.0940   -0.8050 C.3    98  GLY98       0.1956
     42  C         -2.8470   40.9630   -1.5160 C.2    98  GLY98       0.2611
     43  O         -2.4910   41.9110   -2.2280 O.2    98  GLY98      -0.2717
     44  N         -4.1290   40.6680   -1.3030 N.am   99  ILE99      -0.1979
     45  CA        -5.1830   41.4080   -1.9790 C.3    99  ILE99       0.1595
     46  C         -5.1260   42.9050   -1.6930 C.2    99  ILE99       0.2287
     47  O         -5.2160   43.6970   -2.6320 O.2    99  ILE99      -0.2864
     48  CB        -6.6000   40.8580   -1.6640 C.3    99  ILE99       0.0276
     49  CG1       -6.7770   39.4710   -2.2930 C.3    99  ILE99       0.0022
     50  CG2       -7.7010   41.8140   -2.1620 C.3    99  ILE99       0.0022
     51  CD1       -7.9690   38.7220   -1.7700 C.3    99  ILE99       0.0001
     52  N         -1.5240   44.3960   -3.0290 N.3   102  GLN102     -0.1231
     53  CA        -1.3320   44.2910   -4.4760 C.3   102  GLN102      0.1698
     54  C         -2.5780   44.5550   -5.3250 C.2   102  GLN102      0.2593
     55  O         -2.4510   44.7540   -6.5260 O.2   102  GLN102     -0.2718
     56  CB        -0.8110   42.9080   -4.8320 C.3   102  GLN102      0.0381
     57  CG         0.4880   42.5140   -4.1750 C.3   102  GLN102      0.0905
     58  CD         1.1630   41.3340   -4.9100 C.2   102  GLN102      0.2608
     59  OE1        0.5760   40.6600   -5.7890 O.2   102  GLN102     -0.2717
     60  NE2        2.4200   41.1130   -4.5750 N.am  102  GLN102     -0.0878
     61  N         -3.7700   44.5500   -4.7220 N.am  103  GLY103     -0.1942
     62  CA        -5.0300   44.6010   -5.4820 C.3   103  GLY103      0.2014
     63  C         -5.4540   43.2170   -5.9520 C.2   103  GLY103      0.2639
     64  O         -4.6830   42.2570   -5.8480 O.2   103  GLY103     -0.2714
     65  N         -6.6800   43.1070   -6.4500 N.am  104  LEU104     -0.1963
     66  CA        -7.1340   41.8440   -7.0460 C.3   104  LEU104      0.1728
     67  C         -6.3500   41.5690   -8.3100 C.2   104  LEU104      0.2616
     68  O         -6.2820   42.4270   -9.1990 O.2   104  LEU104     -0.2715
     69  CB        -8.6370   41.8550   -7.3330 C.3   104  LEU104      0.0311
     70  CG        -9.5450   41.7850   -6.1110 C.3   104  LEU104      0.0022
     71  CD1      -11.0010   41.9750   -6.4970 C.3   104  LEU104      0.0001
     72  CD2       -9.3570   40.4660   -5.4050 C.3   104  LEU104      0.0001
     73  N         -5.7350   40.3940   -8.3740 N.am  105  ARG105     -0.1977
     74  CA        -4.9570   39.9970   -9.5460 C.3   105  ARG105      0.1597
     75  C         -5.6030   38.8260  -10.2490 C.2   105  ARG105      0.2287
     76  O         -6.4260   38.1070   -9.6810 O.2   105  ARG105     -0.2864
     77  CB        -3.5230   39.6430   -9.1460 C.3   105  ARG105      0.0334
     78  CG        -2.7220   40.8440   -8.6720 C.3   105  ARG105      0.0492
     79  CD        -1.5470   40.4400   -7.7770 C.3   105  ARG105      0.2205
     80  NE        -0.5450   39.6890   -8.5310 N.pl3 105  ARG105     -0.0865
     81  CZ         0.0890   38.5660   -8.1590 C.cat 105  ARG105      0.5346
     82  NH1        0.9630   38.0090   -9.0020 N.pl3 105  ARG105      0.1354
     83  NH2       -0.0960   38.0010   -6.9590 N.pl3 105  ARG105      0.1354
     84  N         -5.2270   35.2240  -11.8380 N.3   107  ALA107     -0.1245
     85  CA        -4.4050   34.1070  -11.3950 C.3   107  ALA107      0.1562
     86  C         -3.2430   33.8890  -12.3750 C.2   107  ALA107      0.2260
     87  O         -3.3840   34.1650  -13.5810 O.2   107  ALA107     -0.2867
     88  CB        -5.2500   32.8500  -11.2810 C.3   107  ALA107      0.0290
     89  N        -12.2880   27.2520  -14.3130 N.3   116  TYR116     -0.1241
     90  CA       -12.8600   28.5730  -14.4860 C.3   116  TYR116      0.1605
     91  C        -14.1290   28.5040  -15.3070 C.2   116  TYR116      0.2264
     92  O        -14.1550   27.8640  -16.3620 O.2   116  TYR116     -0.2867
     93  CB       -11.8540   29.4560  -15.2180 C.3   116  TYR116      0.0534
     94  CG       -10.7250   29.8650  -14.3490 C.ar  116  TYR116     -0.0201
     95  CD1       -9.4520   29.2940  -14.4770 C.ar  116  TYR116     -0.0009
     96  CD2      -10.9390   30.8070  -13.3560 C.ar  116  TYR116     -0.0009
     97  CE1       -8.4240   29.6570  -13.6200 C.ar  116  TYR116      0.0417
     98  CE2       -9.9190   31.1690  -12.4890 C.ar  116  TYR116      0.0417
     99  CZ        -8.6670   30.5900  -12.6240 C.ar  116  TYR116      0.1957
    100  OH        -7.6610   30.9540  -11.7710 O.3   116  TYR116     -0.2866
    101  N        -13.4080   37.6110  -10.7960 N.3   123  TYR123     -0.1241
    102  CA       -14.8080   37.2780  -10.6990 C.3   123  TYR123      0.1605
    103  C        -15.5130   38.0310   -9.5820 C.2   123  TYR123      0.2264
    104  O        -14.9790   38.1480   -8.4650 O.2   123  TYR123     -0.2867
    105  CB       -14.9610   35.7760  -10.4300 C.3   123  TYR123      0.0534
    106  CG       -14.6510   34.9370  -11.6340 C.ar  123  TYR123     -0.0201
    107  CD1      -13.3440   34.6980  -12.0200 C.ar  123  TYR123     -0.0009
    108  CD2      -15.6680   34.3980  -12.4050 C.ar  123  TYR123     -0.0009
    109  CE1      -13.0570   33.9250  -13.1500 C.ar  123  TYR123      0.0417
    110  CE2      -15.3810   33.6290  -13.5170 C.ar  123  TYR123      0.0417
    111  CZ       -14.0760   33.4070  -13.8890 C.ar  123  TYR123      0.1957
    112  OH       -13.8270   32.6470  -15.0090 O.3   123  TYR123     -0.2866
    113  N        -16.9620   31.7150   -1.3640 N.3   134  TYR134     -0.1241
    114  CA       -15.5230   31.7900   -1.6650 C.3   134  TYR134      0.1605
    115  C        -14.6380   32.2620   -0.4880 C.2   134  TYR134      0.2264
    116  O        -13.4030   32.3000   -0.6040 O.2   134  TYR134     -0.2867
    117  CB       -15.2810   32.6000   -2.9800 C.3   134  TYR134      0.0534
    118  CG       -15.8770   31.8150   -4.1400 C.ar  134  TYR134     -0.0201
    119  CD1      -15.1450   30.7960   -4.7470 C.ar  134  TYR134     -0.0009
    120  CD2      -17.2220   31.9960   -4.5370 C.ar  134  TYR134     -0.0009
    121  CE1      -15.7210   29.9740   -5.6920 C.ar  134  TYR134      0.0417
    122  CE2      -17.8050   31.1720   -5.4870 C.ar  134  TYR134      0.0417
    123  CZ       -17.0410   30.1640   -6.0760 C.ar  134  TYR134      0.1957
    124  OH       -17.5380   29.3170   -7.0410 O.3   134  TYR134     -0.2866
@<TRIPOS>BOND
     1    92    91    2
     2    91    90    1
     3    93    90    1
     4    93    94    1
     5   112   111    1
     6    90    89    1
     7    95    94   ar
     8    95    97   ar
     9    94    96   ar
    10   111   110   ar
    11   111   109   ar
    12    97    99   ar
    13    87    86    2
    14   110   108   ar
    15    96    98   ar
    16   109   107   ar
    17    99    98   ar
    18    99   100    1
    19   108   106   ar
    20    86    85    1
    21   107   106   ar
    22    84    85    1
    23   106   105    1
    24    85    88    1
    25   101   102    1
    26   102   105    1
    27   102   103    1
    28    75    76    2
    29    75    74    1
    30   103   104    2
    31    74    77    1
    32    74    73    1
    33    68    67    2
    34    77    78    1
    35    82    81    1
    36    78    79    1
    37    80    81    2
    38    80    79    1
    39    73    67   am
    40    67    66    1
    41    81    83    1
    42    69    66    1
    43    69    70    1
    44    66    65    1
    45   124   123    1
    46    55    54    2
    47    71    70    1
    48    65    63   am
    49     7     9   ar
    50     7     6   ar
    51     9    10   ar
    52    70    72    1
    53   123   121   ar
    54   123   122   ar
    55    63    64    2
    56    63    62    1
    57    59    58    2
    58   121   119   ar
    59   122   120   ar
    60    62    61    1
    61    54    61   am
    62    54    53    1
    63     6     5    1
    64     6     8   ar
    65    10     8   ar
    66    58    60   am
    67    58    57    1
    68     5     2    1
    69    56    53    1
    70    56    57    1
    71   119   118   ar
    72   120   118   ar
    73    53    52    1
    74     2     1    1
    75     2     3    1
    76   118   117    1
    77   117   114    1
    78    14    13    2
    79     3    11   am
    80     3     4    2
    81    11    12    1
    82    47    46    2
    83    49    51    1
    84    49    48    1
    85    43    42    2
    86    50    48    1
    87    45    46    1
    88    45    48    1
    89    45    44    1
    90    13    12    1
    91    13    15   am
    92    20    19    1
    93   114   113    1
    94   114   115    1
    95    42    44   am
    96    42    41    1
    97    30    29    1
    98    39    37   am
    99    19    16    1
   100    41    40    1
   101    37    38    2
   102    37    36    1
   103    16    15    1
   104    16    17    1
   105   116   115    2
   106    36    33    1
   107    29    31    1
   108    29    28    2
   109    35    34    2
   110    17    21   am
   111    17    18    2
   112    21    22    1
   113    33    34    1
   114    33    32    1
   115    28    27    1
   116    27    26    1
   117    26    25    1
   118    25    22    1
   119    22    23    1
   120    24    23    2
