@<TRIPOS>MOLECULE
tmp/6bhvC00.pdb
 168 163 0 0 0
SMALL
GASTEIGER

@<TRIPOS>ATOM
      1  N         -6.6090   10.7430   -9.3470 N.3    87  HIS87      -0.1226
      2  CA        -5.4630   11.6130   -9.1370 C.3    87  HIS87       0.1752
      3  C         -4.9530   12.1380  -10.4850 C.2    87  HIS87       0.2597
      4  O         -4.4760   11.3700  -11.3280 O.2    87  HIS87      -0.2718
      5  CB        -4.3180   10.9060   -8.4030 C.3    87  HIS87       0.0759
      6  CG        -3.1410   11.8010   -8.1650 C.ar   87  HIS87       0.0818
      7  ND1       -2.9800   12.5250   -7.0000 N.ar   87  HIS87      -0.2268
      8  CD2       -2.0850   12.1160   -8.9600 C.ar   87  HIS87       0.1154
      9  CE1       -1.8580   13.2250   -7.0790 C.ar   87  HIS87       0.1986
     10  NE2       -1.2970   12.9940   -8.2550 N.ar   87  HIS87      -0.2212
     11  N         -5.0380   13.4510  -10.6680 N.am   88  GLY88      -0.1942
     12  CA        -4.6030   14.0840  -11.8890 C.3    88  GLY88       0.2014
     13  C         -3.2390   14.6880  -11.6820 C.2    88  GLY88       0.2639
     14  O         -2.8660   15.0220  -10.5500 O.2    88  GLY88      -0.2714
     15  N         -2.4960   14.8030  -12.7760 N.am   89  SER89      -0.1949
     16  CA        -1.1640   15.3950  -12.7700 C.3    89  SER89       0.1924
     17  C         -0.7840   15.7880  -14.1970 C.2    89  SER89       0.2314
     18  O         -1.3910   15.3520  -15.1800 O.2    89  SER89      -0.2863
     19  CB        -0.1370   14.3930  -12.2140 C.3    89  SER89       0.2116
     20  OG         1.0750   15.0240  -11.8700 O.3    89  SER89      -0.2180
     21  N          4.8630   14.5280  -15.5380 N.3    93  ASN93      -0.1240
     22  CA         5.1620   13.7800  -14.3120 C.3    93  ASN93       0.1653
     23  C          4.9330   12.2740  -14.4370 C.2    93  ASN93       0.2266
     24  O          5.3350   11.5230  -13.5360 O.2    93  ASN93      -0.2867
     25  CB         4.3400   14.2960  -13.1280 C.3    93  ASN93       0.1155
     26  CG         4.5840   15.7600  -12.8320 C.2    93  ASN93       0.2627
     27  OD1        5.6750   16.2860  -13.0760 O.2    93  ASN93      -0.2716
     28  ND2        3.5560   16.4320  -12.3070 N.am   93  ASN93      -0.0877
     29  N          7.9070    9.5310  -14.0200 N.3    96  GLY96      -0.1210
     30  CA         8.2350    9.3320  -12.6140 C.3    96  GLY96       0.1956
     31  C          7.1320    8.5940  -11.8680 C.2    96  GLY96       0.2611
     32  O          7.3990    7.6380  -11.1280 O.2    96  GLY96      -0.2717
     33  N          5.8890    9.0110  -12.0780 N.am   97  ILE97      -0.1979
     34  CA         4.7660    8.4010  -11.3640 C.3    97  ILE97       0.1595
     35  C          4.6750    6.8900  -11.6120 C.2    97  ILE97       0.2287
     36  O          4.5200    6.1390  -10.6490 O.2    97  ILE97      -0.2864
     37  CB         3.4210    9.0830  -11.6810 C.3    97  ILE97       0.0276
     38  CG1        3.3930   10.4990  -11.0920 C.3    97  ILE97       0.0022
     39  CG2        2.2640    8.2840  -11.1010 C.3    97  ILE97       0.0022
     40  CD1        2.2690   11.3850  -11.6120 C.3    97  ILE97       0.0001
     41  N          8.1220    5.0950  -10.2560 N.3   100  GLN100     -0.1231
     42  CA         8.3340    5.2310   -8.8100 C.3   100  GLN100      0.1698
     43  C          7.0760    5.1170   -7.9440 C.2   100  GLN100      0.2593
     44  O          7.1960    4.9450   -6.7420 O.2   100  GLN100     -0.2718
     45  CB         8.9930    6.5720   -8.5040 C.3   100  GLN100      0.0381
     46  CG        10.3360    6.7760   -9.1930 C.3   100  GLN100      0.0905
     47  CD        11.0810    7.9900   -8.6500 C.2   100  GLN100      0.2608
     48  OE1       10.4500    8.9920   -8.2530 O.2   100  GLN100     -0.2717
     49  NE2       12.4180    7.9230   -8.6360 N.am  100  GLN100     -0.0878
     50  N          5.8850    5.2160   -8.5380 N.am  101  GLY101     -0.1942
     51  CA         4.6340    5.3090   -7.7730 C.3   101  GLY101      0.2014
     52  C          4.3460    6.7440   -7.3430 C.2   101  GLY101      0.2639
     53  O          5.2050    7.6200   -7.4580 O.2   101  GLY101     -0.2714
     54  N          3.1250    6.9920   -6.8600 N.am  102  LEU102     -0.1963
     55  CA         2.8030    8.2850   -6.2620 C.3   102  LEU102      0.1728
     56  C          3.6060    8.4550   -4.9760 C.2   102  LEU102      0.2616
     57  O          3.5750    7.5900   -4.1020 O.2   102  LEU102     -0.2715
     58  CB         1.3090    8.4140   -5.9770 C.3   102  LEU102      0.0311
     59  CG         0.4170    8.6150   -7.1970 C.3   102  LEU102      0.0022
     60  CD1       -1.0620    8.5780   -6.8070 C.3   102  LEU102      0.0001
     61  CD2        0.7550    9.9190   -7.9140 C.3   102  LEU102      0.0001
     62  N          4.3380    9.5550   -4.8910 N.am  103  ARG103     -0.1963
     63  CA         5.1680    9.8570   -3.7290 C.3   103  ARG103      0.1729
     64  C          4.6710   11.0820   -2.9770 C.2   103  ARG103      0.2616
     65  O          3.9120   11.8620   -3.5190 O.2   103  ARG103     -0.2715
     66  CB         6.6470    9.9990   -4.1130 C.3   103  ARG103      0.0348
     67  CG         7.0360   10.9360   -5.2420 C.3   103  ARG103      0.0492
     68  CD         8.5390   11.0110   -5.3040 C.3   103  ARG103      0.2205
     69  NE         9.0120   11.2090   -6.6760 N.pl3 103  ARG103     -0.0865
     70  CZ        10.0640   11.9430   -7.0550 C.cat 103  ARG103      0.5346
     71  NH1       10.8280   12.6050   -6.1800 N.pl3 103  ARG103      0.1354
     72  NH2       10.3740   12.0080   -8.3560 N.pl3 103  ARG103      0.1354
     73  N          5.1310   11.2260   -1.7540 N.am  104  ILE104     -0.1977
     74  CA         4.8700   12.4030   -0.9420 C.3   104  ILE104      0.1596
     75  C          5.8760   13.4660   -1.3290 C.2   104  ILE104      0.2287
     76  O          5.5440   14.3460   -2.0760 O.2   104  ILE104     -0.2864
     77  CB         5.0550   12.1510    0.5620 C.3   104  ILE104      0.0276
     78  CG1        4.3320   10.8870    1.0500 C.3   104  ILE104      0.0022
     79  CG2        4.5720   13.3540    1.3520 C.3   104  ILE104      0.0022
     80  CD1        2.9190   10.7450    0.5910 C.3   104  ILE104      0.0001
     81  N         -0.7250   23.1770    0.8680 N.3   105  TYR105     -0.1227
     82  CA        -1.3870   21.9200    1.2120 C.3   105  TYR105      0.1736
     83  C         -2.5910   22.1790    2.0810 C.2   105  TYR105      0.2595
     84  O         -2.5070   22.8460    3.1050 O.2   105  TYR105     -0.2718
     85  CB        -0.4380   20.9790    1.9750 C.3   105  TYR105      0.0548
     86  CG         0.6350   20.4460    1.0800 C.ar  105  TYR105     -0.0200
     87  CD1        1.9460   20.9340    1.1480 C.ar  105  TYR105     -0.0009
     88  CD2        0.3290   19.4910    0.1110 C.ar  105  TYR105     -0.0009
     89  CE1        2.9230   20.4570    0.2980 C.ar  105  TYR105      0.0417
     90  CE2        1.2960   19.0180   -0.7440 C.ar  105  TYR105      0.0417
     91  CZ         2.5930   19.5040   -0.6560 C.ar  105  TYR105      0.1957
     92  OH         3.5650   19.0250   -1.5040 O.3   105  TYR105     -0.2866
     93  N         -3.7240   21.6290    1.6720 N.am  106  MET106     -0.1979
     94  CA        -4.9350   21.6970    2.4780 C.3   106  MET106      0.1605
     95  C         -4.8000   20.8710    3.7830 C.2   106  MET106      0.2287
     96  O         -5.2440   21.2970    4.8360 O.2   106  MET106     -0.2864
     97  CB        -6.1100   21.2230    1.6280 C.3   106  MET106      0.0413
     98  CG        -6.6830   22.2500    0.6810 C.3   106  MET106      0.0598
     99  SD        -7.9080   23.2210    1.5630 S.3   106  MET106     -0.1393
    100  CE        -9.2280   23.3130    0.3450 C.3   106  MET106      0.0692
    101  N          0.7210   14.6760    2.0070 N.3   110  GLY110     -0.1225
    102  CA         0.2560   13.3250    1.7200 C.3   110  GLY110      0.1811
    103  C          0.0610   13.1460    0.2340 C.2   110  GLY110      0.2280
    104  O          0.5610   13.9300   -0.5620 O.2   110  GLY110     -0.2866
    105  N         -2.9050   13.0840   -2.4420 N.3   112  TYR112     -0.1227
    106  CA        -4.2660   13.5880   -2.5490 C.3   112  TYR112      0.1736
    107  C         -5.0440   12.9200   -3.6760 C.2   112  TYR112      0.2595
    108  O         -4.5120   12.7330   -4.7930 O.2   112  TYR112     -0.2718
    109  CB        -4.2450   15.0900   -2.7880 C.3   112  TYR112      0.0548
    110  CG        -3.8450   15.8770   -1.5710 C.ar  112  TYR112     -0.0200
    111  CD1       -2.5220   15.9550   -1.1740 C.ar  112  TYR112     -0.0009
    112  CD2       -4.7950   16.5340   -0.8000 C.ar  112  TYR112     -0.0009
    113  CE1       -2.1540   16.6720   -0.0380 C.ar  112  TYR112      0.0417
    114  CE2       -4.4290   17.2690    0.3200 C.ar  112  TYR112      0.0417
    115  CZ        -3.1110   17.3250    0.7030 C.ar  112  TYR112      0.1957
    116  OH        -2.7580   18.0370    1.8150 O.3   112  TYR112     -0.2866
    117  N         -6.3120   12.6070   -3.3710 N.am  113  PHE113     -0.1962
    118  CA        -7.2660   12.0210   -4.3060 C.3   113  PHE113      0.1771
    119  C         -8.6120   12.7300   -4.2300 C.2   113  PHE113      0.2619
    120  O         -8.9300   13.3620   -3.2190 O.2   113  PHE113     -0.2715
    121  CB        -7.4870   10.5230   -3.9920 C.3   113  PHE113      0.0574
    122  CG        -6.2460    9.7040   -4.0790 C.ar  113  PHE113     -0.0200
    123  CD1       -5.4180    9.5700   -2.9870 C.ar  113  PHE113     -0.0042
    124  CD2       -5.8990    9.0770   -5.2630 C.ar  113  PHE113     -0.0042
    125  CE1       -4.2410    8.8410   -3.0740 C.ar  113  PHE113     -0.0003
    126  CE2       -4.7460    8.3190   -5.3650 C.ar  113  PHE113     -0.0003
    127  CZ        -3.9090    8.2050   -4.2660 C.ar  113  PHE113     -0.0000
    128  N         -9.4010   12.5770   -5.2970 N.am  114  ALA114     -0.1977
    129  CA       -10.7710   13.0640   -5.3610 C.3   114  ALA114      0.1597
    130  C        -11.7270   11.9580   -5.8180 C.2   114  ALA114      0.2287
    131  O        -11.3070   10.9900   -6.4520 O.2   114  ALA114     -0.2864
    132  CB       -10.8610   14.2480   -6.3130 C.3   114  ALA114      0.0319
    133  N        -12.4840   17.6330  -10.4250 N.3   119  LYS119     -0.1231
    134  CA       -11.5500   18.1750   -9.4400 C.3   119  LYS119      0.1693
    135  C        -10.1150   17.7390   -9.7360 C.2   119  LYS119      0.2592
    136  O         -9.2270   18.5900   -9.7700 O.2   119  LYS119     -0.2718
    137  CB       -11.9070   17.7680   -8.0120 C.3   119  LYS119      0.0285
    138  CG       -10.9290   18.2790   -6.9530 C.3   119  LYS119      0.0035
    139  CD       -11.6680   18.4730   -5.6460 C.3   119  LYS119      0.0206
    140  CE       -10.7580   18.7860   -4.4580 C.3   119  LYS119      0.1093
    141  NZ       -11.5410   18.8990   -3.1840 N.3   119  LYS119     -0.1314
    142  N         -9.9030   16.4500   -9.9680 N.am  120  SER120     -0.1952
    143  CA        -8.5820   15.9390  -10.2880 C.3   120  SER120      0.1924
    144  C         -8.1340   16.3210  -11.7140 C.2   120  SER120      0.2314
    145  O         -6.9480   16.5810  -11.9680 O.2   120  SER120     -0.2863
    146  CB        -8.5460   14.4110  -10.1370 C.3   120  SER120      0.2116
    147  OG        -8.6400   14.0170   -8.7750 O.3   120  SER120     -0.2180
    148  N         -5.9700   19.2620  -12.3450 N.3   123  TYR123     -0.1241
    149  CA        -4.5260   19.0780  -12.0850 C.3   123  TYR123      0.1605
    150  C         -3.7290   18.4810  -13.2610 C.2   123  TYR123      0.2264
    151  O         -2.5080   18.3440  -13.1650 O.2   123  TYR123     -0.2867
    152  CB        -4.3180   18.3160  -10.7510 C.3   123  TYR123      0.0534
    153  CG        -4.8090   19.1610   -9.6040 C.ar  123  TYR123     -0.0201
    154  CD1       -3.9970   20.1560   -9.0440 C.ar  123  TYR123     -0.0009
    155  CD2       -6.1200   19.0490   -9.1480 C.ar  123  TYR123     -0.0009
    156  CE1       -4.4620   20.9640   -8.0240 C.ar  123  TYR123      0.0417
    157  CE2       -6.6010   19.8470   -8.1030 C.ar  123  TYR123      0.0417
    158  CZ        -5.7710   20.8090   -7.5510 C.ar  123  TYR123      0.1957
    159  OH        -6.2180   21.6190   -6.5440 O.3   123  TYR123     -0.2866
    160  N        -11.9790   15.5380   -0.6310 N.3   204  GLU204     -0.1245
    161  CA       -10.6620   15.0300   -0.9480 C.3   204  GLU204      0.1567
    162  C        -10.2330   14.0170    0.0920 C.2   204  GLU204      0.2260
    163  O        -10.7270   13.9980    1.2120 O.2   204  GLU204     -0.2867
    164  CB        -9.6010   16.1210   -1.1170 C.3   204  GLU204      0.0388
    165  CG        -9.6640   17.2880   -0.1650 C.3   204  GLU204      0.1160
    166  CD        -8.8610   18.4730   -0.6720 C.2   204  GLU204      0.3649
    167  OE1       -9.3580   19.2220   -1.5420 O.co2 204  GLU204     -0.2457
    168  OE2       -7.7140   18.6350   -0.2150 O.co2 204  GLU204     -0.2457
@<TRIPOS>BOND
     1    21    22    1
     2    18    17    2
     3    23    22    1
     4    23    24    2
     5    22    25    1
     6    17    16    1
     7    29    30    1
     8   150   151    2
     9   150   149    1
    10    25    26    1
    11    27    26    2
    12    26    28   am
    13    15    16    1
    14    15    13   am
    15    16    19    1
    16    30    31    1
    17   148   149    1
    18    19    20    1
    19   149   152    1
    20    33    31   am
    21    33    34    1
    22   145   144    2
    23    12    13    1
    24    12    11    1
    25    31    32    2
    26   144   143    1
    27    13    14    2
    28    37    34    1
    29    37    39    1
    30    37    38    1
    31    35    34    1
    32    35    36    2
    33    40    38    1
    34     4     3    2
    35   152   153    1
    36    11     3   am
    37     3     2    1
    38   133   134    1
    39   143   146    1
    40   143   142    1
    41    41    42    1
    42   146   147    1
    43   142   135   am
    44   136   135    2
    45   135   134    1
    46   153   155   ar
    47   153   154   ar
    48   134   137    1
    49     1     2    1
    50    46    47    1
    51    46    45    1
    52   155   157   ar
    53     2     5    1
    54   154   156   ar
    55     8    10   ar
    56     8     6   ar
    57    42    45    1
    58    42    43    1
    59    47    49   am
    60    47    48    2
    61    50    43   am
    62    50    51    1
    63     5     6    1
    64    72    70    1
    65    10     9   ar
    66     6     7   ar
    67   157   158   ar
    68   156   158   ar
    69   137   138    1
    70    43    44    2
    71    61    59    1
    72    51    52    1
    73   158   159    1
    74    53    52    2
    75    52    54   am
    76    59    60    1
    77    59    58    1
    78     9     7   ar
    79    70    69    2
    80    70    71    1
    81   138   139    1
    82    54    55    1
    83    69    68    1
    84   131   130    2
    85   132   129    1
    86    55    58    1
    87    55    56    1
    88   130   129    1
    89   139   140    1
    90   126   124   ar
    91   126   127   ar
    92   129   128    1
    93    68    67    1
    94   128   119   am
    95   124   122   ar
    96    67    66    1
    97    56    62   am
    98    56    57    2
    99    62    63    1
   100   108   107    2
   101   140   141    1
   102   118   119    1
   103   118   121    1
   104   118   117    1
   105   127   125   ar
   106   119   120    2
   107    66    63    1
   108   122   121    1
   109   122   123   ar
   110    63    64    1
   111   107   117   am
   112   107   106    1
   113    65    64    2
   114   125   123   ar
   115    64    73   am
   116   109   106    1
   117   109   110    1
   118   106   105    1
   119    76    75    2
   120    73    74    1
   121   110   111   ar
   122   110   112   ar
   123   167   166   ar
   124    92    91    1
   125    75    74    1
   126   111   113   ar
   127   164   161    1
   128   164   165    1
   129   161   160    1
   130   161   162    1
   131    74    77    1
   132   112   114   ar
   133    90    91   ar
   134    90    88   ar
   135   166   168   ar
   136   166   165    1
   137    91    89   ar
   138   104   103    2
   139   113   115   ar
   140   162   163    2
   141    88    86   ar
   142   103   102    1
   143    89    87   ar
   144   114   115   ar
   145   100    99    1
   146    77    78    1
   147    77    79    1
   148    80    78    1
   149    98    99    1
   150    98    97    1
   151   115   116    1
   152    81    82    1
   153    86    87   ar
   154    86    85    1
   155    82    85    1
   156    82    83    1
   157    97    94    1
   158    93    83   am
   159    93    94    1
   160   102   101    1
   161    83    84    2
   162    94    95    1
   163    95    96    2
