@<TRIPOS>MOLECULE
tmp/6bi9A00.pdb
 99 92 0 0 0
SMALL
GASTEIGER

@<TRIPOS>ATOM
      1  N          1.1250   22.7940   50.3390 N.3   113  LEU113     -0.1231
      2  CA        -0.2120   23.3400   50.5630 C.3   113  LEU113      0.1693
      3  C         -0.1330   24.7890   51.0470 C.2   113  LEU113      0.2592
      4  O          0.7120   25.1430   51.8800 O.2   113  LEU113     -0.2718
      5  CB        -0.9600   22.4730   51.5730 C.3   113  LEU113      0.0284
      6  CG        -1.3600   21.1010   50.9930 C.3   113  LEU113      0.0019
      7  CD1       -1.2790   20.0290   52.0530 C.3   113  LEU113      0.0001
      8  CD2       -2.7420   21.2100   50.4500 C.3   113  LEU113      0.0001
      9  N         -1.0370   25.6340   50.5520 N.am  114  ALA114     -0.1966
     10  CA        -0.9710   27.0650   50.8260 C.3   114  ALA114      0.1728
     11  C         -2.3530   27.6980   50.8910 C.2   114  ALA114      0.2616
     12  O         -3.3350   27.1380   50.3940 O.2   114  ALA114     -0.2715
     13  CB        -0.1540   27.7790   49.7460 C.3   114  ALA114      0.0334
     14  N         -2.4150   28.8970   51.4770 N.am  115  GLY115     -0.1955
     15  CA        -3.6380   29.7100   51.4470 C.3   115  GLY115      0.1869
     16  C         -3.6380   30.7120   50.2970 C.2   115  GLY115      0.2309
     17  O         -2.6050   31.2780   49.9350 O.2   115  GLY115     -0.2863
     18  N          5.3650   32.6540   55.4960 N.3   192  ASN192     -0.1240
     19  CA         4.9400   32.8710   56.8960 C.3   192  ASN192      0.1653
     20  C          5.6410   31.7820   57.6990 C.2   192  ASN192      0.2266
     21  O          5.3480   30.6020   57.5040 O.2   192  ASN192     -0.2867
     22  CB         3.3970   32.6640   57.0320 C.3   192  ASN192      0.1155
     23  CG         2.8790   32.5350   58.4990 C.2   192  ASN192      0.2627
     24  OD1        3.4360   33.0930   59.4370 O.2   192  ASN192     -0.2716
     25  ND2        1.7700   31.7880   58.6720 N.am  192  ASN192     -0.0877
     26  N         -1.8790   29.5120   61.3090 N.3   197  TYR197     -0.1227
     27  CA        -2.3870   30.0380   60.0480 C.3   197  TYR197      0.1736
     28  C         -2.4070   31.5590   60.1590 C.2   197  TYR197      0.2595
     29  O         -2.6330   32.1080   61.2400 O.2   197  TYR197     -0.2718
     30  CB        -3.7860   29.4600   59.7370 C.3   197  TYR197      0.0548
     31  CG        -3.7910   27.9570   59.4480 C.ar  197  TYR197     -0.0200
     32  CD1       -3.1670   27.4350   58.3050 C.ar  197  TYR197     -0.0009
     33  CD2       -4.3990   27.0630   60.3090 C.ar  197  TYR197     -0.0009
     34  CE1       -3.1680   26.0670   58.0550 C.ar  197  TYR197      0.0417
     35  CE2       -4.4030   25.7080   60.0560 C.ar  197  TYR197      0.0417
     36  CZ        -3.7880   25.2240   58.9330 C.ar  197  TYR197      0.1957
     37  OH        -3.7930   23.8800   58.6960 O.3   197  TYR197     -0.2866
     38  N         -2.1220   32.2640   59.0690 N.am  198  GLU198     -0.1979
     39  CA        -2.1210   33.7230   59.1840 C.3   198  GLU198      0.1602
     40  C         -3.4990   34.2250   59.6220 C.2   198  GLU198      0.2287
     41  O         -4.5480   33.6690   59.2700 O.2   198  GLU198     -0.2864
     42  CB        -1.6690   34.4080   57.8820 C.3   198  GLU198      0.0415
     43  CG        -2.7020   34.5870   56.8220 C.3   198  GLU198      0.1163
     44  CD        -2.9700   33.3040   56.1300 C.2   198  GLU198      0.3649
     45  OE1       -2.1530   32.3930   56.3540 O.co2 198  GLU198     -0.2457
     46  OE2       -3.9630   33.1990   55.3760 O.co2 198  GLU198     -0.2457
     47  N          0.1200   32.2950   50.4120 N.3   214  VAL214     -0.1231
     48  CA         0.9110   32.2810   51.6510 C.3   214  VAL214      0.1692
     49  C          1.0550   30.8450   52.1650 C.2   214  VAL214      0.2593
     50  O          0.0940   30.0560   52.1560 O.2   214  VAL214     -0.2718
     51  CB         0.2920   33.2070   52.7350 C.3   214  VAL214      0.0266
     52  CG1       -1.1510   32.8250   53.0580 C.3   214  VAL214      0.0020
     53  CG2        1.1310   33.2380   54.0230 C.3   214  VAL214      0.0020
     54  N          2.2650   30.5020   52.6270 N.am  215  GLY215     -0.1942
     55  CA         2.4680   29.2190   53.2880 C.3   215  GLY215      0.2014
     56  C          3.6900   29.2010   54.1910 C.2   215  GLY215      0.2638
     57  O          4.4080   30.1990   54.3070 O.2   215  GLY215     -0.2714
     58  N          3.9300   28.0260   54.8120 N.am  216  MET216     -0.1976
     59  CA         4.9100   27.8630   55.8910 C.3   216  MET216      0.1605
     60  C          6.1330   27.0110   55.5060 C.2   216  MET216      0.2287
     61  O          6.7860   26.4490   56.3980 O.2   216  MET216     -0.2864
     62  CB         4.2530   27.2290   57.1270 C.3   216  MET216      0.0413
     63  CG         3.0440   27.8480   57.6290 C.3   216  MET216      0.0598
     64  SD         2.3130   26.7920   58.9470 S.3   216  MET216     -0.1393
     65  CE         0.7360   27.6090   59.0020 C.3   216  MET216      0.0692
     66  N         -5.5960   25.5940   49.5170 N.3   239  ALA239     -0.1231
     67  CA        -6.5640   24.9600   50.4060 C.3   239  ALA239      0.1694
     68  C         -7.8470   25.7790   50.5610 C.2   239  ALA239      0.2592
     69  O         -8.9140   25.2160   50.8160 O.2   239  ALA239     -0.2718
     70  CB        -5.9270   24.7210   51.7770 C.3   239  ALA239      0.0304
     71  N         -7.7600   27.0960   50.3980 N.am  240  ASN240     -0.1974
     72  CA        -8.8410   28.0180   50.7230 C.3   240  ASN240      0.1688
     73  C         -8.4550   29.3810   50.1730 C.2   240  ASN240      0.2292
     74  O         -7.3000   29.6040   49.8090 O.2   240  ASN240     -0.2864
     75  CB        -9.0620   28.1150   52.2380 C.3   240  ASN240      0.1181
     76  CG        -7.8820   28.8010   52.9550 C.2   240  ASN240      0.2629
     77  OD1       -6.7210   28.4250   52.7670 O.2   240  ASN240     -0.2716
     78  ND2       -8.1760   29.8280   53.7540 N.am  240  ASN240     -0.0877
     79  N         -8.0820   32.9140   51.8590 N.3   242  SER242     -0.1217
     80  CA        -8.0760   33.5110   53.1820 C.3   242  SER242      0.1889
     81  C         -8.7690   34.8660   53.2040 C.2   242  SER242      0.2288
     82  O         -9.2680   35.2840   54.2550 O.2   242  SER242     -0.2866
     83  CB        -6.6260   33.6840   53.6860 C.3   242  SER242      0.2089
     84  OG        -5.8760   32.5030   53.4980 O.3   242  SER242     -0.2183
     85  N        -10.2210   28.2650   58.7860 N.3   252  ILE252     -0.1245
     86  CA        -9.5130   27.1430   58.1810 C.3   252  ILE252      0.1561
     87  C         -9.0090   26.2450   59.3060 C.2   252  ILE252      0.2260
     88  O         -8.9170   26.6500   60.4730 O.2   252  ILE252     -0.2867
     89  CB        -8.3530   27.6210   57.2680 C.3   252  ILE252      0.0252
     90  CG1       -7.7650   26.4700   56.4310 C.3   252  ILE252      0.0019
     91  CG2       -7.2600   28.2940   58.0910 C.3   252  ILE252      0.0019
     92  CD1       -8.6920   25.9450   55.3400 C.3   252  ILE252      0.0001
     93  N         -7.7040   21.2290   55.2740 N.3   257  VAL257     -0.1245
     94  CA        -6.5650   21.2500   54.3550 C.3   257  VAL257      0.1561
     95  C         -6.3050   19.8580   53.7870 C.2   257  VAL257      0.2260
     96  O         -6.1050   19.6920   52.5750 O.2   257  VAL257     -0.2867
     97  CB        -5.3210   21.8130   55.0690 C.3   257  VAL257      0.0252
     98  CG1       -4.0650   21.6420   54.2060 C.3   257  VAL257      0.0019
     99  CG2       -5.5050   23.3020   55.3770 C.3   257  VAL257      0.0019
@<TRIPOS>BOND
     1    66    67    1
     2    13    10    1
     3    74    73    2
     4    17    16    2
     5    73    72    1
     6    16    15    1
     7     1     2    1
     8    12    11    2
     9    71    68   am
    10    71    72    1
    11    67    68    1
    12    67    70    1
    13    47    48    1
    14     8     6    1
    15     9    10    1
    16     9     3   am
    17    68    69    2
    18     2     3    1
    19     2     5    1
    20    72    75    1
    21    10    11    1
    22    11    14   am
    23     6     5    1
    24     6     7    1
    25     3     4    2
    26    15    14    1
    27    48    49    1
    28    48    51    1
    29    79    80    1
    30    50    49    2
    31    49    54   am
    32    75    76    1
    33    96    95    2
    34    54    55    1
    35    51    52    1
    36    51    53    1
    37    77    76    2
    38    76    78   am
    39    80    81    1
    40    80    83    1
    41    81    82    2
    42    55    56    1
    43    84    83    1
    44    95    94    1
    45    56    57    2
    46    56    58   am
    47    98    97    1
    48    94    97    1
    49    94    93    1
    50    58    59    1
    51    97    99    1
    52    92    90    1
    53    46    44   ar
    54    18    19    1
    55    60    59    1
    56    60    61    2
    57    59    62    1
    58    44    45   ar
    59    44    43    1
    60    90    89    1
    61    43    42    1
    62    19    22    1
    63    19    20    1
    64    22    23    1
    65    62    63    1
    66    89    91    1
    67    89    86    1
    68    21    20    2
    69    63    64    1
    70    42    39    1
    71    34    32   ar
    72    34    36   ar
    73    86    85    1
    74    86    87    1
    75    32    31   ar
    76    23    25   am
    77    23    24    2
    78    37    36    1
    79    36    35   ar
    80    64    65    1
    81    38    39    1
    82    38    28   am
    83    39    40    1
    84    41    40    2
    85    87    88    2
    86    31    30    1
    87    31    33   ar
    88    30    27    1
    89    27    28    1
    90    27    26    1
    91    35    33   ar
    92    28    29    2
