@<TRIPOS>MOLECULE
tmp/6bifA00.pdb
 129 122 0 0 0
SMALL
GASTEIGER

@<TRIPOS>ATOM
      1  N          2.0230   17.7220   51.9150 N.3    30  SER30      -0.1217
      2  CA         1.2120   16.8690   52.7790 C.3    30  SER30       0.1889
      3  C          0.0660   16.2330   52.0080 C.2    30  SER30       0.2288
      4  O         -0.7660   16.9350   51.4240 O.2    30  SER30      -0.2866
      5  CB         0.6650   17.6850   53.9490 C.3    30  SER30       0.2089
      6  OG         1.6980   17.9320   54.8880 O.3    30  SER30      -0.2183
      7  N          8.9430   25.6050   61.0750 N.3    85  TYR85      -0.1241
      8  CA         8.1370   25.8330   62.2900 C.3    85  TYR85       0.1605
      9  C          8.3170   24.7320   63.3440 C.2    85  TYR85       0.2264
     10  O          7.9030   24.9250   64.4830 O.2    85  TYR85      -0.2867
     11  CB         6.6260   25.9800   62.0110 C.3    85  TYR85       0.0534
     12  CG         5.9910   24.8400   61.2180 C.ar   85  TYR85      -0.0201
     13  CD1        5.8300   23.5630   61.7800 C.ar   85  TYR85      -0.0009
     14  CD2        5.5520   25.0360   59.9170 C.ar   85  TYR85      -0.0009
     15  CE1        5.2800   22.5040   61.0350 C.ar   85  TYR85       0.0417
     16  CE2        4.9800   23.9860   59.1880 C.ar   85  TYR85       0.0417
     17  CZ         4.8620   22.7300   59.7510 C.ar   85  TYR85       0.1957
     18  OH         4.3090   21.6920   59.0060 O.3    85  TYR85      -0.2866
     19  N          3.3460   21.8670   47.4200 N.3   112  ASN112     -0.1225
     20  CA         2.8370   22.2190   48.7450 C.3   112  ASN112      0.1785
     21  C          1.3450   22.5290   48.6420 C.2   112  ASN112      0.2597
     22  O          0.8080   22.6830   47.5420 O.2   112  ASN112     -0.2718
     23  CB         3.5830   23.4400   49.3310 C.3   112  ASN112      0.1169
     24  CG         3.4110   24.7160   48.5060 C.2   112  ASN112      0.2627
     25  OD1        2.3050   25.2250   48.3510 O.2   112  ASN112     -0.2716
     26  ND2        4.5170   25.2670   48.0270 N.am  112  ASN112     -0.0877
     27  N          0.6710   22.6080   49.8070 N.am  113  LEU113     -0.1966
     28  CA        -0.6320   23.2520   49.9300 C.3   113  LEU113      0.1728
     29  C         -0.4640   24.6560   50.5100 C.2   113  LEU113      0.2616
     30  O          0.4400   24.9090   51.3100 O.2   113  LEU113     -0.2715
     31  CB        -1.5930   22.4380   50.7930 C.3   113  LEU113      0.0311
     32  CG        -2.1480   21.2140   50.0130 C.3   113  LEU113      0.0022
     33  CD1       -1.5160   19.9560   50.4770 C.3   113  LEU113      0.0001
     34  CD2       -3.6580   21.1510   50.0350 C.3   113  LEU113      0.0001
     35  N         -1.3480   25.5770   50.1030 N.am  114  ALA114     -0.1963
     36  CA        -1.1970   26.9850   50.5010 C.3   114  ALA114      0.1728
     37  C         -2.5470   27.6960   50.5020 C.2   114  ALA114      0.2616
     38  O         -3.5410   27.2050   49.9440 O.2   114  ALA114     -0.2715
     39  CB        -0.2320   27.7170   49.5620 C.3   114  ALA114      0.0334
     40  N         -2.5710   28.8780   51.1290 N.am  115  GLY115     -0.1955
     41  CA        -3.7660   29.7150   51.1170 C.3   115  GLY115      0.1869
     42  C         -3.7380   30.7020   49.9580 C.2   115  GLY115      0.2309
     43  O         -2.6920   31.2850   49.6440 O.2   115  GLY115     -0.2863
     44  N          5.2170   32.5090   55.2500 N.3   192  ASN192     -0.1240
     45  CA         4.8540   32.7170   56.6530 C.3   192  ASN192      0.1653
     46  C          5.5300   31.6290   57.4880 C.2   192  ASN192      0.2266
     47  O          5.2590   30.4430   57.2950 O.2   192  ASN192     -0.2867
     48  CB         3.3290   32.6270   56.8090 C.3   192  ASN192      0.1155
     49  CG         2.8620   32.4750   58.2580 C.2   192  ASN192      0.2627
     50  OD1        3.4880   32.9550   59.2250 O.2   192  ASN192     -0.2716
     51  ND2        1.7320   31.7850   58.4140 N.am  192  ASN192     -0.0877
     52  N         -1.9640   29.6630   61.1180 N.3   197  TYR197     -0.1227
     53  CA        -2.4080   30.1570   59.8240 C.3   197  TYR197      0.1736
     54  C         -2.4140   31.6810   59.8520 C.2   197  TYR197      0.2595
     55  O         -2.6120   32.2990   60.9040 O.2   197  TYR197     -0.2718
     56  CB        -3.8070   29.6220   59.5010 C.3   197  TYR197      0.0548
     57  CG        -3.8750   28.1100   59.2990 C.ar  197  TYR197     -0.0200
     58  CD1       -3.3590   27.5280   58.1430 C.ar  197  TYR197     -0.0009
     59  CD2       -4.4410   27.2700   60.2570 C.ar  197  TYR197     -0.0009
     60  CE1       -3.4060   26.1380   57.9390 C.ar  197  TYR197      0.0417
     61  CE2       -4.4960   25.8810   60.0550 C.ar  197  TYR197      0.0417
     62  CZ        -3.9700   25.3310   58.8940 C.ar  197  TYR197      0.1957
     63  OH        -3.9860   23.9630   58.6590 O.3   197  TYR197     -0.2866
     64  N         -2.2190   32.2860   58.6790 N.am  198  GLU198     -0.1979
     65  CA        -2.4250   33.7240   58.5510 C.3   198  GLU198      0.1602
     66  C         -3.7600   34.1600   59.1630 C.2   198  GLU198      0.2287
     67  O         -4.8200   33.5610   58.9110 O.2   198  GLU198     -0.2864
     68  CB        -2.3480   34.1230   57.0640 C.3   198  GLU198      0.0415
     69  CG        -3.4400   33.5230   56.1150 C.3   198  GLU198      0.1163
     70  CD        -3.2220   32.0740   55.6490 C.2   198  GLU198      0.3649
     71  OE1       -2.2490   31.4080   56.0760 O.co2 198  GLU198     -0.2457
     72  OE2       -4.0550   31.6010   54.8160 O.co2 198  GLU198     -0.2457
     73  N          0.0430   32.1330   50.1390 N.3   214  VAL214     -0.1231
     74  CA         0.8400   32.1420   51.3760 C.3   214  VAL214      0.1692
     75  C          0.9470   30.7180   51.9400 C.2   214  VAL214      0.2593
     76  O         -0.0390   29.9670   51.9640 O.2   214  VAL214     -0.2718
     77  CB         0.2430   33.0990   52.4260 C.3   214  VAL214      0.0266
     78  CG1       -1.2020   32.7200   52.7810 C.3   214  VAL214      0.0020
     79  CG2        1.1140   33.1150   53.6720 C.3   214  VAL214      0.0020
     80  N          2.1550   30.3370   52.3900 N.am  215  GLY215     -0.1942
     81  CA         2.3580   29.0360   53.0140 C.3   215  GLY215      0.2014
     82  C          3.5800   29.0230   53.9140 C.2   215  GLY215      0.2638
     83  O          4.2610   30.0440   54.0750 O.2   215  GLY215     -0.2714
     84  N          3.8730   27.8310   54.4780 N.am  216  MET216     -0.1976
     85  CA         4.8630   27.6860   55.5540 C.3   216  MET216      0.1605
     86  C          6.0600   26.8080   55.1550 C.2   216  MET216      0.2287
     87  O          6.7550   26.2790   56.0400 O.2   216  MET216     -0.2864
     88  CB         4.2070   27.1020   56.8060 C.3   216  MET216      0.0413
     89  CG         3.0330   27.8880   57.3850 C.3   216  MET216      0.0598
     90  SD         2.2240   26.9320   58.6910 S.3   216  MET216     -0.1393
     91  CE         0.7170   27.8870   58.9190 C.3   216  MET216      0.0692
     92  N         -5.7920   25.4980   49.1490 N.3   239  ALA239     -0.1231
     93  CA        -6.7510   24.8770   50.0700 C.3   239  ALA239      0.1694
     94  C         -8.0240   25.7100   50.2570 C.2   239  ALA239      0.2592
     95  O         -9.1070   25.1440   50.4740 O.2   239  ALA239     -0.2718
     96  CB        -6.0670   24.6250   51.4090 C.3   239  ALA239      0.0304
     97  N         -7.9240   27.0340   50.1310 N.am  240  ASN240     -0.1974
     98  CA        -8.9650   27.9800   50.5290 C.3   240  ASN240      0.1688
     99  C         -8.5420   29.3390   50.0070 C.2   240  ASN240      0.2292
    100  O         -7.3680   29.5320   49.6890 O.2   240  ASN240     -0.2864
    101  CB        -9.1230   28.0240   52.0490 C.3   240  ASN240      0.1181
    102  CG        -7.8910   28.6400   52.7410 C.2   240  ASN240      0.2629
    103  OD1       -6.7870   28.0890   52.7050 O.2   240  ASN240     -0.2716
    104  ND2       -8.0820   29.8070   53.3420 N.am  240  ASN240     -0.0877
    105  N         -9.9680   28.0200   58.6840 N.3   252  ILE252     -0.1245
    106  CA        -9.1860   26.9880   58.0000 C.3   252  ILE252      0.1561
    107  C         -8.5770   26.0880   59.0660 C.2   252  ILE252      0.2260
    108  O         -8.2530   26.5320   60.1810 O.2   252  ILE252     -0.2867
    109  CB        -8.1000   27.6000   57.0730 C.3   252  ILE252      0.0252
    110  CG1       -7.3010   26.5180   56.3090 C.3   252  ILE252      0.0019
    111  CG2       -7.1420   28.5040   57.8480 C.3   252  ILE252      0.0019
    112  CD1       -8.1260   25.7320   55.3070 C.3   252  ILE252      0.0001
    113  N         -6.3380   21.9340   59.5280 N.3   254  HIS254     -0.1241
    114  CA        -5.5470   20.9280   58.8130 C.3   254  HIS254      0.1621
    115  C         -6.4360   19.8260   58.2230 C.2   254  HIS254      0.2264
    116  O         -6.0630   19.2120   57.2200 O.2   254  HIS254     -0.2867
    117  CB        -4.4630   20.3260   59.7250 C.3   254  HIS254      0.0745
    118  CG        -3.3960   19.5680   58.9860 C.ar  254  HIS254      0.0817
    119  ND1       -2.6680   20.1130   57.9500 N.ar  254  HIS254     -0.2268
    120  CD2       -2.9450   18.2990   59.1260 C.ar  254  HIS254      0.1154
    121  CE1       -1.8270   19.2100   57.4730 C.ar  254  HIS254      0.1986
    122  NE2       -1.9810   18.0980   58.1680 N.ar  254  HIS254     -0.2212
    123  N         -7.4570   21.0810   54.8960 N.3   257  VAL257     -0.1245
    124  CA        -6.3000   21.0480   53.9960 C.3   257  VAL257      0.1561
    125  C         -6.1110   19.6430   53.4210 C.2   257  VAL257      0.2260
    126  O         -5.9080   19.4640   52.2110 O.2   257  VAL257     -0.2867
    127  CB        -5.0370   21.5230   54.7440 C.3   257  VAL257      0.0252
    128  CG1       -3.7740   21.2720   53.9210 C.3   257  VAL257      0.0019
    129  CG2       -5.1430   23.0050   55.1020 C.3   257  VAL257      0.0019
@<TRIPOS>BOND
     1    19    20    1
     2    22    21    2
     3    26    24   am
     4    25    24    2
     5    24    23    1
     6    21    20    1
     7    21    27   am
     8    20    23    1
     9    92    93    1
    10    39    36    1
    11    43    42    2
    12   100    99    2
    13    27    28    1
    14    28    29    1
    15    28    31    1
    16    38    37    2
    17    42    41    1
    18    99    98    1
    19    32    34    1
    20    32    33    1
    21    32    31    1
    22    93    94    1
    23    93    96    1
    24    35    36    1
    25    35    29   am
    26    97    94   am
    27    97    98    1
    28    73    74    1
    29    94    95    2
    30    36    37    1
    31    37    40   am
    32    29    30    2
    33    98   101    1
    34    41    40    1
    35    74    75    1
    36    74    77    1
    37     4     3    2
    38     1     2    1
    39    75    76    2
    40    75    80   am
    41     3     2    1
    42   101   102    1
    43   126   125    2
    44    80    81    1
    45    77    78    1
    46    77    79    1
    47   103   102    2
    48   102   104   am
    49     2     5    1
    50    81    82    1
    51   125   124    1
    52    82    83    2
    53    82    84   am
    54   128   127    1
    55     5     6    1
    56   124   127    1
    57   124   123    1
    58    84    85    1
    59   127   129    1
    60    72    70   ar
    61    86    85    1
    62    86    87    2
    63    44    45    1
    64   112   110    1
    65    85    88    1
    66    70    71   ar
    67    70    69    1
    68    69    68    1
    69   110   109    1
    70    45    48    1
    71    45    46    1
    72    88    89    1
    73    48    49    1
    74    68    65    1
    75   109   111    1
    76   109   106    1
    77   116   115    2
    78    47    46    2
    79    89    90    1
    80   121   119   ar
    81   121   122   ar
    82    60    58   ar
    83    60    62   ar
    84   119   118   ar
    85   106   105    1
    86   106   107    1
    87    58    57   ar
    88   122   120   ar
    89   115   114    1
    90    49    51   am
    91    49    50    2
    92    65    64    1
    93    65    66    1
    94    63    62    1
    95    64    54   am
    96    90    91    1
    97   114   113    1
    98   114   117    1
    99    62    61   ar
   100    67    66    2
   101   118   120   ar
   102   118   117    1
   103    18    17    1
   104   107   108    2
   105    16    17   ar
   106    16    14   ar
   107    57    56    1
   108    57    59   ar
   109    56    53    1
   110    17    15   ar
   111    53    54    1
   112    53    52    1
   113    54    55    2
   114    14    12   ar
   115    61    59   ar
   116    15    13   ar
   117     7     8    1
   118    12    13   ar
   119    12    11    1
   120    11     8    1
   121     8     9    1
   122     9    10    2
