@<TRIPOS>MOLECULE
tmp/6biiA01.pdb
 94 88 0 0 0
SMALL
GASTEIGER

@<TRIPOS>ATOM
      1  N         71.1590   31.8250   22.4370 N.3    52  LEU52      -0.1245
      2  CA        70.0220   32.6690   22.1120 C.3    52  LEU52       0.1561
      3  C         69.9980   33.9350   22.9510 C.2    52  LEU52       0.2260
      4  O         69.4190   34.9380   22.5360 O.2    52  LEU52      -0.2867
      5  CB        68.6890   31.8990   22.2140 C.3    52  LEU52       0.0270
      6  CG        68.2790   31.4150   23.6170 C.3    52  LEU52       0.0019
      7  CD1       67.3260   32.3770   24.3080 C.3    52  LEU52       0.0001
      8  CD2       67.6260   30.0340   23.5690 C.3    52  LEU52       0.0001
      9  N         74.4730   28.3930   19.0730 N.3    73  TYR73      -0.1227
     10  CA        74.1570   27.1420   19.7520 C.3    73  TYR73       0.1736
     11  C         72.6380   27.1060   19.9280 C.2    73  TYR73       0.2595
     12  O         72.0760   27.2110   21.0570 O.2    73  TYR73      -0.2718
     13  CB        74.9110   27.0690   21.0940 C.3    73  TYR73       0.0548
     14  CG        74.8240   25.7500   21.8290 C.ar   73  TYR73      -0.0200
     15  CD1       75.6050   24.6650   21.4610 C.ar   73  TYR73      -0.0009
     16  CD2       73.9860   25.6070   22.9360 C.ar   73  TYR73      -0.0009
     17  CE1       75.5380   23.4650   22.1620 C.ar   73  TYR73       0.0417
     18  CE2       73.9000   24.4210   23.6290 C.ar   73  TYR73       0.0417
     19  CZ        74.6550   23.3540   23.2490 C.ar   73  TYR73       0.1957
     20  OH        74.5300   22.1920   23.9570 O.3    73  TYR73      -0.2866
     21  N         71.9690   26.9720   18.7880 N.am   74  ALA74      -0.1966
     22  CA        70.5090   27.1150   18.6780 C.3    74  ALA74       0.1728
     23  C         70.1220   26.8920   17.2180 C.2    74  ALA74       0.2616
     24  O         70.9320   27.1970   16.3330 O.2    74  ALA74      -0.2715
     25  CB        70.0870   28.5110   19.0990 C.3    74  ALA74       0.0334
     26  N         68.9170   26.3690   16.9490 N.am   75  VAL75      -0.1963
     27  CA        68.4080   26.3540   15.5470 C.3    75  VAL75       0.1727
     28  C         67.7790   27.6860   15.1650 C.2    75  VAL75       0.2616
     29  O         67.8840   28.1350   13.9970 O.2    75  VAL75      -0.2715
     30  CB        67.4650   25.1350   15.2710 C.3    75  VAL75       0.0290
     31  CG1       66.2200   25.1540   16.1320 C.3    75  VAL75       0.0023
     32  CG2       67.0910   25.0720   13.7910 C.3    75  VAL75       0.0023
     33  N         67.1450   28.3330   16.1410 N.am   76  GLY76      -0.1955
     34  CA        66.7060   29.7270   15.9890 C.3    76  GLY76       0.1869
     35  C         67.9020   30.6610   15.8480 C.2    76  GLY76       0.2309
     36  O         68.9920   30.3680   16.3460 O.2    76  GLY76      -0.2863
     37  N         68.4470   18.6310   17.5010 N.3    99  LEU99      -0.1245
     38  CA        67.5490   18.9410   18.6050 C.3    99  LEU99       0.1561
     39  C         66.0660   18.7090   18.2740 C.2    99  LEU99       0.2260
     40  O         65.2040   19.0020   19.0730 O.2    99  LEU99      -0.2867
     41  CB        67.7830   20.3960   19.0770 C.3    99  LEU99       0.0270
     42  CG        67.8740   21.4930   18.0120 C.3    99  LEU99       0.0019
     43  CD1       66.6350   21.5840   17.1190 C.3    99  LEU99       0.0001
     44  CD2       68.1310   22.8370   18.6740 C.3    99  LEU99       0.0001
     45  N         58.7610   30.5260   19.7300 N.3   240  ARG240     -0.1245
     46  CA        59.3300   31.6640   20.4170 C.3   240  ARG240      0.1563
     47  C         58.1700   32.3950   21.1150 C.2   240  ARG240      0.2260
     48  O         57.0350   32.4150   20.6030 O.2   240  ARG240     -0.2867
     49  CB        60.0150   32.5990   19.4430 C.3   240  ARG240      0.0307
     50  CG        61.3460   32.1180   18.9180 C.3   240  ARG240      0.0489
     51  CD        62.4210   32.3430   19.9440 C.3   240  ARG240      0.2205
     52  NE        63.7440   31.9040   19.5370 N.pl3 240  ARG240     -0.0865
     53  CZ        64.2200   30.6640   19.6780 C.cat 240  ARG240      0.5346
     54  NH1       63.4720   29.6950   20.1580 N.pl3 240  ARG240      0.1354
     55  NH2       65.4820   30.3980   19.3440 N.pl3 240  ARG240      0.1354
     56  N         61.7750   27.0580   29.0220 N.3   287  HIS287     -0.1241
     57  CA        62.5290   27.0080   27.7600 C.3   287  HIS287      0.1621
     58  C         63.4830   25.8190   27.7180 C.2   287  HIS287      0.2264
     59  O         64.6960   25.9730   27.5340 O.2   287  HIS287     -0.2867
     60  CB        63.2630   28.3450   27.5020 C.3   287  HIS287      0.0745
     61  CG        63.5500   28.5940   26.0560 C.ar  287  HIS287      0.0817
     62  ND1       63.5900   29.8640   25.5140 N.ar  287  HIS287     -0.2268
     63  CD2       63.7310   27.7320   25.0170 C.ar  287  HIS287      0.1154
     64  CE1       63.8440   29.7730   24.2180 C.ar  287  HIS287      0.1986
     65  NE2       63.9320   28.4930   23.8900 N.ar  287  HIS287     -0.2212
     66  N         62.8200   22.9680   25.6940 N.3   289  GLY289     -0.1210
     67  CA        62.5800   22.1800   24.5010 C.3   289  GLY289      0.1956
     68  C         63.7080   21.2270   24.0910 C.2   289  GLY289      0.2612
     69  O         63.4510   20.0420   23.8440 O.2   289  GLY289     -0.2717
     70  N         64.9400   21.7180   24.0000 N.am  290  SER290     -0.1952
     71  CA        66.0680   20.8870   23.5570 C.3   290  SER290      0.1924
     72  C         66.8340   20.2650   24.7080 C.2   290  SER290      0.2314
     73  O         67.9610   19.7670   24.5190 O.2   290  SER290     -0.2863
     74  CB        67.0150   21.6850   22.6510 C.3   290  SER290      0.2116
     75  OG        67.7350   22.6890   23.3430 O.3   290  SER290     -0.2180
     76  N         71.7710   18.2990   23.3200 N.3   296  ARG296     -0.1245
     77  CA        72.7560   19.2890   23.6800 C.3   296  ARG296      0.1563
     78  C         74.1660   18.8790   23.2340 C.2   296  ARG296      0.2260
     79  O         74.9630   19.7270   22.8270 O.2   296  ARG296     -0.2867
     80  CB        72.6920   19.6230   25.2000 C.3   296  ARG296      0.0307
     81  CG        71.3700   20.3100   25.6270 C.3   296  ARG296      0.0489
     82  CD        71.2560   21.7560   25.1440 C.3   296  ARG296      0.2205
     83  NE        69.8790   22.2890   25.1940 N.pl3 296  ARG296     -0.0865
     84  CZ        69.2630   22.7190   26.3030 C.cat 296  ARG296      0.5346
     85  NH1       69.8850   22.6730   27.4820 N.pl3 296  ARG296      0.1354
     86  NH2       68.0160   23.1560   26.2350 N.pl3 296  ARG296      0.1354
     87  N         74.2760   19.3740   19.4490 N.3   299  MET299     -0.1245
     88  CA        74.4350   20.8100   19.2160 C.3   299  MET299      0.1570
     89  C         75.9020   21.2370   19.3670 C.2   299  MET299      0.2261
     90  O         76.4240   21.9720   18.5520 O.2   299  MET299     -0.2867
     91  CB        73.5250   21.6390   20.1390 C.3   299  MET299      0.0387
     92  CG        72.0340   21.5010   19.8540 C.3   299  MET299      0.0595
     93  SD        71.0180   22.1120   21.2320 S.3   299  MET299     -0.1393
     94  CE        71.3140   23.8540   21.0670 C.3   299  MET299      0.0692
@<TRIPOS>BOND
     1    32    30    1
     2    29    28    2
     3    28    27    1
     4    28    33   am
     5    30    27    1
     6    30    31    1
     7    27    26    1
     8    35    34    1
     9    35    36    2
    10    34    33    1
    11    24    23    2
    12    26    23   am
    13    43    42    1
    14    23    22    1
    15    37    38    1
    16    42    44    1
    17    42    41    1
    18    39    38    1
    19    39    40    2
    20    90    89    2
    21    38    41    1
    22    22    21    1
    23    22    25    1
    24    21    11   am
    25    50    49    1
    26    50    51    1
    27     9    10    1
    28    88    89    1
    29    88    87    1
    30    88    91    1
    31    55    53    1
    32    49    46    1
    33    52    53    2
    34    52    51    1
    35    53    54    1
    36    45    46    1
    37    10    11    1
    38    10    13    1
    39    92    91    1
    40    92    93    1
    41    11    12    2
    42    46    47    1
    43    48    47    2
    44    94    93    1
    45    13    14    1
    46    15    14   ar
    47    15    17   ar
    48    14    16   ar
    49     2     5    1
    50     2     1    1
    51     2     3    1
    52    17    19   ar
    53     5     6    1
    54     4     3    2
    55    74    75    1
    56    74    71    1
    57    79    78    2
    58    16    18   ar
    59    78    77    1
    60    19    18   ar
    61    19    20    1
    62    76    77    1
    63    71    70    1
    64    71    72    1
    65     8     6    1
    66     6     7    1
    67    77    80    1
    68    69    68    2
    69    65    64   ar
    70    65    63   ar
    71    70    68   am
    72    68    67    1
    73    64    62   ar
    74    67    66    1
    75    73    72    2
    76    63    61   ar
    77    82    83    1
    78    82    81    1
    79    83    84    2
    80    80    81    1
    81    62    61   ar
    82    61    60    1
    83    86    84    1
    84    84    85    1
    85    60    57    1
    86    59    58    2
    87    58    57    1
    88    57    56    1
