@<TRIPOS>MOLECULE
tmp/6bikA00.pdb
 228 218 0 0 0
SMALL
GASTEIGER

@<TRIPOS>ATOM
      1  N        100.9660  -50.8750  -15.2670 N.3    14  LEU14      -0.1231
      2  CA       101.7960  -49.7830  -14.7770 C.3    14  LEU14       0.1693
      3  C        103.0870  -50.2770  -14.1500 C.2    14  LEU14       0.2593
      4  O        103.7880  -49.4900  -13.5100 O.2    14  LEU14      -0.2718
      5  CB       101.0310  -48.9260  -13.7630 C.3    14  LEU14       0.0284
      6  CG       100.0370  -47.9100  -14.3230 C.3    14  LEU14       0.0019
      7  CD1       99.3550  -47.2050  -13.1880 C.3    14  LEU14       0.0001
      8  CD2      100.6930  -46.8910  -15.2600 C.3    14  LEU14       0.0001
      9  N        103.4200  -51.5480  -14.3180 N.am   15  GLY15      -0.1942
     10  CA       104.5930  -52.1090  -13.6850 C.3    15  GLY15       0.2014
     11  C        104.2950  -52.7170  -12.3260 C.2    15  GLY15       0.2640
     12  O        103.1630  -53.0730  -11.9890 O.2    15  GLY15      -0.2714
     13  N        105.3510  -52.8220  -11.5260 N.am   16  THR16      -0.1936
     14  CA       105.3200  -53.5870  -10.2910 C.3    16  THR16       0.2028
     15  C        105.9270  -52.7640   -9.1690 C.2    16  THR16       0.2643
     16  O        106.8480  -51.9710   -9.3850 O.2    16  THR16      -0.2714
     17  CB       106.0720  -54.9160  -10.4610 C.3    16  THR16       0.1808
     18  OG1      105.2300  -55.8320  -11.1740 O.3    16  THR16      -0.2208
     19  CG2      106.4450  -55.5240   -9.1240 C.3    16  THR16       0.0379
     20  N        105.3860  -52.9540   -7.9690 N.am   17  GLY17      -0.1939
     21  CA       105.9030  -52.3200   -6.7770 C.3    17  GLY17       0.2014
     22  C        106.0570  -53.3310   -5.6530 C.2    17  GLY17       0.2639
     23  O        106.0140  -54.5360   -5.8960 O.2    17  GLY17      -0.2714
     24  N        106.1880  -52.8450   -4.4180 N.am   18  GLN18      -0.1963
     25  CA       106.5120  -53.7040   -3.2820 C.3    18  GLN18       0.1733
     26  C        105.4170  -54.7130   -2.9980 C.2    18  GLN18       0.2616
     27  O        105.6880  -55.7540   -2.3880 O.2    18  GLN18      -0.2715
     28  CB       106.7820  -52.8450   -2.0480 C.3    18  GLN18       0.0408
     29  CG       107.1810  -53.6550   -0.8070 C.3    18  GLN18       0.0908
     30  CD       108.4460  -54.4660   -1.0240 C.2    18  GLN18       0.2608
     31  OE1      109.3540  -54.0320   -1.7260 O.2    18  GLN18      -0.2717
     32  NE2      108.5090  -55.6500   -0.4250 N.am   18  GLN18      -0.0878
     33  N        104.1960  -54.4340   -3.4490 N.am   19  PHE19      -0.1974
     34  CA       103.0540  -55.3170   -3.2910 C.3    19  PHE19       0.1639
     35  C        102.6580  -56.0110   -4.5940 C.2    19  PHE19       0.2290
     36  O        101.5520  -56.5580   -4.6830 O.2    19  PHE19      -0.2864
     37  CB       101.8720  -54.5110   -2.7540 C.3    19  PHE19       0.0560
     38  CG       102.0550  -54.0380   -1.3450 C.ar   19  PHE19      -0.0200
     39  CD1      102.4280  -54.9220   -0.3440 C.ar   19  PHE19      -0.0042
     40  CD2      101.8760  -52.7040   -1.0180 C.ar   19  PHE19      -0.0042
     41  CE1      102.5990  -54.4840    0.9620 C.ar   19  PHE19      -0.0003
     42  CE2      102.0520  -52.2670    0.2880 C.ar   19  PHE19      -0.0003
     43  CZ       102.4120  -53.1600    1.2760 C.ar   19  PHE19      -0.0000
     44  N        100.5600  -53.4400  -10.4540 N.3    22  VAL22      -0.1245
     45  CA        99.6940  -52.2690  -10.4190 C.3    22  VAL22       0.1561
     46  C         99.2220  -51.9870  -11.8310 C.2    22  VAL22       0.2260
     47  O        100.0260  -51.9910  -12.7680 O.2    22  VAL22      -0.2867
     48  CB       100.4220  -51.0310   -9.8710 C.3    22  VAL22       0.0252
     49  CG1       99.4800  -49.8190   -9.8310 C.3    22  VAL22       0.0019
     50  CG2      100.9830  -51.3200   -8.5250 C.3    22  VAL22       0.0019
     51  N         94.8140  -45.7990  -10.3870 N.3    34  ALA34      -0.1245
     52  CA        95.7330  -46.9180  -10.3270 C.3    34  ALA34       0.1562
     53  C         95.1490  -47.9530   -9.3810 C.2    34  ALA34       0.2260
     54  O         94.5160  -47.6030   -8.3810 O.2    34  ALA34      -0.2867
     55  CB        97.1190  -46.4770   -9.8550 C.3    34  ALA34       0.0290
     56  N         96.2490  -51.3740   -7.3400 N.3    36  LYS36      -0.1245
     57  CA        97.2460  -52.3420   -6.9080 C.3    36  LYS36       0.1561
     58  C         96.5400  -53.6700   -6.6930 C.2    36  LYS36       0.2260
     59  O         95.5060  -53.7270   -6.0200 O.2    36  LYS36      -0.2867
     60  CB        97.9450  -51.9290   -5.6140 C.3    36  LYS36       0.0271
     61  CG        98.4590  -50.5110   -5.5250 C.3    36  LYS36       0.0035
     62  CD        99.1500  -50.3370   -4.1820 C.3    36  LYS36       0.0206
     63  CE        99.3880  -48.8880   -3.8100 C.3    36  LYS36       0.1093
     64  NZ       100.4500  -48.2470   -4.6280 N.3    36  LYS36      -0.1314
     65  N         98.5580  -38.3380   -2.7900 N.3    64  VAL64      -0.1245
     66  CA        97.9490  -39.2160   -3.7800 C.3    64  VAL64       0.1561
     67  C         96.8360  -39.9650   -3.0660 C.2    64  VAL64       0.2260
     68  O         97.0960  -40.8580   -2.2530 O.2    64  VAL64      -0.2867
     69  CB        98.9760  -40.1640   -4.4060 C.3    64  VAL64       0.0252
     70  CG1       98.3040  -41.1810   -5.3380 C.3    64  VAL64       0.0019
     71  CG2       99.9940  -39.3580   -5.1720 C.3    64  VAL64       0.0019
     72  N         93.8420  -46.0030   -6.0930 N.3    80  THR80      -0.1203
     73  CA        94.3720  -44.6910   -5.7590 C.3    80  THR80       0.1994
     74  C         94.2370  -43.7540   -6.9480 C.2    80  THR80       0.2618
     75  O         93.9770  -44.1670   -8.0820 O.2    80  THR80      -0.2717
     76  CB        95.8500  -44.7500   -5.3300 C.3    80  THR80       0.1784
     77  OG1       96.6850  -44.9730   -6.4820 O.3    80  THR80      -0.2211
     78  CG2       96.0840  -45.8520   -4.3160 C.3    80  THR80       0.0376
     79  N         94.4650  -42.4790   -6.6440 N.am   81  GLU81      -0.1965
     80  CA        94.4980  -41.4090   -7.6250 C.3    81  GLU81       0.1733
     81  C         95.6010  -41.6680   -8.6510 C.2    81  GLU81       0.2616
     82  O         96.7140  -42.0520   -8.2860 O.2    81  GLU81      -0.2715
     83  CB        94.7390  -40.0980   -6.8720 C.3    81  GLU81       0.0429
     84  CG        94.8210  -38.8350   -7.7110 C.3    81  GLU81       0.1163
     85  CD        95.0920  -37.5890   -6.8530 C.2    81  GLU81       0.3649
     86  OE1       95.4250  -36.5420   -7.4360 O.co2  81  GLU81      -0.2457
     87  OE2       94.9810  -37.6500   -5.6010 O.co2  81  GLU81      -0.2457
     88  N         95.2830  -41.4900   -9.9360 N.am   82  TYR82      -0.1960
     89  CA        96.2600  -41.6680  -11.0110 C.3    82  TYR82       0.1771
     90  C         97.0230  -40.3770  -11.2980 C.2    82  TYR82       0.2619
     91  O         96.4500  -39.2850  -11.2910 O.2    82  TYR82      -0.2715
     92  CB        95.5780  -42.1550  -12.2900 C.3    82  TYR82       0.0574
     93  CG        96.5280  -42.3440  -13.4530 C.ar   82  TYR82      -0.0198
     94  CD1       97.4260  -43.4070  -13.4780 C.ar   82  TYR82      -0.0009
     95  CD2       96.5200  -41.4660  -14.5310 C.ar   82  TYR82      -0.0009
     96  CE1       98.2950  -43.5780  -14.5380 C.ar   82  TYR82       0.0417
     97  CE2       97.3780  -41.6370  -15.6030 C.ar   82  TYR82       0.0417
     98  CZ        98.2680  -42.6860  -15.5960 C.ar   82  TYR82       0.1957
     99  OH        99.1230  -42.8430  -16.6620 O.3    82  TYR82      -0.2866
    100  N         98.3230  -40.5220  -11.5600 N.am   83  MET83      -0.1963
    101  CA        99.2470  -39.4010  -11.7380 C.3    83  MET83       0.1736
    102  C         99.9900  -39.6410  -13.0430 C.2    83  MET83       0.2616
    103  O        100.8210  -40.5500  -13.1270 O.2    83  MET83      -0.2715
    104  CB       100.2190  -39.2930  -10.5660 C.3    83  MET83       0.0427
    105  CG        99.5450  -39.1550   -9.2200 C.3    83  MET83       0.0599
    106  SD        98.7640  -37.5550   -8.9920 S.3    83  MET83      -0.1393
    107  CE       100.2130  -36.5290   -8.7390 C.3    83  MET83       0.0692
    108  N         99.6850  -38.8330  -14.0610 N.am   84  ALA84      -0.1963
    109  CA       100.0370  -39.1830  -15.4370 C.3    84  ALA84       0.1728
    110  C        101.5370  -39.1850  -15.6880 C.2    84  ALA84       0.2616
    111  O        102.0070  -39.8760  -16.6010 O.2    84  ALA84      -0.2715
    112  CB        99.3470  -38.2200  -16.4060 C.3    84  ALA84       0.0334
    113  N        102.3110  -38.4190  -14.9220 N.am   85  ASN85      -0.1958
    114  CA       103.7380  -38.3020  -15.1890 C.3    85  ASN85       0.1819
    115  C        104.5870  -39.2430  -14.3310 C.2    85  ASN85       0.2621
    116  O        105.8210  -39.2010  -14.4050 O.2    85  ASN85      -0.2715
    117  CB       104.1600  -36.8460  -15.0150 C.3    85  ASN85       0.1195
    118  CG       103.9920  -36.0600  -16.2870 C.2    85  ASN85       0.2630
    119  OD1      104.4180  -36.5050  -17.3460 O.2    85  ASN85      -0.2716
    120  ND2      103.3690  -34.8990  -16.1990 N.am   85  ASN85      -0.0877
    121  N        103.9520  -40.1000  -13.5440 N.am   86  GLY86      -0.1954
    122  CA       104.6500  -41.1440  -12.8260 C.3    86  GLY86       0.1869
    123  C        105.4120  -40.6100  -11.6400 C.2    86  GLY86       0.2309
    124  O        105.0920  -39.5360  -11.1110 O.2    86  GLY86      -0.2863
    125  N        110.8010  -38.4990  -13.2030 N.3    90  TYR90      -0.1241
    126  CA       110.4030  -37.2110  -13.7700 C.3    90  TYR90       0.1605
    127  C        111.5460  -36.2070  -13.6960 C.2    90  TYR90       0.2264
    128  O        111.8940  -35.5580  -14.6920 O.2    90  TYR90      -0.2867
    129  CB       109.1780  -36.6930  -13.0110 C.3    90  TYR90       0.0534
    130  CG       108.5430  -35.4600  -13.6050 C.ar   90  TYR90      -0.0201
    131  CD1      107.7950  -35.5400  -14.7720 C.ar   90  TYR90      -0.0009
    132  CD2      108.6670  -34.2180  -12.9870 C.ar   90  TYR90      -0.0009
    133  CE1      107.1980  -34.4270  -15.3180 C.ar   90  TYR90       0.0417
    134  CE2      108.0640  -33.0940  -13.5290 C.ar   90  TYR90       0.0417
    135  CZ       107.3320  -33.2110  -14.6930 C.ar   90  TYR90       0.1957
    136  OH       106.7270  -32.1180  -15.2520 O.3    90  TYR90      -0.2866
    137  N        104.5870  -41.1490    7.2380 N.3   124  HIS124     -0.1241
    138  CA       104.7600  -41.7620    5.9290 C.3   124  HIS124      0.1621
    139  C        105.5900  -43.0310    6.0410 C.2   124  HIS124      0.2264
    140  O        105.1580  -44.1110    5.6090 O.2   124  HIS124     -0.2867
    141  CB       105.4090  -40.7680    4.9580 C.3   124  HIS124      0.0745
    142  CG       105.4490  -41.2700    3.5550 C.ar  124  HIS124      0.0817
    143  ND1      105.9970  -42.4890    3.2210 N.ar  124  HIS124     -0.2268
    144  CD2      104.9390  -40.7600    2.4090 C.ar  124  HIS124      0.1154
    145  CE1      105.8670  -42.6870    1.9230 C.ar  124  HIS124      0.1986
    146  NE2      105.2230  -41.6550    1.4060 N.ar  124  HIS124     -0.2212
    147  N        108.3170  -43.8730    4.5090 N.3   126  ASP126     -0.1239
    148  CA       109.1820  -44.1180    3.3590 C.3   126  ASP126      0.1674
    149  C        109.0630  -42.9600    2.3690 C.2   126  ASP126      0.2266
    150  O        108.8400  -43.1410    1.1720 O.2   126  ASP126     -0.2867
    151  CB       108.8560  -45.4740    2.7350 C.3   126  ASP126      0.1410
    152  CG       109.9240  -45.9620    1.7820 C.2   126  ASP126      0.3668
    153  OD1      110.9090  -45.2350    1.5180 O.co2 126  ASP126     -0.2456
    154  OD2      109.7640  -47.0910    1.2830 O.co2 126  ASP126     -0.2456
    155  N        111.0450  -41.4230   -5.1210 N.3   130  ARG130     -0.1231
    156  CA       110.3830  -42.5660   -5.7650 C.3   130  ARG130      0.1694
    157  C        108.9590  -42.7790   -5.2610 C.2   130  ARG130      0.2592
    158  O        108.1560  -43.4080   -5.9580 O.2   130  ARG130     -0.2718
    159  CB       111.1790  -43.8560   -5.5420 C.3   130  ARG130      0.0321
    160  CG       111.2790  -44.2250   -4.0760 C.3   130  ARG130      0.0489
    161  CD       112.0190  -45.5090   -3.7980 C.3   130  ARG130      0.2205
    162  NE       112.1260  -45.6380   -2.3410 N.pl3 130  ARG130     -0.0865
    163  CZ       113.0960  -45.0910   -1.6230 C.cat 130  ARG130      0.5346
    164  NH1      113.0900  -45.1940   -0.2990 N.pl3 130  ARG130      0.1354
    165  NH2      114.0710  -44.4280   -2.2210 N.pl3 130  ARG130      0.1354
    166  N        108.6300  -42.2760   -4.0710 N.am  131  ASN131     -0.1974
    167  CA       107.2950  -42.3980   -3.4940 C.3   131  ASN131      0.1688
    168  C        106.5640  -41.0610   -3.5060 C.2   131  ASN131      0.2292
    169  O        105.7510  -40.7660   -2.6330 O.2   131  ASN131     -0.2864
    170  CB       107.3820  -42.9710   -2.0850 C.3   131  ASN131      0.1181
    171  CG       107.7910  -44.4320   -2.0850 C.2   131  ASN131      0.2629
    172  OD1      107.4100  -45.1960   -2.9820 O.2   131  ASN131     -0.2716
    173  ND2      108.5670  -44.8320   -1.0830 N.am  131  ASN131     -0.0877
    174  N        104.6450  -38.7230   -6.7410 N.3   133  LEU133     -0.1245
    175  CA       104.1500  -38.8770   -8.0920 C.3   133  LEU133      0.1561
    176  C        103.8400  -37.4850   -8.6140 C.2   133  LEU133      0.2260
    177  O        103.7000  -36.5380   -7.8340 O.2   133  LEU133     -0.2867
    178  CB       102.9010  -39.7770   -8.1460 C.3   133  LEU133      0.0270
    179  CG       103.0150  -41.2270   -7.6460 C.3   133  LEU133      0.0019
    180  CD1      101.6460  -41.9320   -7.6940 C.3   133  LEU133      0.0001
    181  CD2      104.0110  -42.0210   -8.4560 C.3   133  LEU133      0.0001
    182  N        102.8980  -40.1990   -2.1100 N.3   143  SER143     -0.1202
    183  CA       102.1980  -41.4490   -2.3730 C.3   143  SER143      0.2020
    184  C        102.5560  -42.5230   -1.3570 C.2   143  SER143      0.2618
    185  O        103.6680  -42.5460   -0.8170 O.2   143  SER143     -0.2717
    186  CB       102.5470  -41.9760   -3.7760 C.3   143  SER143      0.2103
    187  OG       101.7370  -43.0780   -4.1220 O.3   143  SER143     -0.2182
    188  N        101.6100  -43.4470   -1.1440 N.am  144  ASP144     -0.1973
    189  CA       101.8690  -44.6970   -0.4240 C.3   144  ASP144      0.1709
    190  C        102.3380  -44.4520    1.0110 C.2   144  ASP144      0.2293
    191  O        103.0740  -45.2480    1.6080 O.2   144  ASP144     -0.2864
    192  CB       102.8650  -45.5410   -1.2020 C.3   144  ASP144      0.1436
    193  CG       102.2950  -45.9940   -2.5400 C.2   144  ASP144      0.3671
    194  OD1      101.1800  -46.5670   -2.5430 O.co2 144  ASP144     -0.2456
    195  OD2      102.9330  -45.7560   -3.5780 O.co2 144  ASP144     -0.2456
    196  N        102.0270  -47.2770    4.1640 N.3   147  LEU147     -0.1231
    197  CA       101.9190  -48.6740    3.7570 C.3   147  LEU147      0.1693
    198  C        103.1670  -49.4910    4.0640 C.2   147  LEU147      0.2592
    199  O        103.0880  -50.7240    4.0880 O.2   147  LEU147     -0.2718
    200  CB       101.6160  -48.7730    2.2610 C.3   147  LEU147      0.0284
    201  CG       100.2700  -48.1770    1.8590 C.3   147  LEU147      0.0019
    202  CD1      100.1110  -48.1820    0.3460 C.3   147  LEU147      0.0001
    203  CD2       99.1310  -48.9390    2.5130 C.3   147  LEU147      0.0001
    204  N        104.3190  -48.8550    4.2830 N.am  148  SER148     -0.1952
    205  CA       105.4940  -49.6520    4.6030 C.3   148  SER148      0.1924
    206  C        105.2490  -50.4930    5.8490 C.2   148  SER148      0.2314
    207  O        105.8290  -51.5730    5.9920 O.2   148  SER148     -0.2863
    208  CB       106.7120  -48.7540    4.7820 C.3   148  SER148      0.2116
    209  OG       106.6770  -48.1060    6.0280 O.3   148  SER148     -0.2180
    210  N        104.3560  -54.2050    5.0030 N.3   151  VAL151     -0.1245
    211  CA       105.1710  -54.9950    4.0920 C.3   151  VAL151      0.1561
    212  C        105.6040  -56.2790    4.7800 C.2   151  VAL151      0.2260
    213  O        106.0560  -56.2660    5.9340 O.2   151  VAL151     -0.2867
    214  CB       106.3840  -54.1800    3.6160 C.3   151  VAL151      0.0252
    215  CG1      107.3160  -55.0420    2.7790 C.3   151  VAL151      0.0019
    216  CG2      105.9210  -52.9800    2.8110 C.3   151  VAL151      0.0019
    217  N        112.9810  -55.6530    2.9780 N.3   156  TYR156     -0.1241
    218  CA       112.4870  -54.2950    3.1530 C.3   156  TYR156      0.1605
    219  C        112.3510  -53.8860    4.6130 C.2   156  TYR156      0.2264
    220  O        112.6280  -52.7340    4.9450 O.2   156  TYR156     -0.2867
    221  CB       111.1290  -54.1350    2.4720 C.3   156  TYR156      0.0534
    222  CG       110.5640  -52.7520    2.6030 C.ar  156  TYR156     -0.0201
    223  CD1      110.9200  -51.7500    1.7050 C.ar  156  TYR156     -0.0009
    224  CD2      109.6880  -52.4330    3.6300 C.ar  156  TYR156     -0.0009
    225  CE1      110.4100  -50.4820    1.8160 C.ar  156  TYR156      0.0417
    226  CE2      109.1780  -51.1670    3.7570 C.ar  156  TYR156      0.0417
    227  CZ       109.5390  -50.1900    2.8420 C.ar  156  TYR156      0.1957
    228  OH       109.0460  -48.9160    2.9450 O.3   156  TYR156     -0.2866
@<TRIPOS>BOND
     1   119   118    2
     2    99    98    1
     3   111   110    2
     4   112   109    1
     5   118   120   am
     6   118   117    1
     7   110   109    1
     8   110   113   am
     9    97    98   ar
    10    97    95   ar
    11    98    96   ar
    12   109   108    1
    13   133   131   ar
    14   133   135   ar
    15     1     2    1
    16     8     6    1
    17   136   135    1
    18   114   117    1
    19   114   113    1
    20   114   115    1
    21     2     3    1
    22     2     5    1
    23   131   130   ar
    24   135   134   ar
    25   128   127    2
    26    96    94   ar
    27    95    93   ar
    28   116   115    2
    29   115   121   am
    30     6     5    1
    31     6     7    1
    32     9     3   am
    33     9    10    1
    34     3     4    2
    35   108   102   am
    36   126   127    1
    37   126   125    1
    38   126   129    1
    39    10    11    1
    40   130   129    1
    41   130   132   ar
    42   121   122    1
    43   134   132   ar
    44    94    93   ar
    45    93    92    1
    46   103   102    2
    47   102   101    1
    48   122   123    1
    49    47    46    2
    50    11    12    2
    51    11    13   am
    52    92    89    1
    53    46    45    1
    54   101   100    1
    55   101   104    1
    56   123   124    2
    57   100    90   am
    58    13    14    1
    59    90    91    2
    60    90    89    1
    61    18    17    1
    62    89    88    1
    63   104   105    1
    64    17    14    1
    65    17    19    1
    66    44    45    1
    67    45    48    1
    68    51    52    1
    69    52    55    1
    70    52    53    1
    71    14    15    1
    72    88    81   am
    73    48    49    1
    74    48    50    1
    75    16    15    2
    76    53    54    2
    77   105   106    1
    78    15    20   am
    79   106   107    1
    80    81    82    2
    81    81    80    1
    82   176   175    1
    83   176   177    2
    84   181   179    1
    85   178   175    1
    86   178   179    1
    87   175   174    1
    88    75    74    2
    89    20    21    1
    90    84    83    1
    91    84    85    1
    92   180   179    1
    93    80    83    1
    94    80    79    1
    95    86    85   ar
    96    56    57    1
    97    74    79   am
    98    74    73    1
    99    57    58    1
   100    57    60    1
   101    85    87   ar
   102    21    22    1
   103    58    59    2
   104    77    76    1
   105    72    73    1
   106   158   157    2
   107    23    22    2
   108   156   159    1
   109   156   157    1
   110   156   155    1
   111    73    76    1
   112    22    24   am
   113    60    61    1
   114   159   160    1
   115    61    62    1
   116    70    69    1
   117    76    78    1
   118   157   166   am
   119    71    69    1
   120    36    35    2
   121    64    63    1
   122    35    34    1
   123    24    25    1
   124    69    66    1
   125    62    63    1
   126   187   186    1
   127   160   161    1
   128   166   167    1
   129   161   162    1
   130    66    67    1
   131    66    65    1
   132   186   183    1
   133   195   193   ar
   134   168   167    1
   135   168   169    2
   136   167   170    1
   137    33    34    1
   138    33    26   am
   139    34    37    1
   140    25    26    1
   141    25    28    1
   142    67    68    2
   143    26    27    2
   144   172   171    2
   145    37    38    1
   146   194   193   ar
   147   193   192    1
   148   183   182    1
   149   183   184    1
   150   162   163    2
   151   165   163    1
   152   171   170    1
   153   171   173   am
   154    28    29    1
   155    31    30    2
   156   163   164    1
   157   184   188   am
   158   184   185    2
   159    38    40   ar
   160    38    39   ar
   161   192   189    1
   162   188   189    1
   163    30    29    1
   164    30    32   am
   165    40    42   ar
   166   189   190    1
   167    39    41   ar
   168    42    43   ar
   169   202   201    1
   170    41    43   ar
   171   190   191    2
   172   150   149    2
   173   154   152   ar
   174   146   145   ar
   175   146   144   ar
   176   153   152   ar
   177   223   225   ar
   178   223   222   ar
   179   152   151    1
   180   225   227   ar
   181   201   200    1
   182   201   203    1
   183   145   143   ar
   184   200   197    1
   185   149   148    1
   186   144   142   ar
   187   221   222    1
   188   221   218    1
   189   222   224   ar
   190   151   148    1
   191   215   214    1
   192   216   214    1
   193   227   228    1
   194   227   226   ar
   195   217   218    1
   196   218   219    1
   197   143   142   ar
   198   148   147    1
   199   142   141    1
   200   214   211    1
   201   224   226   ar
   202   197   198    1
   203   197   196    1
   204   198   199    2
   205   198   204   am
   206   211   212    1
   207   211   210    1
   208   204   205    1
   209   205   208    1
   210   205   206    1
   211   219   220    2
   212   212   213    2
   213   208   209    1
   214   141   138    1
   215   140   139    2
   216   206   207    2
   217   138   139    1
   218   138   137    1
