@<TRIPOS>MOLECULE
tmp/6bj0A00.pdb
 157 151 0 0 0
SMALL
GASTEIGER

@<TRIPOS>ATOM
      1  N         27.4190  -61.9800   14.9220 N.3    21  THR21      -0.1203
      2  CA        26.5420  -61.4310   13.9040 C.3    21  THR21       0.1994
      3  C         27.2840  -61.2070   12.5870 C.2    21  THR21       0.2618
      4  O         26.6830  -61.3140   11.5110 O.2    21  THR21      -0.2717
      5  CB        25.9290  -60.1350   14.4310 C.3    21  THR21       0.1784
      6  OG1       24.7940  -59.7740   13.6360 O.3    21  THR21      -0.2211
      7  CG2       26.9560  -58.9960   14.4550 C.3    21  THR21       0.0376
      8  N         28.5940  -60.9350   12.6450 N.am   22  SER22      -0.1951
      9  CA        29.3500  -60.5240   11.4670 C.3    22  SER22       0.1924
     10  C         30.4540  -61.5090   11.0970 C.2    22  SER22       0.2314
     11  O         31.3520  -61.1650   10.3240 O.2    22  SER22      -0.2863
     12  CB        29.9190  -59.1200   11.6700 C.3    22  SER22       0.2116
     13  OG        30.2900  -58.8950   13.0090 O.3    22  SER22      -0.2180
     14  N         35.2860  -56.4590    7.4020 N.3   119  SER119     -0.1202
     15  CA        34.5650  -55.1980    7.2510 C.3   119  SER119      0.2020
     16  C         35.4800  -53.9750    7.3630 C.2   119  SER119      0.2618
     17  O         36.3460  -53.7590    6.5120 O.2   119  SER119     -0.2717
     18  CB        33.4270  -55.1320    8.2740 C.3   119  SER119      0.2103
     19  OG        32.4940  -54.1070    7.9630 O.3   119  SER119     -0.2182
     20  N         35.2930  -53.1780    8.4070 N.am  120  HIS120     -0.1975
     21  CA        36.0060  -51.9240    8.6040 C.3   120  HIS120      0.1656
     22  C         37.2220  -52.0610    9.5130 C.2   120  HIS120      0.2291
     23  O         37.8910  -51.0570    9.7960 O.2   120  HIS120     -0.2864
     24  CB        35.0470  -50.8950    9.1830 C.3   120  HIS120      0.0771
     25  CG        34.3370  -51.3870   10.4020 C.ar  120  HIS120      0.0820
     26  ND1       33.2900  -52.2840   10.3390 N.ar  120  HIS120     -0.2267
     27  CD2       34.5440  -51.1360   11.7170 C.ar  120  HIS120      0.1154
     28  CE1       32.8710  -52.5480   11.5630 C.ar  120  HIS120      0.1986
     29  NE2       33.6120  -51.8620   12.4170 N.ar  120  HIS120     -0.2212
     30  N         29.3180  -52.1480    2.9390 N.3   294  ASP294     -0.1225
     31  CA        27.9470  -52.0390    3.3980 C.3   294  ASP294      0.1805
     32  C         27.7210  -50.8020    4.2520 C.2   294  ASP294      0.2597
     33  O         26.5890  -50.5610    4.6780 O.2   294  ASP294     -0.2718
     34  CB        27.5050  -53.3310    4.1110 C.3   294  ASP294      0.1424
     35  CG        28.2850  -53.6390    5.3970 C.2   294  ASP294      0.3668
     36  OD1       29.4140  -53.1580    5.6260 O.co2 294  ASP294     -0.2456
     37  OD2       27.7440  -54.4300    6.1790 O.co2 294  ASP294     -0.2456
     38  N         28.7380  -49.9560    4.4120 N.am  295  ARG295     -0.1979
     39  CA        28.6210  -48.7250    5.1820 C.3   295  ARG295      0.1597
     40  C         28.9590  -47.5430    4.2870 C.2   295  ARG295      0.2287
     41  O         29.6890  -47.6810    3.3040 O.2   295  ARG295     -0.2864
     42  CB        29.5400  -48.7630    6.4480 C.3   295  ARG295      0.0334
     43  CG        28.8300  -49.3310    7.6860 C.3   295  ARG295      0.0492
     44  CD        29.7040  -50.1400    8.6460 C.3   295  ARG295      0.2205
     45  NE        30.5410  -49.3100    9.4990 N.pl3 295  ARG295     -0.0865
     46  CZ        30.7510  -49.5300   10.7950 C.cat 295  ARG295      0.5346
     47  NH1       30.1780  -50.5590   11.4210 N.pl3 295  ARG295      0.1354
     48  NH2       31.5390  -48.7110   11.4770 N.pl3 295  ARG295      0.1354
     49  N         19.7600  -53.3030   17.7990 N.3   359  THR359     -0.1203
     50  CA        20.9320  -53.3020   16.9370 C.3   359  THR359      0.1994
     51  C         21.1440  -54.7010   16.3670 C.2   359  THR359      0.2618
     52  O         21.1210  -55.6910   17.1130 O.2   359  THR359     -0.2717
     53  CB        22.1670  -52.8410   17.7330 C.3   359  THR359      0.1784
     54  OG1       22.0480  -51.4470   18.0580 O.3   359  THR359     -0.2211
     55  CG2       23.4560  -53.0400   16.9320 C.3   359  THR359      0.0376
     56  N         21.3660  -54.7790   15.0530 N.am  360  GLY360     -0.1942
     57  CA        21.5560  -56.0560   14.3900 C.3   360  GLY360      0.2014
     58  C         20.7700  -56.2000   13.0990 C.2   360  GLY360      0.2638
     59  O         19.6330  -55.7200   12.9880 O.2   360  GLY360     -0.2714
     60  N         21.3650  -56.8930   12.1220 N.am  361  TRP361     -0.1973
     61  CA        20.7450  -57.0230   10.8070 C.3   361  TRP361      0.1640
     62  C         19.4590  -57.8390   10.8520 C.2   361  TRP361      0.2290
     63  O         18.4920  -57.5290   10.1360 O.2   361  TRP361     -0.2864
     64  CB        21.6990  -57.6840    9.8100 C.3   361  TRP361      0.0576
     65  CG        20.9340  -58.0500    8.5990 C.ar  361  TRP361      0.0006
     66  CD1       20.4430  -59.2840    8.2700 C.ar  361  TRP361      0.0946
     67  CD2       20.4720  -57.1440    7.5870 C.ar  361  TRP361      0.0152
     68  NE1       19.7310  -59.2050    7.0830 N.ar  361  TRP361     -0.2442
     69  CE2       19.7330  -57.9010    6.6500 C.ar  361  TRP361      0.0810
     70  CE3       20.6360  -55.7690    7.3680 C.ar  361  TRP361      0.0012
     71  CZ2       19.1510  -57.3240    5.5160 C.ar  361  TRP361      0.0191
     72  CZ3       20.0620  -55.1950    6.2330 C.ar  361  TRP361      0.0001
     73  CH2       19.3310  -55.9790    5.3220 C.ar  361  TRP361      0.0015
     74  N         20.9240  -47.1890   10.0700 N.3   378  GLU378     -0.1231
     75  CA        21.6170  -47.3050   11.3440 C.3   378  GLU378      0.1699
     76  C         22.5290  -46.1040   11.4980 C.2   378  GLU378      0.2592
     77  O         23.2390  -45.7450   10.5530 O.2   378  GLU378     -0.2718
     78  CB        22.4790  -48.5510   11.4270 C.3   378  GLU378      0.0402
     79  CG        21.7870  -49.8450   11.7350 C.3   378  GLU378      0.1161
     80  CD        22.6620  -51.0330   11.3380 C.2   378  GLU378      0.3649
     81  OE1       23.8500  -50.7970   11.0150 O.co2 378  GLU378     -0.2457
     82  OE2       22.1650  -52.1850   11.3150 O.co2 378  GLU378     -0.2457
     83  N         22.5300  -45.5050   12.6980 N.am  379  GLU379     -0.1966
     84  CA        23.4020  -44.3670   12.9630 C.3   379  GLU379      0.1733
     85  C         24.8670  -44.6800   12.6540 C.2   379  GLU379      0.2617
     86  O         25.6410  -43.7700   12.3290 O.2   379  GLU379     -0.2715
     87  CB        23.2320  -43.9010   14.4260 C.3   379  GLU379      0.0429
     88  CG        23.4530  -44.9910   15.4860 C.3   379  GLU379      0.1163
     89  CD        24.9230  -45.2540   15.7700 C.2   379  GLU379      0.3649
     90  OE1       25.7500  -44.3220   15.6610 O.co2 379  GLU379     -0.2457
     91  OE2       25.2540  -46.4150   16.0630 O.co2 379  GLU379     -0.2457
     92  N         25.2640  -45.9550   12.7280 N.am  380  SER380     -0.1950
     93  CA        26.6340  -46.3530   12.4010 C.3   380  SER380      0.1924
     94  C         26.8780  -46.4630   10.8930 C.2   380  SER380      0.2314
     95  O         27.4700  -47.4470   10.4330 O.2   380  SER380     -0.2863
     96  CB        26.9820  -47.6850   13.0680 C.3   380  SER380      0.2116
     97  OG        25.9960  -48.6650   12.7630 O.3   380  SER380     -0.2180
     98  N         23.2320  -54.4370    4.1920 N.3   391  LYS391     -0.1245
     99  CA        23.2600  -53.0130    3.9050 C.3   391  LYS391      0.1561
    100  C         24.1540  -52.7560    2.6860 C.2   391  LYS391      0.2260
    101  O         24.9490  -53.6060    2.2770 O.2   391  LYS391     -0.2867
    102  CB        23.7180  -52.2430    5.1460 C.3   391  LYS391      0.0271
    103  CG        22.8620  -52.5780    6.3890 C.3   391  LYS391      0.0035
    104  CD        23.4830  -52.1360    7.7250 C.3   391  LYS391      0.0206
    105  CE        24.7930  -52.8740    8.0670 C.3   391  LYS391      0.1093
    106  NZ        24.6520  -54.3460    8.3400 N.3   391  LYS391     -0.1314
    107  N         24.0640  -47.8950   25.7540 N.3   505  ARG505     -0.1245
    108  CA        24.2950  -49.3020   25.4730 C.3   505  ARG505      0.1563
    109  C         25.7110  -49.6760   25.8860 C.2   505  ARG505      0.2260
    110  O         26.6350  -48.8550   25.8190 O.2   505  ARG505     -0.2867
    111  CB        24.0990  -49.6370   23.9830 C.3   505  ARG505      0.0307
    112  CG        22.6670  -49.7900   23.5320 C.3   505  ARG505      0.0489
    113  CD        22.5920  -50.1460   22.0380 C.3   505  ARG505      0.2205
    114  NE        23.1550  -51.4590   21.7310 N.pl3 505  ARG505     -0.0865
    115  CZ        24.2960  -51.6500   21.0720 C.cat 505  ARG505      0.5346
    116  NH1       25.0050  -50.6090   20.6600 N.pl3 505  ARG505      0.1354
    117  NH2       24.7350  -52.8810   20.8200 N.pl3 505  ARG505      0.1354
    118  N         28.5930  -52.1320   24.4680 N.3   507  SER507     -0.1202
    119  CA        28.9040  -52.7150   23.1720 C.3   507  SER507      0.2020
    120  C         29.0140  -54.2360   23.2720 C.2   507  SER507      0.2619
    121  O         29.7430  -54.7670   24.1210 O.2   507  SER507     -0.2717
    122  CB        30.2070  -52.1090   22.6470 C.3   507  SER507      0.2103
    123  OG        30.7850  -52.8730   21.5990 O.3   507  SER507     -0.2182
    124  N         28.2860  -54.9350   22.4040 N.am  508  GLY508     -0.1942
    125  CA        28.3920  -56.3720   22.2730 C.3   508  GLY508      0.2014
    126  C         29.4600  -56.8630   21.3150 C.2   508  GLY508      0.2639
    127  O         29.4540  -58.0490   20.9700 O.2   508  GLY508     -0.2714
    128  N         30.3680  -55.9940   20.8640 N.am  509  THR509     -0.1950
    129  CA        31.4700  -56.3520   19.9680 C.3   509  THR509      0.1897
    130  C         32.7900  -56.4410   20.7260 C.2   509  THR509      0.2313
    131  O         33.8480  -56.0990   20.1840 O.2   509  THR509     -0.2863
    132  CB        31.5830  -55.3520   18.8150 C.3   509  THR509      0.1794
    133  OG1       31.5340  -54.0150   19.3200 O.3   509  THR509     -0.2208
    134  CG2       30.4450  -55.5320   17.8280 C.3   509  THR509      0.0378
    135  N         28.3790  -46.8910   24.7990 N.3   517  ARG517     -0.1245
    136  CA        27.8810  -46.0570   23.7170 C.3   517  ARG517      0.1563
    137  C         26.7220  -45.2410   24.2550 C.2   517  ARG517      0.2260
    138  O         25.7180  -45.7990   24.7090 O.2   517  ARG517     -0.2867
    139  CB        27.4480  -46.8880   22.5090 C.3   517  ARG517      0.0307
    140  CG        28.5760  -47.6500   21.9140 C.3   517  ARG517      0.0489
    141  CD        28.2560  -48.0990   20.4860 C.3   517  ARG517      0.2205
    142  NE        29.0730  -49.2500   20.1260 N.pl3 517  ARG517     -0.0865
    143  CZ        30.3250  -49.1640   19.6810 C.cat 517  ARG517      0.5346
    144  NH1       30.9100  -47.9800   19.5340 N.pl3 517  ARG517      0.1354
    145  NH2       30.9930  -50.2660   19.3900 N.pl3 517  ARG517      0.1354
    146  N         24.1080  -42.3450   23.1450 N.3   519  TYR519     -0.1241
    147  CA        23.4970  -41.6980   21.9960 C.3   519  TYR519      0.1605
    148  C         22.6200  -40.5600   22.4850 C.2   519  TYR519      0.2264
    149  O         21.7900  -40.7470   23.3860 O.2   519  TYR519     -0.2867
    150  CB        22.6520  -42.6740   21.1740 C.3   519  TYR519      0.0534
    151  CG        23.2820  -44.0220   20.8980 C.ar  519  TYR519     -0.0201
    152  CD1       23.7750  -44.3280   19.6350 C.ar  519  TYR519     -0.0009
    153  CD2       23.3600  -45.0020   21.8950 C.ar  519  TYR519     -0.0009
    154  CE1       24.3400  -45.5510   19.3610 C.ar  519  TYR519      0.0417
    155  CE2       23.9200  -46.2390   21.6280 C.ar  519  TYR519      0.0417
    156  CZ        24.4020  -46.5040   20.3470 C.ar  519  TYR519      0.1957
    157  OH        24.9640  -47.7180   20.0560 O.3   519  TYR519     -0.2866
@<TRIPOS>BOND
     1   101   100    2
     2   100    99    1
     3    30    31    1
     4    41    40    2
     5    31    34    1
     6    31    32    1
     7    99    98    1
     8    99   102    1
     9    34    35    1
    10    32    38   am
    11    32    33    2
    12    40    39    1
    13    38    39    1
    14   102   103    1
    15    39    42    1
    16    73    71   ar
    17    73    72   ar
    18    35    36   ar
    19    35    37   ar
    20    71    69   ar
    21    72    70   ar
    22   103   104    1
    23    42    43    1
    24    17    16    2
    25    69    68   ar
    26    69    67   ar
    27    68    66   ar
    28    15    16    1
    29    15    14    1
    30    15    18    1
    31    16    20   am
    32    70    67   ar
    33    67    65   ar
    34    43    44    1
    35   104   105    1
    36    19    18    1
    37   105   106    1
    38    66    65   ar
    39    20    21    1
    40    65    64    1
    41    21    24    1
    42    21    22    1
    43    44    45    1
    44    24    25    1
    45    45    46    2
    46    22    23    2
    47    64    61    1
    48    74    75    1
    49    63    62    2
    50    11    10    2
    51    26    25   ar
    52    26    28   ar
    53    25    27   ar
    54    95    94    2
    55    77    76    2
    56    46    47    1
    57    46    48    1
    58    61    62    1
    59    61    60    1
    60    94    93    1
    61    81    80   ar
    62    10     9    1
    63    82    80   ar
    64    80    79    1
    65    75    78    1
    66    75    76    1
    67    78    79    1
    68     9    12    1
    69     9     8    1
    70    76    83   am
    71     4     3    2
    72    28    29   ar
    73    12    13    1
    74    27    29   ar
    75    60    58   am
    76    86    85    2
    77    93    92    1
    78    93    96    1
    79     3     8   am
    80     3     2    1
    81    85    92   am
    82    85    84    1
    83    83    84    1
    84    97    96    1
    85    84    87    1
    86    59    58    2
    87    58    57    1
    88     6     5    1
    89     2     5    1
    90     2     1    1
    91    57    56    1
    92    87    88    1
    93     5     7    1
    94    56    51   am
    95    88    89    1
    96    90    89   ar
    97    89    91   ar
    98    51    50    1
    99    51    52    2
   100    55    53    1
   101    50    53    1
   102    50    49    1
   103    53    54    1
   104   134   132    1
   105   132   133    1
   106   132   129    1
   107   154   152   ar
   108   154   156   ar
   109   145   143    1
   110   144   143    1
   111   152   151   ar
   112   143   142    2
   113   129   130    1
   114   129   128    1
   115   157   156    1
   116   142   141    1
   117   131   130    2
   118   156   155   ar
   119   141   140    1
   120   116   115    1
   121   117   115    1
   122   128   126   am
   123   151   150    1
   124   151   153   ar
   125   127   126    2
   126   115   114    2
   127   150   147    1
   128   126   125    1
   129   123   122    1
   130   155   153   ar
   131   114   113    1
   132   140   139    1
   133   147   148    1
   134   147   146    1
   135   113   112    1
   136   125   124    1
   137   124   120   am
   138   148   149    2
   139   139   136    1
   140   122   119    1
   141   119   120    1
   142   119   118    1
   143   120   121    2
   144   112   111    1
   145   136   137    1
   146   136   135    1
   147   111   108    1
   148   137   138    2
   149   108   107    1
   150   108   109    1
   151   110   109    2
