@<TRIPOS>MOLECULE
tmp/6bj6A00.pdb
 168 161 0 0 0
SMALL
GASTEIGER

@<TRIPOS>ATOM
      1  N          3.0700   16.7970   52.4680 N.3    30  SER30      -0.1217
      2  CA         2.1610   15.8450   53.1000 C.3    30  SER30       0.1889
      3  C          0.8830   15.6900   52.2710 C.2    30  SER30       0.2288
      4  O          0.3430   16.6650   51.7360 O.2    30  SER30      -0.2866
      5  CB         1.8430   16.2800   54.5270 C.3    30  SER30       0.2089
      6  OG         1.1660   17.5100   54.5380 O.3    30  SER30      -0.2183
      7  N          8.7900   15.0610   56.4480 N.3    81  ARG81      -0.1245
      8  CA         8.7210   16.5190   56.5700 C.3    81  ARG81       0.1563
      9  C          9.9230   17.0650   57.3390 C.2    81  ARG81       0.2260
     10  O         10.2550   16.5520   58.4130 O.2    81  ARG81      -0.2867
     11  CB         7.4250   16.9280   57.2800 C.3    81  ARG81       0.0307
     12  CG         6.2650   16.5870   56.3370 C.3    81  ARG81       0.0489
     13  CD         4.9250   16.9240   56.9380 C.3    81  ARG81       0.2205
     14  NE         4.6820   16.0610   58.1140 N.pl3  81  ARG81      -0.0865
     15  CZ         4.8900   16.6720   59.2700 C.cat  81  ARG81       0.5346
     16  NH1        5.3520   17.9100   59.1780 N.pl3  81  ARG81       0.1354
     17  NH2        4.8460   15.9920   60.3490 N.pl3  81  ARG81       0.1354
     18  N         10.5020   20.9020   58.1590 N.3    83  HIS83      -0.1241
     19  CA        10.0620   22.2950   58.0890 C.3    83  HIS83       0.1621
     20  C         10.5900   23.0990   59.2810 C.2    83  HIS83       0.2264
     21  O         10.7340   22.5750   60.3940 O.2    83  HIS83      -0.2867
     22  CB         8.5440   22.3810   58.0660 C.3    83  HIS83       0.0745
     23  CG         7.9160   21.8430   56.8100 C.ar   83  HIS83       0.0817
     24  ND1        6.5670   21.6260   56.6960 N.ar   83  HIS83      -0.2268
     25  CD2        8.4570   21.4800   55.6260 C.ar   83  HIS83       0.1154
     26  CE1        6.2950   21.1300   55.5010 C.ar   83  HIS83       0.1986
     27  NE2        7.4250   21.0360   54.8260 N.ar   83  HIS83      -0.2212
     28  N          9.3070   25.4830   61.1690 N.3    85  TYR85      -0.1241
     29  CA         8.4590   25.6960   62.3530 C.3    85  TYR85       0.1605
     30  C          8.6090   24.5720   63.3670 C.2    85  TYR85       0.2264
     31  O          8.1640   24.7400   64.5050 O.2    85  TYR85      -0.2867
     32  CB         6.9600   25.8560   61.9970 C.3    85  TYR85       0.0534
     33  CG         6.3990   24.6960   61.2060 C.ar   85  TYR85      -0.0201
     34  CD1        6.1270   23.4740   61.8200 C.ar   85  TYR85      -0.0009
     35  CD2        6.1520   24.8230   59.8440 C.ar   85  TYR85      -0.0009
     36  CE1        5.6420   22.4040   61.0960 C.ar   85  TYR85       0.0417
     37  CE2        5.6980   23.7470   59.1040 C.ar   85  TYR85       0.0417
     38  CZ         5.4360   22.5440   59.7280 C.ar   85  TYR85       0.1957
     39  OH         4.9820   21.4830   58.9540 O.3    85  TYR85      -0.2866
     40  N          3.7800   21.5910   47.7350 N.3   112  ASN112     -0.1225
     41  CA         3.2320   21.6560   49.0890 C.3   112  ASN112      0.1785
     42  C          1.8650   22.3270   49.0760 C.2   112  ASN112      0.2597
     43  O          1.5580   23.1140   48.1890 O.2   112  ASN112     -0.2718
     44  CB         4.1740   22.4160   50.0450 C.3   112  ASN112      0.1169
     45  CG         4.1890   21.8300   51.5040 C.2   112  ASN112      0.2627
     46  OD1        5.0440   21.0140   51.8510 O.2   112  ASN112     -0.2716
     47  ND2        3.2520   22.2690   52.3450 N.am  112  ASN112     -0.0877
     48  N          1.0430   21.9890   50.0790 N.am  113  LEU113     -0.1966
     49  CA        -0.2030   22.7210   50.3280 C.3   113  LEU113      0.1728
     50  C          0.0860   24.1500   50.7890 C.2   113  LEU113      0.2616
     51  O          1.0900   24.4070   51.4670 O.2   113  LEU113     -0.2715
     52  CB        -1.0130   22.0040   51.3940 C.3   113  LEU113      0.0311
     53  CG        -1.6670   20.6550   50.9880 C.3   113  LEU113      0.0022
     54  CD1       -1.8270   19.7060   52.1690 C.3   113  LEU113      0.0001
     55  CD2       -3.0680   20.9710   50.3930 C.3   113  LEU113      0.0001
     56  N         -0.8370   25.0680   50.4780 N.am  114  ALA114     -0.1963
     57  CA        -0.6810   26.4910   50.8130 C.3   114  ALA114      0.1728
     58  C         -2.0290   27.2010   50.8480 C.2   114  ALA114      0.2616
     59  O         -3.0480   26.6730   50.3900 O.2   114  ALA114     -0.2715
     60  CB         0.2380   27.2110   49.8090 C.3   114  ALA114      0.0334
     61  N         -2.0190   28.4130   51.4020 N.am  115  GLY115     -0.1955
     62  CA        -3.2240   29.2700   51.4790 C.3   115  GLY115      0.1869
     63  C         -3.2760   30.2570   50.3230 C.2   115  GLY115      0.2309
     64  O         -2.2550   30.8320   49.9380 O.2   115  GLY115     -0.2863
     65  N          4.9450   33.7030   46.0420 N.3   189  TYR189     -0.1241
     66  CA         4.7720   32.9720   47.3020 C.3   189  TYR189      0.1605
     67  C          5.3350   33.7720   48.4830 C.2   189  TYR189      0.2264
     68  O          6.5200   34.1230   48.4850 O.2   189  TYR189     -0.2867
     69  CB         5.4770   31.6150   47.2010 C.3   189  TYR189      0.0534
     70  CG         5.4050   30.6500   48.3990 C.ar  189  TYR189     -0.0201
     71  CD1        4.4890   29.5920   48.4170 C.ar  189  TYR189     -0.0009
     72  CD2        6.3080   30.7540   49.4670 C.ar  189  TYR189     -0.0009
     73  CE1        4.4460   28.6940   49.4700 C.ar  189  TYR189      0.0417
     74  CE2        6.2580   29.8500   50.5330 C.ar  189  TYR189      0.0417
     75  CZ         5.3470   28.8360   50.5160 C.ar  189  TYR189      0.1957
     76  OH         5.3390   27.9430   51.5610 O.3   189  TYR189     -0.2866
     77  N         -1.6870   29.2540   61.1410 N.3   197  TYR197     -0.1227
     78  CA        -2.0940   29.7420   59.8310 C.3   197  TYR197      0.1736
     79  C         -2.0460   31.2730   59.8250 C.2   197  TYR197      0.2595
     80  O         -2.1890   31.9220   60.8650 O.2   197  TYR197     -0.2718
     81  CB        -3.5270   29.2900   59.4710 C.3   197  TYR197      0.0548
     82  CG        -3.7240   27.7770   59.3320 C.ar  197  TYR197     -0.0200
     83  CD1       -3.3460   27.1000   58.1950 C.ar  197  TYR197     -0.0009
     84  CD2       -4.3180   27.0540   60.3450 C.ar  197  TYR197     -0.0009
     85  CE1       -3.5520   25.6980   58.0800 C.ar  197  TYR197      0.0417
     86  CE2       -4.5370   25.6790   60.2410 C.ar  197  TYR197      0.0417
     87  CZ        -4.1300   25.0110   59.1090 C.ar  197  TYR197      0.1957
     88  OH        -4.3200   23.6450   58.9980 O.3   197  TYR197     -0.2866
     89  N         -1.8880   31.8460   58.6340 N.am  198  GLU198     -0.1979
     90  CA        -1.9860   33.2950   58.4850 C.3   198  GLU198      0.1602
     91  C         -3.2920   33.8030   59.0870 C.2   198  GLU198      0.2287
     92  O         -4.3670   33.2650   58.8120 O.2   198  GLU198     -0.2864
     93  CB        -1.8910   33.6860   57.0010 C.3   198  GLU198      0.0415
     94  CG        -3.0190   33.1630   56.0960 C.3   198  GLU198      0.1163
     95  CD        -2.8860   31.6880   55.7530 C.2   198  GLU198      0.3649
     96  OE1       -1.8400   31.0890   56.0770 O.co2 198  GLU198     -0.2457
     97  OE2       -3.8310   31.1240   55.1520 O.co2 198  GLU198     -0.2457
     98  N          0.4300   31.9510   50.2750 N.3   214  VAL214     -0.1231
     99  CA         1.2150   32.0120   51.5160 C.3   214  VAL214      0.1692
    100  C          1.3510   30.6000   52.0980 C.2   214  VAL214      0.2593
    101  O          0.3920   29.8200   52.1180 O.2   214  VAL214     -0.2718
    102  CB         0.5920   33.0000   52.5430 C.3   214  VAL214      0.0266
    103  CG1       -0.8430   32.6340   52.9190 C.3   214  VAL214      0.0020
    104  CG2        1.4640   33.1140   53.8000 C.3   214  VAL214      0.0020
    105  N          2.5500   30.2680   52.5860 N.am  215  GLY215     -0.1942
    106  CA         2.7660   28.9460   53.1500 C.3   215  GLY215      0.2014
    107  C          3.9870   28.9060   54.0520 C.2   215  GLY215      0.2639
    108  O          4.6850   29.9030   54.2220 O.2   215  GLY215     -0.2714
    109  N          4.2220   27.7240   54.6370 N.am  216  MET216     -0.1963
    110  CA         5.2370   27.5430   55.6810 C.3   216  MET216      0.1736
    111  C          6.4250   26.6930   55.2400 C.2   216  MET216      0.2617
    112  O          7.1880   26.2420   56.0960 O.2   216  MET216     -0.2715
    113  CB         4.5900   26.8880   56.9240 C.3   216  MET216      0.0427
    114  CG         3.3200   27.5780   57.3950 C.3   216  MET216      0.0599
    115  SD         2.5370   26.7000   58.7690 S.3   216  MET216     -0.1393
    116  CE         0.9160   27.4670   58.7700 C.3   216  MET216      0.0692
    117  N          6.5840   26.4510   53.9350 N.am  217  SER217     -0.1950
    118  CA         7.5760   25.5120   53.4000 C.3   217  SER217      0.1924
    119  C          8.3430   26.1500   52.2440 C.2   217  SER217      0.2314
    120  O          8.2650   27.3630   52.0420 O.2   217  SER217     -0.2863
    121  CB         6.8910   24.2310   52.8970 C.3   217  SER217      0.2116
    122  OG         6.0760   24.4780   51.7400 O.3   217  SER217     -0.2180
    123  N         -5.2940   25.2580   49.4380 N.3   239  ALA239     -0.1231
    124  CA        -6.2440   24.6060   50.3350 C.3   239  ALA239      0.1694
    125  C         -7.5320   25.4160   50.5080 C.2   239  ALA239      0.2592
    126  O         -8.6110   24.8370   50.7060 O.2   239  ALA239     -0.2718
    127  CB        -5.5900   24.3810   51.7040 C.3   239  ALA239      0.0304
    128  N         -7.4370   26.7410   50.4410 N.am  240  ASN240     -0.1974
    129  CA        -8.5390   27.6520   50.7690 C.3   240  ASN240      0.1688
    130  C         -8.1630   29.0290   50.2440 C.2   240  ASN240      0.2292
    131  O         -6.9870   29.2850   49.9620 O.2   240  ASN240     -0.2864
    132  CB        -8.7700   27.7390   52.2810 C.3   240  ASN240      0.1181
    133  CG        -7.6430   28.4840   52.9760 C.2   240  ASN240      0.2629
    134  OD1       -6.4980   28.0920   52.8580 O.2   240  ASN240     -0.2716
    135  ND2       -7.9480   29.5900   53.6210 N.am  240  ASN240     -0.0877
    136  N        -10.6500   27.3150   59.4120 N.3   252  ILE252     -0.1245
    137  CA       -10.0170   26.2100   58.6990 C.3   252  ILE252      0.1561
    138  C         -9.4540   25.2330   59.7320 C.2   252  ILE252      0.2260
    139  O         -9.1670   25.6090   60.8740 O.2   252  ILE252     -0.2867
    140  CB        -8.9340   26.7350   57.7290 C.3   252  ILE252      0.0252
    141  CG1       -8.4250   25.6320   56.7910 C.3   252  ILE252      0.0019
    142  CG2       -7.7930   27.3990   58.4940 C.3   252  ILE252      0.0019
    143  CD1       -9.2370   25.4870   55.5060 C.3   252  ILE252      0.0001
    144  N         -7.3060   21.0290   60.1050 N.3   254  HIS254     -0.1241
    145  CA        -6.3390   20.1550   59.4450 C.3   254  HIS254      0.1621
    146  C         -7.0340   19.1430   58.5380 C.2   254  HIS254      0.2264
    147  O         -6.4820   18.7410   57.5030 O.2   254  HIS254     -0.2867
    148  CB        -5.4920   19.4360   60.4930 C.3   254  HIS254      0.0745
    149  CG        -4.3590   18.6500   59.9140 C.ar  254  HIS254      0.0817
    150  ND1       -4.4640   17.3110   59.6020 N.ar  254  HIS254     -0.2268
    151  CD2       -3.0980   19.0150   59.5820 C.ar  254  HIS254      0.1154
    152  CE1       -3.3160   16.8850   59.1070 C.ar  254  HIS254      0.1986
    153  NE2       -2.4670   17.8980   59.0910 N.ar  254  HIS254     -0.2212
    154  N         -7.8530   20.7870   55.1540 N.3   257  VAL257     -0.1231
    155  CA        -6.6840   20.9470   54.3030 C.3   257  VAL257      0.1692
    156  C         -6.3050   19.6200   53.6540 C.2   257  VAL257      0.2591
    157  O         -6.0650   19.5570   52.4450 O.2   257  VAL257     -0.2718
    158  CB        -5.5140   21.5390   55.1090 C.3   257  VAL257      0.0266
    159  CG1       -4.2720   21.6030   54.2640 C.3   257  VAL257      0.0020
    160  CG2       -5.8930   22.9070   55.6310 C.3   257  VAL257      0.0020
    161  N         -6.2180   18.5380   54.4500 N.am  258  LEU258     -0.1980
    162  CA        -5.7490   17.2820   53.8760 C.3   258  LEU258      0.1596
    163  C         -6.7740   16.6820   52.9110 C.2   258  LEU258      0.2287
    164  O         -6.3890   15.9400   51.9990 O.2   258  LEU258     -0.2864
    165  CB        -5.4060   16.2800   54.9730 C.3   258  LEU258      0.0297
    166  CG        -3.9400   16.2960   55.4350 C.3   258  LEU258      0.0022
    167  CD1       -2.9830   15.8610   54.3280 C.3   258  LEU258      0.0001
    168  CD2       -3.5570   17.6650   55.9320 C.3   258  LEU258      0.0001
@<TRIPOS>BOND
     1    65    66    1
     2    69    66    1
     3    69    70    1
     4    66    67    1
     5    40    41    1
     6    43    42    2
     7    70    71   ar
     8    70    72   ar
     9    71    73   ar
    10    67    68    2
    11    42    41    1
    12    42    48   am
    13    41    44    1
    14   123   124    1
    15    72    74   ar
    16    73    75   ar
    17    60    57    1
    18    64    63    2
    19   131   130    2
    20    44    45    1
    21    48    49    1
    22   130   129    1
    23    98    99    1
    24    63    62    1
    25    49    50    1
    26    49    52    1
    27   124   125    1
    28   124   127    1
    29    59    58    2
    30    55    53    1
    31   128   125   am
    32   128   129    1
    33    56    50   am
    34    56    57    1
    35   125   126    2
    36    75    74   ar
    37    75    76    1
    38   129   132    1
    39    50    51    2
    40    57    58    1
    41    58    61   am
    42    53    52    1
    43    53    54    1
    44    61    62    1
    45    45    46    2
    46    45    47   am
    47    99   100    1
    48    99   102    1
    49     4     3    2
    50   122   121    1
    51   164   163    2
    52   120   119    2
    53   100   101    2
    54   100   105   am
    55   119   118    1
    56     3     2    1
    57   132   133    1
    58   157   156    2
    59     1     2    1
    60   102   103    1
    61   102   104    1
    62   105   106    1
    63   134   133    2
    64   121   118    1
    65   163   162    1
    66   133   135   am
    67     2     5    1
    68   106   107    1
    69   118   117    1
    70   156   155    1
    71   156   161   am
    72   162   161    1
    73   162   165    1
    74   117   111   am
    75   107   108    2
    76   107   109   am
    77   159   158    1
    78   155   158    1
    79   155   154    1
    80   167   166    1
    81     5     6    1
    82   109   110    1
    83    27    26   ar
    84    27    25   ar
    85   165   166    1
    86   158   160    1
    87    97    95   ar
    88   111   110    1
    89   111   112    2
    90   166   168    1
    91    26    24   ar
    92   143   141    1
    93    25    23   ar
    94   110   113    1
    95    95    96   ar
    96    95    94    1
    97    94    93    1
    98    12    13    1
    99    12    11    1
   100     7     8    1
   101     8    11    1
   102     8     9    1
   103    24    23   ar
   104   141   140    1
   105    23    22    1
   106   113   114    1
   107    13    14    1
   108    93    90    1
   109     9    10    2
   110   114   115    1
   111   147   146    2
   112   140   142    1
   113   140   137    1
   114    22    19    1
   115    85    83   ar
   116    85    87   ar
   117    19    18    1
   118    19    20    1
   119    14    15    2
   120    83    82   ar
   121    90    89    1
   122    90    91    1
   123   146   145    1
   124    89    79   am
   125   137   136    1
   126   137   138    1
   127   115   116    1
   128    92    91    2
   129    39    38    1
   130    88    87    1
   131   153   152   ar
   132   153   151   ar
   133    37    38   ar
   134    37    35   ar
   135   152   150   ar
   136    87    86   ar
   137    16    15    1
   138    15    17    1
   139    20    21    2
   140    82    81    1
   141    82    84   ar
   142   145   144    1
   143   145   148    1
   144    81    78    1
   145   151   149   ar
   146   150   149   ar
   147    38    36   ar
   148   138   139    2
   149    79    78    1
   150    79    80    2
   151    78    77    1
   152    35    33   ar
   153   149   148    1
   154    86    84   ar
   155    36    34   ar
   156    28    29    1
   157    33    34   ar
   158    33    32    1
   159    32    29    1
   160    29    30    1
   161    30    31    2
