@<TRIPOS>MOLECULE
tmp/6bj7A00.pdb
 99 92 0 0 0
SMALL
GASTEIGER

@<TRIPOS>ATOM
      1  N          1.0240   22.5690   50.1930 N.3   113  LEU113     -0.1231
      2  CA        -0.3280   23.0810   50.4010 C.3   113  LEU113      0.1693
      3  C         -0.2600   24.5080   50.9550 C.2   113  LEU113      0.2592
      4  O          0.6040   24.8300   51.7870 O.2   113  LEU113     -0.2718
      5  CB        -1.0970   22.1730   51.3620 C.3   113  LEU113      0.0284
      6  CG        -1.4940   20.7860   50.8290 C.3   113  LEU113      0.0019
      7  CD1       -1.4030   19.7890   51.9560 C.3   113  LEU113      0.0001
      8  CD2       -2.8980   20.8160   50.2610 C.3   113  LEU113      0.0001
      9  N         -1.1300   25.3880   50.4610 N.am  114  ALA114     -0.1966
     10  CA        -1.0190   26.8100   50.7790 C.3   114  ALA114      0.1728
     11  C         -2.3960   27.4750   50.8210 C.2   114  ALA114      0.2616
     12  O         -3.3900   26.9250   50.3380 O.2   114  ALA114     -0.2715
     13  CB        -0.1380   27.4990   49.7480 C.3   114  ALA114      0.0334
     14  N         -2.4450   28.6790   51.4030 N.am  115  GLY115     -0.1955
     15  CA        -3.6560   29.5200   51.3540 C.3   115  GLY115      0.1869
     16  C         -3.6490   30.5210   50.2080 C.2   115  GLY115      0.2309
     17  O         -2.6100   31.0900   49.8530 O.2   115  GLY115     -0.2863
     18  N          5.2770   32.5730   55.4680 N.3   192  ASN192     -0.1240
     19  CA         4.9340   32.7640   56.8830 C.3   192  ASN192      0.1653
     20  C          5.6500   31.6790   57.6700 C.2   192  ASN192      0.2266
     21  O          5.3840   30.4940   57.4710 O.2   192  ASN192     -0.2867
     22  CB         3.4130   32.6410   57.0870 C.3   192  ASN192      0.1155
     23  CG         2.9770   32.5390   58.5520 C.2   192  ASN192      0.2627
     24  OD1        3.6450   33.0260   59.4700 O.2   192  ASN192     -0.2716
     25  ND2        1.8290   31.8650   58.7520 N.am  192  ASN192     -0.0877
     26  N         -1.7980   29.5500   61.3660 N.3   197  TYR197     -0.1227
     27  CA        -2.2350   30.0750   60.0820 C.3   197  TYR197      0.1736
     28  C         -2.2130   31.6050   60.1140 C.2   197  TYR197      0.2595
     29  O         -2.3690   32.2320   61.1700 O.2   197  TYR197     -0.2718
     30  CB        -3.6530   29.5670   59.7360 C.3   197  TYR197      0.0548
     31  CG        -3.7470   28.0680   59.4700 C.ar  197  TYR197     -0.0200
     32  CD1       -3.1800   27.5060   58.3230 C.ar  197  TYR197     -0.0009
     33  CD2       -4.4220   27.2270   60.3460 C.ar  197  TYR197     -0.0009
     34  CE1       -3.2720   26.1390   58.0670 C.ar  197  TYR197      0.0417
     35  CE2       -4.5280   25.8630   60.0830 C.ar  197  TYR197      0.0417
     36  CZ        -3.9300   25.3340   58.9520 C.ar  197  TYR197      0.1957
     37  OH        -4.0010   23.9730   58.7080 O.3   197  TYR197     -0.2866
     38  N         -2.0080   32.2120   58.9500 N.am  198  GLU198     -0.1979
     39  CA        -2.1240   33.6620   58.8130 C.3   198  GLU198      0.1602
     40  C         -3.4530   34.1680   59.3890 C.2   198  GLU198      0.2287
     41  O         -4.5180   33.5840   59.1590 O.2   198  GLU198     -0.2864
     42  CB        -1.9770   34.0300   57.3140 C.3   198  GLU198      0.0415
     43  CG        -3.1580   33.5600   56.3230 C.3   198  GLU198      0.1163
     44  CD        -3.0800   32.1450   55.7800 C.2   198  GLU198      0.3649
     45  OE1       -2.2200   31.3750   56.2190 O.co2 198  GLU198     -0.2457
     46  OE2       -3.9130   31.7830   54.8880 O.co2 198  GLU198     -0.2457
     47  N          0.1140   32.1130   50.3320 N.3   214  VAL214     -0.1231
     48  CA         0.8890   32.1250   51.5800 C.3   214  VAL214      0.1692
     49  C          1.0290   30.6990   52.1180 C.2   214  VAL214      0.2593
     50  O          0.0870   29.8970   52.0790 O.2   214  VAL214     -0.2718
     51  CB         0.2500   33.0810   52.6350 C.3   214  VAL214      0.0266
     52  CG1       -1.1750   32.6990   52.9600 C.3   214  VAL214      0.0020
     53  CG2        1.0860   33.1320   53.9160 C.3   214  VAL214      0.0020
     54  N          2.2310   30.3670   52.5980 N.am  215  GLY215     -0.1942
     55  CA         2.4490   29.0780   53.2410 C.3   215  GLY215      0.2014
     56  C          3.6650   29.0950   54.1560 C.2   215  GLY215      0.2638
     57  O          4.3490   30.1100   54.2860 O.2   215  GLY215     -0.2714
     58  N          3.9790   27.9120   54.7170 N.am  216  MET216     -0.1976
     59  CA         4.9820   27.7830   55.7780 C.3   216  MET216      0.1605
     60  C          6.1880   26.9230   55.3800 C.2   216  MET216      0.2287
     61  O          6.8940   26.4270   56.2630 O.2   216  MET216     -0.2864
     62  CB         4.3540   27.1930   57.0460 C.3   216  MET216      0.0413
     63  CG         3.0720   27.8500   57.5490 C.3   216  MET216      0.0598
     64  SD         2.3230   26.9370   58.9250 S.3   216  MET216     -0.1393
     65  CE         0.7470   27.7780   59.0710 C.3   216  MET216      0.0692
     66  N         -5.7300   25.3570   49.3920 N.3   239  ALA239     -0.1231
     67  CA        -6.7260   24.7030   50.2300 C.3   239  ALA239      0.1694
     68  C         -7.8880   25.6070   50.6380 C.2   239  ALA239      0.2592
     69  O         -8.9320   25.0870   51.0010 O.2   239  ALA239     -0.2718
     70  CB        -6.0660   24.1300   51.4850 C.3   239  ALA239      0.0304
     71  N         -7.7390   26.9270   50.5760 N.am  240  ASN240     -0.1974
     72  CA        -8.8030   27.8650   50.9460 C.3   240  ASN240      0.1688
     73  C         -8.4330   29.2160   50.3500 C.2   240  ASN240      0.2292
     74  O         -7.2860   29.4260   49.9490 O.2   240  ASN240     -0.2864
     75  CB        -8.9540   27.9860   52.4620 C.3   240  ASN240      0.1181
     76  CG        -7.8180   28.8150   53.0940 C.2   240  ASN240      0.2629
     77  OD1       -6.6500   28.4950   52.9400 O.2   240  ASN240     -0.2716
     78  ND2       -8.1660   29.8980   53.7650 N.am  240  ASN240     -0.0877
     79  N         -8.0870   32.7810   51.8970 N.3   242  SER242     -0.1217
     80  CA        -8.0900   33.4270   53.2100 C.3   242  SER242      0.1889
     81  C         -8.7470   34.7960   53.1880 C.2   242  SER242      0.2288
     82  O         -9.2670   35.2470   54.2210 O.2   242  SER242     -0.2866
     83  CB        -6.6570   33.5560   53.7470 C.3   242  SER242      0.2089
     84  OG        -6.1470   32.2730   53.9730 O.3   242  SER242     -0.2183
     85  N        -10.1910   28.3160   59.3170 N.3   252  ILE252     -0.1245
     86  CA        -9.1420   27.5800   58.6030 C.3   252  ILE252      0.1561
     87  C         -8.6810   26.4340   59.4990 C.2   252  ILE252      0.2260
     88  O         -8.4130   26.6520   60.6850 O.2   252  ILE252     -0.2867
     89  CB        -7.9510   28.4990   58.2580 C.3   252  ILE252      0.0252
     90  CG1       -8.4210   29.7830   57.5420 C.3   252  ILE252      0.0019
     91  CG2       -6.9400   27.7380   57.3940 C.3   252  ILE252      0.0019
     92  CD1       -7.3300   30.8450   57.3680 C.3   252  ILE252      0.0001
     93  N         -7.8500   21.0670   55.1000 N.3   257  VAL257     -0.1245
     94  CA        -6.6950   21.0640   54.2100 C.3   257  VAL257      0.1561
     95  C         -6.4610   19.6710   53.6440 C.2   257  VAL257      0.2260
     96  O         -6.2490   19.4990   52.4360 O.2   257  VAL257     -0.2867
     97  CB        -5.4490   21.5840   54.9560 C.3   257  VAL257      0.0252
     98  CG1       -4.1880   21.3600   54.1190 C.3   257  VAL257      0.0019
     99  CG2       -5.6270   23.0510   55.2720 C.3   257  VAL257      0.0019
@<TRIPOS>BOND
     1    66    67    1
     2    13    10    1
     3    17    16    2
     4    74    73    2
     5     1     2    1
     6    16    15    1
     7    67    68    1
     8    67    70    1
     9     8     6    1
    10    47    48    1
    11    12    11    2
    12    73    72    1
    13     2     3    1
    14     2     5    1
    15     9    10    1
    16     9     3   am
    17    71    68   am
    18    71    72    1
    19    68    69    2
    20    10    11    1
    21    11    14   am
    22     6     5    1
    23     6     7    1
    24    72    75    1
    25     3     4    2
    26    15    14    1
    27    48    49    1
    28    48    51    1
    29    79    80    1
    30    50    49    2
    31    49    54   am
    32    96    95    2
    33    75    76    1
    34    54    55    1
    35    51    52    1
    36    51    53    1
    37    77    76    2
    38    76    78   am
    39    81    80    1
    40    81    82    2
    41    80    83    1
    42    55    56    1
    43    95    94    1
    44    83    84    1
    45    98    97    1
    46    56    57    2
    47    56    58   am
    48    94    97    1
    49    94    93    1
    50    58    59    1
    51    46    44   ar
    52    97    99    1
    53    60    59    1
    54    60    61    2
    55    18    19    1
    56    59    62    1
    57    44    45   ar
    58    44    43    1
    59    43    42    1
    60    19    22    1
    61    19    20    1
    62    62    63    1
    63    22    23    1
    64    42    39    1
    65    92    90    1
    66    91    89    1
    67    21    20    2
    68    90    89    1
    69    63    64    1
    70    34    32   ar
    71    34    36   ar
    72    89    86    1
    73    32    31   ar
    74    23    25   am
    75    23    24    2
    76    86    85    1
    77    86    87    1
    78    37    36    1
    79    39    38    1
    80    39    40    1
    81    64    65    1
    82    38    28   am
    83    36    35   ar
    84    41    40    2
    85    31    30    1
    86    31    33   ar
    87    87    88    2
    88    30    27    1
    89    27    28    1
    90    27    26    1
    91    35    33   ar
    92    28    29    2
