@<TRIPOS>MOLECULE
tmp/6bjaA00.pdb
 200 189 0 0 0
SMALL
GASTEIGER

@<TRIPOS>ATOM
      1  N         39.0290   36.8180   12.9780 N.3    16  PHE16      -0.1241
      2  CA        38.7120   37.9740   12.1560 C.3    16  PHE16       0.1605
      3  C         37.9130   37.6160   10.9100 C.2    16  PHE16       0.2264
      4  O         38.3050   36.7120   10.1580 O.2    16  PHE16      -0.2867
      5  CB        40.0360   38.6260   11.7940 C.3    16  PHE16       0.0534
      6  CG        39.9360   39.8890   11.0000 C.ar   16  PHE16      -0.0203
      7  CD1       39.2400   40.9950   11.4790 C.ar   16  PHE16      -0.0042
      8  CD2       40.6180   40.0070    9.8050 C.ar   16  PHE16      -0.0042
      9  CE1       39.1990   42.1800   10.7510 C.ar   16  PHE16      -0.0003
     10  CE2       40.5890   41.1890    9.0720 C.ar   16  PHE16      -0.0003
     11  CZ        39.8810   42.2720    9.5480 C.ar   16  PHE16      -0.0000
     12  N         36.4160   43.4230   16.0450 N.3   116  MET116     -0.1245
     13  CA        37.4380   43.9380   15.1700 C.3   116  MET116      0.1570
     14  C         37.0710   43.6700   13.7100 C.2   116  MET116      0.2261
     15  O         37.4790   44.4100   12.8100 O.2   116  MET116     -0.2867
     16  CB        38.7880   43.3560   15.5670 C.3   116  MET116      0.0387
     17  CG        39.1410   43.7160   17.0000 C.3   116  MET116      0.0595
     18  SD        40.7180   43.1150   17.6540 S.3   116  MET116     -0.1393
     19  CE        41.9190   44.2560   16.9110 C.3   116  MET116      0.0692
     20  N         41.7720   49.6240   12.4030 N.3   139  LEU139     -0.1245
     21  CA        42.5140   48.6310   13.1840 C.3   139  LEU139      0.1561
     22  C         43.9420   49.0590   13.4210 C.2   139  LEU139      0.2260
     23  O         44.4810   48.8900   14.5110 O.2   139  LEU139     -0.2867
     24  CB        42.5030   47.2750   12.4840 C.3   139  LEU139      0.0270
     25  CG        41.1810   46.5690   12.2800 C.3   139  LEU139      0.0019
     26  CD1       41.4160   45.3920   11.3560 C.3   139  LEU139      0.0001
     27  CD2       40.6370   46.1010   13.6040 C.3   139  LEU139      0.0001
     28  N         46.2470   49.1310   16.6920 N.3   144  LEU144     -0.1245
     29  CA        47.4870   48.3410   16.7510 C.3   144  LEU144      0.1561
     30  C         48.7740   49.1430   16.6710 C.2   144  LEU144      0.2260
     31  O         49.8390   48.6220   16.9940 O.2   144  LEU144     -0.2867
     32  CB        47.4850   47.2960   15.6380 C.3   144  LEU144      0.0270
     33  CG        46.2770   46.3550   15.6570 C.3   144  LEU144      0.0019
     34  CD1       46.3040   45.3850   14.4970 C.3   144  LEU144      0.0001
     35  CD2       46.2280   45.5980   16.9480 C.3   144  LEU144      0.0001
     36  N         52.7350   48.1550   17.7230 N.3   153  MET153     -0.1230
     37  CA        53.0790   47.6520   19.0430 C.3   153  MET153      0.1702
     38  C         54.0570   46.4620   18.9270 C.2   153  MET153      0.2592
     39  O         54.9300   46.3150   19.7680 O.2   153  MET153     -0.2718
     40  CB        51.8270   47.2600   19.8250 C.3   153  MET153      0.0401
     41  CG        51.0030   48.4890   20.3380 C.3   153  MET153      0.0596
     42  SD        49.5840   47.9250   21.2910 S.3   153  MET153     -0.1393
     43  CE        48.5810   47.0610   20.0940 C.3   153  MET153      0.0692
     44  N         53.9320   45.6550   17.8820 N.am  154  GLY154     -0.1957
     45  CA        54.8500   44.5310   17.7140 C.3   154  GLY154      0.1869
     46  C         56.2870   44.9460   17.4650 C.2   154  GLY154      0.2309
     47  O         57.2130   44.2250   17.8340 O.2   154  GLY154     -0.2863
     48  N         49.0260   27.4070   22.5450 N.3   179  TYR179     -0.1241
     49  CA        48.0800   26.6530   21.7350 C.3   179  TYR179      0.1605
     50  C         47.8470   25.2890   22.3630 C.2   179  TYR179      0.2264
     51  O         46.7110   24.8030   22.3840 O.2   179  TYR179     -0.2867
     52  CB        48.5790   26.4920   20.2950 C.3   179  TYR179      0.0534
     53  CG        48.3610   27.6780   19.3850 C.ar  179  TYR179     -0.0201
     54  CD1       47.1580   27.8600   18.7080 C.ar  179  TYR179     -0.0009
     55  CD2       49.3680   28.6050   19.1890 C.ar  179  TYR179     -0.0009
     56  CE1       46.9680   28.9280   17.8570 C.ar  179  TYR179      0.0417
     57  CE2       49.1940   29.6840   18.3660 C.ar  179  TYR179      0.0417
     58  CZ        47.9960   29.8580   17.6950 C.ar  179  TYR179      0.1957
     59  OH        47.8720   30.9500   16.8660 O.3   179  TYR179     -0.2866
     60  N         40.4810   30.5310   17.3730 N.3   208  GLU208     -0.1245
     61  CA        41.8660   30.7390   16.9570 C.3   208  GLU208      0.1567
     62  C         42.7620   29.5540   17.2470 C.2   208  GLU208      0.2260
     63  O         43.6790   29.2820   16.4730 O.2   208  GLU208     -0.2867
     64  CB        42.4500   31.9850   17.6250 C.3   208  GLU208      0.0388
     65  CG        43.9880   32.1370   17.4590 C.3   208  GLU208      0.1160
     66  CD        44.4900   32.2040   16.0060 C.2   208  GLU208      0.3649
     67  OE1       43.7330   32.6870   15.1150 O.co2 208  GLU208     -0.2457
     68  OE2       45.6780   31.8100   15.7640 O.co2 208  GLU208     -0.2457
     69  N         43.7890   26.9790   14.6140 N.3   211  ARG211     -0.1231
     70  CA        44.3820   27.4530   13.3640 C.3   211  ARG211      0.1694
     71  C         45.8910   27.2930   13.3040 C.2   211  ARG211      0.2592
     72  O         46.4960   27.6030   12.2820 O.2   211  ARG211     -0.2718
     73  CB        44.0250   28.9190   13.1340 C.3   211  ARG211      0.0321
     74  CG        42.5480   29.1000   13.1030 C.3   211  ARG211      0.0489
     75  CD        42.0790   30.3810   12.4490 C.3   211  ARG211      0.2205
     76  NE        40.6170   30.3010   12.4310 N.pl3 211  ARG211     -0.0865
     77  CZ        39.8080   31.0060   11.6530 C.cat 211  ARG211      0.5346
     78  NH1       40.2870   31.9090   10.7970 N.pl3 211  ARG211      0.1354
     79  NH2       38.5040   30.8030   11.7560 N.pl3 211  ARG211      0.1354
     80  N         46.4960   26.8160   14.3820 N.am  212  LEU212     -0.1966
     81  CA        47.9470   26.6120   14.3890 C.3   212  LEU212      0.1728
     82  C         48.3600   25.6360   13.2860 C.2   212  LEU212      0.2616
     83  O         47.7670   24.5700   13.1420 O.2   212  LEU212     -0.2715
     84  CB        48.4150   26.0710   15.7430 C.3   212  LEU212      0.0311
     85  CG        49.8960   25.7050   15.8610 C.3   212  LEU212      0.0022
     86  CD1       50.7330   26.9700   15.7840 C.3   212  LEU212      0.0001
     87  CD2       50.1620   24.9270   17.1480 C.3   212  LEU212      0.0001
     88  N         49.3730   26.0180   12.5130 N.am  213  ILE213     -0.1977
     89  CA        50.0390   25.1020   11.5800 C.3   213  ILE213      0.1596
     90  C         51.4660   24.9500   12.0850 C.2   213  ILE213      0.2287
     91  O         52.3150   25.7700   11.7520 O.2   213  ILE213     -0.2864
     92  CB        50.0370   25.6370   10.1390 C.3   213  ILE213      0.0276
     93  CG1       48.6190   25.9820    9.6820 C.3   213  ILE213      0.0022
     94  CG2       50.6530   24.6150    9.1870 C.3   213  ILE213      0.0022
     95  CD1       48.5920   26.8730    8.4570 C.3   213  ILE213      0.0001
     96  N         54.8180   25.4100   10.1260 N.3   216  LYS216     -0.1231
     97  CA        54.9520   26.7070    9.4710 C.3   216  LYS216      0.1693
     98  C         55.5880   27.7570   10.3940 C.2   216  LYS216      0.2591
     99  O         56.1330   28.7640    9.9370 O.2   216  LYS216     -0.2718
    100  CB        53.5740   27.1650    9.0040 C.3   216  LYS216      0.0285
    101  CG        53.5740   28.1800    7.8970 C.3   216  LYS216      0.0035
    102  CD        52.1970   28.2530    7.2540 C.3   216  LYS216      0.0206
    103  CE        52.2710   28.9040    5.8930 C.3   216  LYS216      0.1093
    104  NZ        50.9310   29.3560    5.4210 N.3   216  LYS216     -0.1314
    105  N         55.5510   27.4910   11.6930 N.am  217  VAL217     -0.1980
    106  CA        55.9600   28.4740   12.6900 C.3   217  VAL217      0.1595
    107  C         57.4320   28.8980   12.5400 C.2   217  VAL217      0.2287
    108  O         57.7360   30.0750   12.5760 O.2   217  VAL217     -0.2864
    109  CB        55.7000   27.9290   14.1140 C.3   217  VAL217      0.0276
    110  CG1       56.3680   28.7970   15.1840 C.3   217  VAL217      0.0022
    111  CG2       54.1870   27.8130   14.3600 C.3   217  VAL217      0.0022
    112  N         58.0970   31.1920    9.2380 N.3   220  LEU220     -0.1245
    113  CA        57.6080   32.5530    9.1070 C.3   220  LEU220      0.1561
    114  C         58.7200   33.5750    9.2300 C.2   220  LEU220      0.2260
    115  O         59.6720   33.3860    9.9820 O.2   220  LEU220     -0.2867
    116  CB        56.5490   32.8410   10.1690 C.3   220  LEU220      0.0270
    117  CG        55.3040   31.9710   10.1610 C.3   220  LEU220      0.0019
    118  CD1       54.3360   32.5190   11.1800 C.3   220  LEU220      0.0001
    119  CD2       54.6660   31.9040    8.7860 C.3   220  LEU220      0.0001
    120  N         57.4470   42.5510   12.0110 N.3   224  PHE224     -0.1241
    121  CA        57.5700   43.9490   12.4370 C.3   224  PHE224      0.1605
    122  C         58.9620   44.5330   12.2630 C.2   224  PHE224      0.2264
    123  O         59.1130   45.7410   12.0330 O.2   224  PHE224     -0.2867
    124  CB        57.1460   44.0680   13.8970 C.3   224  PHE224      0.0534
    125  CG        55.7450   43.6200   14.1370 C.ar  224  PHE224     -0.0203
    126  CD1       54.6830   44.3810   13.6930 C.ar  224  PHE224     -0.0042
    127  CD2       55.4810   42.4320   14.7720 C.ar  224  PHE224     -0.0042
    128  CE1       53.3950   43.9770   13.8910 C.ar  224  PHE224     -0.0003
    129  CE2       54.1890   42.0120   14.9730 C.ar  224  PHE224     -0.0003
    130  CZ        53.1310   42.8020   14.5340 C.ar  224  PHE224     -0.0000
    131  N         53.6930   36.4100   12.8780 N.3   234  ALA234     -0.1231
    132  CA        52.2440   36.2430   12.9870 C.3   234  ALA234      0.1694
    133  C         51.8940   35.1210   13.9500 C.2   234  ALA234      0.2591
    134  O         50.8540   35.1840   14.6000 O.2   234  ALA234     -0.2718
    135  CB        51.6230   35.9830   11.6240 C.3   234  ALA234      0.0304
    136  N         52.7490   34.1000   14.0590 N.am  235  ALA235     -0.1980
    137  CA        52.4410   32.9500   14.8860 C.3   235  ALA235      0.1597
    138  C         52.7080   33.2030   16.3680 C.2   235  ALA235      0.2287
    139  O         52.0050   32.6470   17.2020 O.2   235  ALA235     -0.2864
    140  CB        53.2430   31.7170   14.4150 C.3   235  ALA235      0.0319
    141  N         52.6550   36.2220   17.8030 N.3   237  ALA237     -0.1231
    142  CA        51.9120   37.4240   18.2170 C.3   237  ALA237      0.1694
    143  C         50.4570   37.0650   18.3140 C.2   237  ALA237      0.2593
    144  O         50.0130   36.1860   17.6100 O.2   237  ALA237     -0.2718
    145  CB        52.0770   38.5430   17.2360 C.3   237  ALA237      0.0304
    146  N         49.7130   37.7830   19.1360 N.am  238  SER238     -0.1938
    147  CA        48.2740   37.5880   19.1420 C.3   238  SER238      0.2055
    148  C         47.6670   38.0740   17.8290 C.2   238  SER238      0.2644
    149  O         48.2830   38.7850   17.0410 O.2   238  SER238     -0.2714
    150  CB        47.6070   38.2880   20.3300 C.3   238  SER238      0.2130
    151  OG        47.7640   39.6810   20.2690 O.3   238  SER238     -0.2179
    152  N         46.4370   37.6230   17.6080 N.am  239  THR239     -0.1936
    153  CA        45.6920   37.8620   16.3860 C.3   239  THR239      0.2028
    154  C         44.6260   38.9270   16.6440 C.2   239  THR239      0.2642
    155  O         44.4880   39.4040   17.7660 O.2   239  THR239     -0.2714
    156  CB        45.0140   36.5540   15.9150 C.3   239  THR239      0.1808
    157  OG1       44.3520   35.9460   17.0290 O.3   239  THR239     -0.2208
    158  CG2       46.0530   35.5860   15.3840 C.3   239  THR239      0.0379
    159  N         43.9030   39.3010   15.5990 N.am  240  ILE240     -0.1977
    160  CA        42.7430   40.1880   15.7630 C.3   240  ILE240      0.1596
    161  C         41.4640   39.3340   15.7720 C.2   240  ILE240      0.2287
    162  O         41.3520   38.3150   15.0750 O.2   240  ILE240     -0.2864
    163  CB        42.7080   41.3050   14.6960 C.3   240  ILE240      0.0276
    164  CG1       42.4870   40.7990   13.2860 C.3   240  ILE240      0.0022
    165  CG2       44.0260   42.1230   14.7510 C.3   240  ILE240      0.0022
    166  CD1       42.3700   41.9590   12.2600 C.3   240  ILE240      0.0001
    167  N         49.6360   39.7010   24.6250 N.3   309  ALA309     -0.1231
    168  CA        49.6540   40.5390   23.4470 C.3   309  ALA309      0.1694
    169  C         50.6130   39.9220   22.4400 C.2   309  ALA309      0.2592
    170  O         50.3190   39.8390   21.2500 O.2   309  ALA309     -0.2718
    171  CB        50.0560   41.9450   23.8020 C.3   309  ALA309      0.0304
    172  N         51.7510   39.4620   22.9650 N.am  310  PHE310     -0.1976
    173  CA        52.7800   38.7630   22.2030 C.3   310  PHE310      0.1639
    174  C         53.3220   37.6660   23.1000 C.2   310  PHE310      0.2290
    175  O         53.1620   37.7400   24.3070 O.2   310  PHE310     -0.2864
    176  CB        53.9100   39.7170   21.7870 C.3   310  PHE310      0.0560
    177  CG        53.4240   40.8720   20.9800 C.ar  310  PHE310     -0.0200
    178  CD1       53.3370   40.7720   19.6110 C.ar  310  PHE310     -0.0042
    179  CD2       52.9840   42.0290   21.5990 C.ar  310  PHE310     -0.0042
    180  CE1       52.8460   41.8100   18.8530 C.ar  310  PHE310     -0.0003
    181  CE2       52.4820   43.0770   20.8580 C.ar  310  PHE310     -0.0003
    182  CZ        52.4050   42.9700   19.4860 C.ar  310  PHE310     -0.0000
    183  N         42.5840   37.9690   20.7260 N.3   339  HIS339     -0.1241
    184  CA        42.7270   39.1890   21.5080 C.3   339  HIS339      0.1621
    185  C         41.7770   40.2790   21.0110 C.2   339  HIS339      0.2264
    186  O         42.2170   41.2110   20.3410 O.2   339  HIS339     -0.2867
    187  CB        44.1870   39.6610   21.4380 C.3   339  HIS339      0.0745
    188  CG        44.5120   40.8550   22.2790 C.ar  339  HIS339      0.0817
    189  ND1       43.6870   41.3540   23.2650 N.ar  339  HIS339     -0.2268
    190  CD2       45.5820   41.6800   22.2270 C.ar  339  HIS339      0.1154
    191  CE1       44.2630   42.4140   23.8150 C.ar  339  HIS339      0.1986
    192  NE2       45.4120   42.6260   23.2040 N.ar  339  HIS339     -0.2212
    193  N         40.4780   43.4470   21.4950 N.3   341  LEU341     -0.1245
    194  CA        41.1450   44.4250   22.3570 C.3   341  LEU341      0.1561
    195  C         40.3390   44.8490   23.5700 C.2   341  LEU341      0.2260
    196  O         40.7760   44.6650   24.6920 O.2   341  LEU341     -0.2867
    197  CB        41.5210   45.6850   21.5620 C.3   341  LEU341      0.0270
    198  CG        42.4570   45.4810   20.3700 C.3   341  LEU341      0.0019
    199  CD1       42.7860   46.8340   19.7850 C.3   341  LEU341      0.0001
    200  CD2       43.7370   44.7490   20.7440 C.3   341  LEU341      0.0001
@<TRIPOS>BOND
     1   104   103    1
     2   103   102    1
     3   102   101    1
     4   101   100    1
     5    95    93    1
     6   119   117    1
     7   100    97    1
     8    10    11   ar
     9    10     8   ar
    10   113   114    1
    11   113   112    1
    12   113   116    1
    13    94    92    1
    14   114   115    2
    15    97    96    1
    16    97    98    1
    17    11     9   ar
    18    93    92    1
    19     8     6   ar
    20    99    98    2
    21    92    89    1
    22     4     3    2
    23   117   116    1
    24   117   118    1
    25    98   105   am
    26     9     7   ar
    27    78    77    1
    28     3     2    1
    29     6     7   ar
    30     6     5    1
    31    26    25    1
    32    89    90    1
    33    89    88    1
    34   135   132    1
    35    77    79    1
    36    77    76    2
    37   105   106    1
    38    91    90    2
    39     5     2    1
    40   120   121    1
    41   123   122    2
    42     2     1    1
    43   166   164    1
    44   122   121    1
    45    25    24    1
    46    25    27    1
    47    72    71    2
    48    20    21    1
    49    76    75    1
    50   121   124    1
    51    75    74    1
    52    24    21    1
    53    88    82   am
    54   107   108    2
    55   107   106    1
    56   106   109    1
    57    15    14    2
    58   131   132    1
    59   132   133    1
    60    74    73    1
    61    73    70    1
    62    83    82    2
    63    21    22    1
    64    82    81    1
    65   164   163    1
    66    71    70    1
    67    71    80   am
    68    70    69    1
    69    22    23    2
    70   126   128   ar
    71   126   125   ar
    72    14    13    1
    73   128   130   ar
    74   124   125    1
    75   133   136   am
    76   133   134    2
    77   136   137    1
    78   109   111    1
    79   109   110    1
    80   125   127   ar
    81    80    81    1
    82    81    84    1
    83   140   137    1
    84    34    33    1
    85   130   129   ar
    86   163   165    1
    87   163   160    1
    88   127   129   ar
    89   137   138    1
    90   162   161    2
    91    67    66   ar
    92    13    16    1
    93    13    12    1
    94   158   156    1
    95    16    17    1
    96   159   160    1
    97   159   154   am
    98    32    33    1
    99    32    29    1
   100    33    35    1
   101    84    85    1
   102   160   161    1
   103    68    66   ar
   104    86    85    1
   105    85    87    1
   106   156   153    1
   107   156   157    1
   108    66    65    1
   109   138   139    2
   110   153   154    1
   111   153   152    1
   112    63    62    2
   113   154   155    2
   114    30    29    1
   115    30    31    2
   116    28    29    1
   117    59    58    1
   118    19    18    1
   119    61    62    1
   120    61    60    1
   121    61    64    1
   122    17    18    1
   123   149   148    2
   124   145   142    1
   125    65    64    1
   126    46    45    1
   127    46    47    2
   128   152   148   am
   129   144   143    2
   130    58    56   ar
   131    58    57   ar
   132    45    44    1
   133    36    37    1
   134   141   142    1
   135   148   147    1
   136    56    54   ar
   137    44    38   am
   138   142   143    1
   139   143   146   am
   140    57    55   ar
   141    54    53   ar
   142   180   182   ar
   143   180   178   ar
   144    38    37    1
   145    38    39    2
   146    37    40    1
   147   146   147    1
   148   147   150    1
   149    55    53   ar
   150    53    52    1
   151   182   181   ar
   152   178   177   ar
   153   199   198    1
   154    40    41    1
   155    43    42    1
   156   151   150    1
   157    52    49    1
   158    41    42    1
   159   186   185    2
   160   198   200    1
   161   198   197    1
   162   183   184    1
   163   181   179   ar
   164   177   179   ar
   165   177   176    1
   166   185   184    1
   167   170   169    2
   168   187   184    1
   169   187   188    1
   170   193   194    1
   171   197   194    1
   172    49    50    1
   173    49    48    1
   174   176   173    1
   175   173   172    1
   176   173   174    1
   177   190   188   ar
   178   190   192   ar
   179   188   189   ar
   180   194   195    1
   181    50    51    2
   182   169   172   am
   183   169   168    1
   184   174   175    2
   185   192   191   ar
   186   189   191   ar
   187   168   171    1
   188   168   167    1
   189   195   196    2
