@<TRIPOS>MOLECULE
tmp/6bjdA00.pdb
 136 130 0 0 0
SMALL
GASTEIGER

@<TRIPOS>ATOM
      1  N         42.5920  102.9720   63.9550 N.3    71  GLN71      -0.1245
      2  CA        42.0420  102.2220   62.8380 C.3    71  GLN71       0.1566
      3  C         42.8030  100.9310   62.6090 C.2    71  GLN71       0.2260
      4  O         44.0010  100.8780   62.8110 O.2    71  GLN71      -0.2867
      5  CB        42.0910  103.0740   61.5850 C.3    71  GLN71       0.0367
      6  CG        41.4290  102.4600   60.3650 C.3    71  GLN71       0.0905
      7  CD        41.1750  103.4430   59.2550 C.2    71  GLN71       0.2608
      8  OE1       41.4330  104.6360   59.3900 O.2    71  GLN71      -0.2717
      9  NE2       40.6810  102.9460   58.1370 N.am   71  GLN71      -0.0878
     10  N         38.4040  100.0320   56.1940 N.3    75  GLY75      -0.1225
     11  CA        38.4240  101.4080   55.7570 C.3    75  GLY75       0.1811
     12  C         37.2150  102.1550   56.2580 C.2    75  GLY75       0.2280
     13  O         36.3260  102.4720   55.4880 O.2    75  GLY75      -0.2866
     14  N         37.6400  105.0230   58.3200 N.3    77  CYS77      -0.1221
     15  CA        38.1610  106.3200   58.7770 C.3    77  CYS77       0.1808
     16  C         37.0940  107.4030   58.8960 C.2    77  CYS77       0.2601
     17  O         37.1840  108.2620   59.7610 O.2    77  CYS77      -0.2717
     18  CB        39.2720  106.8340   57.8380 C.3    77  CYS77       0.0970
     19  SG        38.7520  107.0710   56.1060 S.3    77  CYS77      -0.0800
     20  N         36.1100  107.3820   58.0000 N.am   78  TRP78      -0.1976
     21  CA        34.9810  108.3360   58.0310 C.3    78  TRP78       0.1640
     22  C         34.2410  108.3230   59.3590 C.2    78  TRP78       0.2290
     23  O         33.8770  109.3600   59.8880 O.2    78  TRP78      -0.2864
     24  CB        33.9970  108.0520   56.8890 C.3    78  TRP78       0.0576
     25  CG        33.2890  106.7240   56.9540 C.ar   78  TRP78       0.0006
     26  CD1       33.7590  105.5210   56.5430 C.ar   78  TRP78       0.0946
     27  CD2       31.9780  106.4880   57.4550 C.ar   78  TRP78       0.0152
     28  NE1       32.8250  104.5400   56.7640 N.ar   78  TRP78      -0.2442
     29  CE2       31.7190  105.1120   57.3200 C.ar   78  TRP78       0.0810
     30  CE3       30.9890  107.3110   58.0030 C.ar   78  TRP78       0.0012
     31  CZ2       30.5220  104.5380   57.7150 C.ar   78  TRP78       0.0191
     32  CZ3       29.7830  106.7400   58.3910 C.ar   78  TRP78       0.0001
     33  CH2       29.5610  105.3700   58.2460 C.ar   78  TRP78       0.0015
     34  N         29.8800   96.7800   55.4490 N.3   166  ALA166     -0.1245
     35  CA        29.0150   97.9260   55.1980 C.3   166  ALA166      0.1562
     36  C         29.5580   99.2530   55.7170 C.2   166  ALA166      0.2260
     37  O         28.9980  100.3000   55.3990 O.2   166  ALA166     -0.2867
     38  CB        27.6440   97.6710   55.7740 C.3   166  ALA166      0.0290
     39  N         32.6740  100.1870   54.9530 N.3   168  LYS168     -0.1231
     40  CA        33.8310  100.4720   54.0840 C.3   168  LYS168      0.1693
     41  C         33.7570  101.8510   53.4260 C.2   168  LYS168      0.2593
     42  O         34.7360  102.5950   53.4020 O.2   168  LYS168     -0.2718
     43  CB        34.0060   99.3870   53.0070 C.3   168  LYS168      0.0285
     44  CG        34.7100   98.1220   53.4640 C.3   168  LYS168      0.0035
     45  CD        36.2080   98.3210   53.6880 C.3   168  LYS168      0.0206
     46  CE        37.0760   97.9630   52.4930 C.3   168  LYS168      0.1093
     47  NZ        38.5240   98.1120   52.8570 N.3   168  LYS168     -0.1314
     48  N         32.6060  102.1960   52.8810 N.am  169  GLY169     -0.1942
     49  CA        32.4400  103.5350   52.3210 C.3   169  GLY169      0.2014
     50  C         31.7050  104.3690   53.3310 C.2   169  GLY169      0.2639
     51  O         31.0160  103.8220   54.2110 O.2   169  GLY169     -0.2714
     52  N         31.8450  105.6850   53.2290 N.am  170  GLY170     -0.1939
     53  CA        30.9680  106.5760   53.9910 C.3   170  GLY170      0.2014
     54  C         31.4670  107.9840   54.1110 C.2   170  GLY170      0.2639
     55  O         32.6000  108.2970   53.7570 O.2   170  GLY170     -0.2714
     56  N         30.5930  108.8300   54.6280 N.am  171  ASN171     -0.1958
     57  CA        30.8970  110.2430   54.8300 C.3   171  ASN171      0.1819
     58  C         30.9460  110.5300   56.3080 C.2   171  ASN171      0.2621
     59  O         30.0430  110.1250   57.0270 O.2   171  ASN171     -0.2715
     60  CB        29.8010  111.1090   54.1770 C.3   171  ASN171      0.1195
     61  CG        29.5080  110.6850   52.7510 C.2   171  ASN171      0.2630
     62  OD1       30.2160  111.0790   51.8270 O.2   171  ASN171     -0.2716
     63  ND2       28.4830  109.8490   52.5720 N.am  171  ASN171     -0.0877
     64  N         31.9670  111.2630   56.7520 N.am  172  THR172     -0.1951
     65  CA        32.0920  111.6320   58.1620 C.3   172  THR172      0.1897
     66  C         30.8040  112.2390   58.7220 C.2   172  THR172      0.2313
     67  O         30.4160  111.9260   59.8380 O.2   172  THR172     -0.2863
     68  CB        33.2660  112.5830   58.3890 C.3   172  THR172      0.1794
     69  OG1       34.4420  112.0150   57.8160 O.3   172  THR172     -0.2208
     70  CG2       33.5180  112.7740   59.8520 C.3   172  THR172      0.0378
     71  N         27.6820  111.6130   57.9540 N.3   174  GLU174     -0.1245
     72  CA        26.6620  110.5920   58.2310 C.3   174  GLU174      0.1567
     73  C         26.7870  110.1020   59.6810 C.2   174  GLU174      0.2260
     74  O         25.7840  109.9920   60.4080 O.2   174  GLU174     -0.2867
     75  CB        26.7900  109.4140   57.2570 C.3   174  GLU174      0.0388
     76  CG        25.5820  108.4630   57.2220 C.3   174  GLU174      0.1160
     77  CD        25.9520  107.0020   56.9270 C.2   174  GLU174      0.3649
     78  OE1       26.3790  106.6980   55.7740 O.co2 174  GLU174     -0.2457
     79  OE2       25.8080  106.1470   57.8540 O.co2 174  GLU174     -0.2457
     80  N         39.1310  116.2980   54.8010 N.3   213  SER213     -0.1217
     81  CA        39.8200  115.3900   53.8880 C.3   213  SER213      0.1889
     82  C         40.4000  116.0750   52.6920 C.2   213  SER213      0.2288
     83  O         40.0990  117.2030   52.3840 O.2   213  SER213     -0.2866
     84  CB        38.9170  114.2290   53.4500 C.3   213  SER213      0.2089
     85  OG        37.6140  114.6940   53.1440 O.3   213  SER213     -0.2183
     86  N         45.2570  104.0070   52.3710 N.3   219  GLU219     -0.1245
     87  CA        44.9580  104.9810   51.2920 C.3   219  GLU219      0.1567
     88  C         46.2200  105.7930   50.9560 C.2   219  GLU219      0.2260
     89  O         47.2350  105.6910   51.6840 O.2   219  GLU219     -0.2867
     90  CB        43.7790  105.8790   51.6440 C.3   219  GLU219      0.0388
     91  CG        42.4450  105.4470   51.0230 C.3   219  GLU219      0.1160
     92  CD        42.4400  105.4570   49.4910 C.2   219  GLU219      0.3649
     93  OE1       42.9340  106.4650   48.9290 O.co2 219  GLU219     -0.2457
     94  OE2       41.9520  104.4740   48.8490 O.co2 219  GLU219     -0.2457
     95  N         42.3520  111.0900   50.4350 N.3   229  GLY229     -0.1210
     96  CA        41.1060  110.3080   50.4840 C.3   229  GLY229      0.1956
     97  C         40.8210  109.6810   51.8420 C.2   229  GLY229      0.2612
     98  O         40.2100  108.6140   51.9490 O.2   229  GLY229     -0.2717
     99  N         41.2690  110.3930   52.8760 N.am  230  HIS230     -0.1961
    100  CA        41.2740  109.9180   54.2440 C.3   230  HIS230      0.1787
    101  C         40.7140  110.9900   55.1390 C.2   230  HIS230      0.2620
    102  O         41.0260  112.1630   54.9720 O.2   230  HIS230     -0.2715
    103  CB        42.6990  109.6650   54.6800 C.3   230  HIS230      0.0785
    104  CG        42.8170  108.6790   55.7870 C.ar  230  HIS230      0.0821
    105  ND1       42.2290  107.4180   55.7740 N.ar  230  HIS230     -0.2267
    106  CD2       43.5030  108.7790   56.9390 C.ar  230  HIS230      0.1154
    107  CE1       42.5290  106.8020   56.8950 C.ar  230  HIS230      0.1986
    108  NE2       43.2890  107.6120   57.6210 N.ar  230  HIS230     -0.2212
    109  N         39.8750  110.5840   56.0820 N.am  231  ALA231     -0.1977
    110  CA        39.1970  111.4870   57.0000 C.3   231  ALA231      0.1597
    111  C         40.1050  111.7970   58.1590 C.2   231  ALA231      0.2287
    112  O         40.6380  110.9100   58.7720 O.2   231  ALA231     -0.2864
    113  CB        37.9190  110.8920   57.4940 C.3   231  ALA231      0.0319
    114  N         44.3150  106.6660   62.1170 N.3   256  TRP256     -0.1241
    115  CA        45.3030  105.5820   62.2520 C.3   256  TRP256      0.1605
    116  C         46.0160  105.5350   63.6090 C.2   256  TRP256      0.2264
    117  O         46.4910  104.4800   64.0070 O.2   256  TRP256     -0.2867
    118  CB        46.3620  105.6740   61.1630 C.3   256  TRP256      0.0550
    119  CG        45.8830  105.4020   59.7700 C.ar  256  TRP256      0.0003
    120  CD1       44.6650  104.9290   59.3890 C.ar  256  TRP256      0.0946
    121  CD2       46.6430  105.5570   58.5700 C.ar  256  TRP256      0.0152
    122  NE1       44.6110  104.7790   58.0260 N.ar  256  TRP256     -0.2442
    123  CE2       45.8110  105.1690   57.4950 C.ar  256  TRP256      0.0810
    124  CE3       47.9530  105.9800   58.2940 C.ar  256  TRP256      0.0012
    125  CZ2       46.2470  105.1870   56.1620 C.ar  256  TRP256      0.0191
    126  CZ3       48.3870  105.9860   56.9690 C.ar  256  TRP256      0.0001
    127  CH2       47.5300  105.5980   55.9190 C.ar  256  TRP256      0.0015
    128  N         33.9840  119.5000   56.9560 N.3   308  GLU308     -0.1245
    129  CA        32.6540  119.0660   57.3600 C.3   308  GLU308      0.1567
    130  C         32.4050  119.4840   58.8000 C.2   308  GLU308      0.2260
    131  O         33.1860  119.1310   59.6350 O.2   308  GLU308     -0.2867
    132  CB        32.5520  117.5570   57.2280 C.3   308  GLU308      0.0388
    133  CG        32.7250  117.0470   55.7940 C.3   308  GLU308      0.1160
    134  CD        33.2240  115.6210   55.7250 C.2   308  GLU308      0.3649
    135  OE1       34.3370  115.4110   56.2690 O.co2 308  GLU308     -0.2457
    136  OE2       32.5490  114.7090   55.1060 O.co2 308  GLU308     -0.2457
@<TRIPOS>BOND
     1    94    92   ar
     2    93    92   ar
     3    92    91    1
     4    95    96    1
     5    96    97    1
     6    88    87    1
     7    88    89    2
     8    91    90    1
     9    87    90    1
    10    87    86    1
    11    62    61    2
    12    97    98    2
    13    97    99   am
    14    49    48    1
    15    49    50    1
    16    83    82    2
    17    46    47    1
    18    46    45    1
    19    63    61   am
    20    82    81    1
    21    61    60    1
    22    99   100    1
    23    48    41   am
    24    43    44    1
    25    43    40    1
    26    85    84    1
    27    52    50   am
    28    52    53    1
    29    50    51    2
    30    42    41    2
    31    41    40    1
    32    84    81    1
    33    44    45    1
    34    55    54    2
    35    81    80    1
    36    53    54    1
    37    40    39    1
    38    54    56   am
    39    60    57    1
    40   100   103    1
    41   100   101    1
    42    56    57    1
    43   103   104    1
    44    57    58    1
    45   102   101    2
    46   136   134   ar
    47   101   109   am
    48    35    34    1
    49    35    36    1
    50    35    38    1
    51    37    36    2
    52    13    12    2
    53   134   133    1
    54   134   135   ar
    55    11    10    1
    56    11    12    1
    57   105   104   ar
    58   105   107   ar
    59    78    77   ar
    60   104   106   ar
    61   133   132    1
    62   127   125   ar
    63   127   126   ar
    64   109   110    1
    65    19    18    1
    66   125   123   ar
    67    58    64   am
    68    58    59    2
    69    26    28   ar
    70    26    25   ar
    71    64    65    1
    72    28    29   ar
    73    24    25    1
    74    24    21    1
    75   107   108   ar
    76    77    76    1
    77    77    79   ar
    78   106   108   ar
    79    25    27   ar
    80   128   129    1
    81   126   124   ar
    82   110   113    1
    83   110   111    1
    84    76    75    1
    85   132   129    1
    86    75    72    1
    87    29    27   ar
    88    29    31   ar
    89   129   130    1
    90    27    30   ar
    91   123   122   ar
    92   123   121   ar
    93    31    33   ar
    94    69    68    1
    95    18    15    1
    96    71    72    1
    97    20    21    1
    98    20    16   am
    99    30    32   ar
   100   122   120   ar
   101    21    22    1
   102     9     7   am
   103   111   112    2
   104    65    68    1
   105    65    66    1
   106    72    73    1
   107    33    32   ar
   108   124   121   ar
   109    14    15    1
   110    68    70    1
   111   121   119   ar
   112    66    67    2
   113    15    16    1
   114   130   131    2
   115    16    17    2
   116     7     8    2
   117     7     6    1
   118    22    23    2
   119   120   119   ar
   120    73    74    2
   121   119   118    1
   122     6     5    1
   123   118   115    1
   124     5     2    1
   125   114   115    1
   126   115   116    1
   127     3     4    2
   128     3     2    1
   129     2     1    1
   130   116   117    2
