@<TRIPOS>MOLECULE
tmp/6bjeA00.pdb
 98 92 0 0 0
SMALL
GASTEIGER

@<TRIPOS>ATOM
      1  N        -33.1660   36.0140   14.4140 N.3    23  GLY23      -0.1210
      2  CA       -32.0670   35.7550   15.3150 C.3    23  GLY23       0.1956
      3  C        -30.7320   35.6770   14.5990 C.2    23  GLY23       0.2611
      4  O        -30.6450   35.6690   13.3720 O.2    23  GLY23      -0.2717
      5  N        -29.6700   35.6170   15.3990 N.am   24  LEU24      -0.1979
      6  CA       -28.3180   35.5890   14.8560 C.3    24  LEU24       0.1596
      7  C        -28.0780   34.2710   14.1280 C.2    24  LEU24       0.2287
      8  O        -28.2000   33.1950   14.7220 O.2    24  LEU24      -0.2864
      9  CB       -27.2980   35.7870   15.9760 C.3    24  LEU24       0.0297
     10  CG       -25.8230   35.9050   15.5830 C.3    24  LEU24       0.0022
     11  CD1      -25.1350   36.9580   16.4340 C.3    24  LEU24       0.0001
     12  CD2      -25.1030   34.5700   15.7170 C.3    24  LEU24       0.0001
     13  N        -18.1040   36.6520   19.2410 N.3    57  LEU57      -0.1245
     14  CA       -18.5710   35.5790   20.1100 C.3    57  LEU57       0.1561
     15  C        -18.1170   34.2040   19.6340 C.2    57  LEU57       0.2260
     16  O        -18.0800   33.2640   20.4360 O.2    57  LEU57      -0.2867
     17  CB       -20.0970   35.6300   20.2080 C.3    57  LEU57       0.0270
     18  CG       -20.7820   34.6970   21.2060 C.3    57  LEU57       0.0019
     19  CD1      -20.3450   35.0070   22.6270 C.3    57  LEU57       0.0001
     20  CD2      -22.2910   34.7870   21.0690 C.3    57  LEU57       0.0001
     21  N        -20.7390   35.6890    9.8920 N.3    63  MET63      -0.1245
     22  CA       -22.0980   35.1710    9.8280 C.3    63  MET63       0.1570
     23  C        -23.0610   36.3490    9.8860 C.2    63  MET63       0.2261
     24  O        -22.6500   37.4720   10.2050 O.2    63  MET63      -0.2867
     25  CB       -22.3720   34.1700   10.9630 C.3    63  MET63       0.0387
     26  CG       -21.8040   34.5480   12.3140 C.3    63  MET63       0.0595
     27  SD       -22.2220   33.2960   13.5420 S.3    63  MET63      -0.1393
     28  CE       -21.0470   33.6680   14.8380 C.3    63  MET63       0.0692
     29  N        -21.4510   40.7950   18.5490 N.3    69  LEU69      -0.1245
     30  CA       -21.7980   40.1860   19.8240 C.3    69  LEU69       0.1561
     31  C        -20.5530   39.5960   20.4740 C.2    69  LEU69       0.2260
     32  O        -19.7070   39.0010   19.7970 O.2    69  LEU69      -0.2867
     33  CB       -22.8630   39.1000   19.6470 C.3    69  LEU69       0.0270
     34  CG       -23.6070   38.6930   20.9210 C.3    69  LEU69       0.0019
     35  CD1      -24.3440   39.8860   21.5080 C.3    69  LEU69       0.0001
     36  CD2      -24.5710   37.5490   20.6490 C.3    69  LEU69       0.0001
     37  N        -23.4660   36.6090   26.1100 N.3    72  LEU72      -0.1245
     38  CA       -24.8970   36.5610   26.3860 C.3    72  LEU72       0.1561
     39  C        -25.1830   36.6670   27.8800 C.2    72  LEU72       0.2260
     40  O        -26.1510   36.0920   28.3790 O.2    72  LEU72      -0.2867
     41  CB       -25.5180   35.2900   25.8090 C.3    72  LEU72       0.0270
     42  CG       -25.3330   35.0400   24.3110 C.3    72  LEU72       0.0019
     43  CD1      -24.2470   34.0020   24.0780 C.3    72  LEU72       0.0001
     44  CD2      -26.6430   34.6110   23.6650 C.3    72  LEU72       0.0001
     45  N        -34.1380   36.7170   19.6350 N.3   113  SER113     -0.1202
     46  CA       -32.7540   36.6870   20.0990 C.3   113  SER113      0.2020
     47  C        -32.0690   38.0320   19.8770 C.2   113  SER113      0.2618
     48  O        -32.5110   39.0520   20.4130 O.2   113  SER113     -0.2717
     49  CB       -31.9840   35.5600   19.4060 C.3   113  SER113      0.2103
     50  OG       -30.7670   35.2850   20.0780 O.3   113  SER113     -0.2182
     51  N        -30.9890   38.0510   19.0900 N.am  114  GLN114     -0.1979
     52  CA       -30.3070   39.3140   18.8230 C.3   114  GLN114      0.1601
     53  C        -31.2020   40.2770   18.0550 C.2   114  GLN114      0.2287
     54  O        -31.1230   41.4960   18.2540 O.2   114  GLN114     -0.2864
     55  CB       -29.0100   39.0640   18.0530 C.3   114  GLN114      0.0394
     56  CG       -28.1290   40.2970   17.9160 C.3   114  GLN114      0.0908
     57  CD       -26.9080   40.0520   17.0510 C.2   114  GLN114      0.2608
     58  OE1      -27.0190   39.5940   15.9140 O.2   114  GLN114     -0.2717
     59  NE2      -25.7330   40.3580   17.5880 N.am  114  GLN114     -0.0878
     60  N        -32.8740   40.0340   25.1350 N.3   139  TRP139     -0.1241
     61  CA       -32.4370   40.8850   26.2320 C.3   139  TRP139      0.1605
     62  C        -32.4540   42.3330   25.7580 C.2   139  TRP139      0.2264
     63  O        -32.7380   42.6210   24.5920 O.2   139  TRP139     -0.2867
     64  CB       -31.0400   40.4840   26.7190 C.3   139  TRP139      0.0550
     65  CG       -29.9520   40.8110   25.7340 C.ar  139  TRP139      0.0003
     66  CD1      -29.0930   41.8700   25.7830 C.ar  139  TRP139      0.0946
     67  CD2      -29.6170   40.0780   24.5480 C.ar  139  TRP139      0.0152
     68  NE1      -28.2410   41.8400   24.7060 N.ar  139  TRP139     -0.2442
     69  CE2      -28.5410   40.7500   23.9330 C.ar  139  TRP139      0.0810
     70  CE3      -30.1180   38.9180   23.9500 C.ar  139  TRP139      0.0012
     71  CZ2      -27.9580   40.3000   22.7480 C.ar  139  TRP139      0.0191
     72  CZ3      -29.5390   38.4730   22.7740 C.ar  139  TRP139      0.0001
     73  CH2      -28.4700   39.1640   22.1850 C.ar  139  TRP139      0.0015
     74  N        -29.4810   29.2810   25.5530 N.3   167  MET167     -0.1230
     75  CA       -28.6800   30.2910   24.8760 C.3   167  MET167      0.1702
     76  C        -28.6920   31.5870   25.6760 C.2   167  MET167      0.2592
     77  O        -27.7450   31.8800   26.4130 O.2   167  MET167     -0.2718
     78  CB       -29.2020   30.5230   23.4570 C.3   167  MET167      0.0401
     79  CG       -28.1670   31.0570   22.4770 C.3   167  MET167      0.0596
     80  SD       -26.8520   29.8750   22.1150 S.3   167  MET167     -0.1393
     81  CE       -25.5260   30.4950   23.1480 C.3   167  MET167      0.0692
     82  N        -29.7590   32.3670   25.5390 N.am  168  VAL168     -0.1980
     83  CA       -29.9410   33.5740   26.3410 C.3   168  VAL168      0.1595
     84  C        -30.5160   33.1620   27.6900 C.2   168  VAL168      0.2287
     85  O        -31.5920   32.5470   27.7390 O.2   168  VAL168     -0.2864
     86  CB       -30.8520   34.5910   25.6350 C.3   168  VAL168      0.0276
     87  CG1      -31.0590   35.8140   26.5170 C.3   168  VAL168      0.0022
     88  CG2      -30.2670   34.9870   24.2870 C.3   168  VAL168      0.0022
     89  N        -34.4410   27.5850   23.6750 N.3   199  HIS199     -0.1241
     90  CA       -34.2240   28.7020   22.7630 C.3   199  HIS199      0.1621
     91  C        -35.0190   28.4810   21.4830 C.2   199  HIS199      0.2264
     92  O        -34.4480   28.1800   20.4300 O.2   199  HIS199     -0.2867
     93  CB       -32.7390   28.8810   22.4470 C.3   199  HIS199      0.0745
     94  CG       -32.4240   30.1740   21.7630 C.ar  199  HIS199      0.0817
     95  ND1      -32.5930   31.3980   22.3730 N.ar  199  HIS199     -0.2268
     96  CD2      -31.9590   30.4360   20.5180 C.ar  199  HIS199      0.1154
     97  CE1      -32.2410   32.3580   21.5370 C.ar  199  HIS199      0.1986
     98  NE2      -31.8530   31.8010   20.4040 N.ar  199  HIS199     -0.2212
@<TRIPOS>BOND
     1    22    23    1
     2    22    21    1
     3    22    25    1
     4    23    24    2
     5    25    26    1
     6    26    27    1
     7     4     3    2
     8    27    28    1
     9     7     8    2
    10     7     6    1
    11     1     2    1
    12     3     2    1
    13     3     5   am
    14     6     5    1
    15     6     9    1
    16    10    12    1
    17    10     9    1
    18    10    11    1
    19    58    57    2
    20    57    59   am
    21    57    56    1
    22    56    55    1
    23    55    52    1
    24    53    54    2
    25    53    52    1
    26    29    30    1
    27    52    51    1
    28    51    47   am
    29    13    14    1
    30    49    50    1
    31    49    46    1
    32    15    14    1
    33    15    16    2
    34    45    46    1
    35    33    30    1
    36    33    34    1
    37    32    31    2
    38    30    31    1
    39    47    46    1
    40    47    48    2
    41    14    17    1
    42    17    18    1
    43    98    96   ar
    44    98    97   ar
    45    92    91    2
    46    96    94   ar
    47    36    34    1
    48    34    35    1
    49    20    18    1
    50    18    19    1
    51    91    90    1
    52    97    95   ar
    53    94    95   ar
    54    94    93    1
    55    80    79    1
    56    80    81    1
    57    73    71   ar
    58    73    72   ar
    59    93    90    1
    60    79    78    1
    61    71    69   ar
    62    90    89    1
    63    72    70   ar
    64    78    75    1
    65    44    42    1
    66    69    67   ar
    67    69    68   ar
    68    70    67   ar
    69    43    42    1
    70    88    86    1
    71    42    41    1
    72    67    65   ar
    73    63    62    2
    74    68    66   ar
    75    75    74    1
    76    75    76    1
    77    60    61    1
    78    82    76   am
    79    82    83    1
    80    86    83    1
    81    86    87    1
    82    76    77    2
    83    65    66   ar
    84    65    64    1
    85    62    61    1
    86    41    38    1
    87    37    38    1
    88    61    64    1
    89    83    84    1
    90    38    39    1
    91    84    85    2
    92    39    40    2
