@<TRIPOS>MOLECULE
tmp/6bjoB00.pdb
 140 133 0 0 0
SMALL
GASTEIGER

@<TRIPOS>ATOM
      1  N        -25.1440    5.7790   -7.4650 N.3     9  LYS9       -0.1231
      2  CA       -23.7240    5.3130   -7.6040 C.3     9  LYS9        0.1693
      3  C        -23.4870    4.8070   -9.0170 C.2     9  LYS9        0.2592
      4  O        -24.4700    4.2960   -9.6300 O.2     9  LYS9       -0.2718
      5  CB       -23.3920    4.2840   -6.6410 C.3     9  LYS9        0.0285
      6  CG       -23.5310    4.8710   -5.1970 C.3     9  LYS9        0.0035
      7  CD       -22.7260    4.1870   -4.2200 C.3     9  LYS9        0.0206
      8  CE       -22.1070    4.9780   -3.1160 C.3     9  LYS9        0.1093
      9  NZ       -20.8430    4.4530   -2.7940 N.3     9  LYS9       -0.1314
     10  N        -22.3610    5.1270   -9.5490 N.am   10  ASP10      -0.1974
     11  CA       -22.0710    4.9560  -10.9830 C.3    10  ASP10       0.1709
     12  C        -21.5910    3.4900  -10.9910 C.2    10  ASP10       0.2293
     13  O        -21.5000    2.8560   -9.9600 O.2    10  ASP10      -0.2864
     14  CB       -21.1140    5.9700  -11.7750 C.3    10  ASP10       0.1436
     15  CG       -19.6500    5.9240  -11.2450 C.2    10  ASP10       0.3671
     16  OD1      -19.3530    5.0270  -10.4130 O.co2  10  ASP10      -0.2456
     17  OD2      -18.9780    6.8530  -11.5060 O.co2  10  ASP10      -0.2456
     18  N        -18.9960    2.3750   -8.5660 N.3    13  ASN13      -0.1225
     19  CA       -19.4480    2.7030   -7.1960 C.3    13  ASN13       0.1785
     20  C        -19.0080    4.1040   -6.7100 C.2    13  ASN13       0.2597
     21  O        -18.5640    4.1650   -5.5820 O.2    13  ASN13      -0.2718
     22  CB       -18.8870    1.6580   -6.2440 C.3    13  ASN13       0.1169
     23  CG       -19.3810    1.8280   -4.8120 C.2    13  ASN13       0.2627
     24  OD1      -20.4930    2.2210   -4.5050 O.2    13  ASN13      -0.2716
     25  ND2      -18.4490    1.6770   -3.9280 N.am   13  ASN13      -0.0877
     26  N        -19.0590    5.1350   -7.5890 N.am   14  LEU14      -0.1966
     27  CA       -18.8030    6.4770   -7.1950 C.3    14  LEU14       0.1728
     28  C        -19.9780    7.4210   -7.3010 C.2    14  LEU14       0.2616
     29  O        -20.7840    7.2800   -8.2010 O.2    14  LEU14      -0.2715
     30  CB       -17.6360    7.0220   -8.0510 C.3    14  LEU14       0.0311
     31  CG       -16.3820    6.2330   -8.1180 C.3    14  LEU14       0.0022
     32  CD1      -15.4780    7.0270   -9.0440 C.3    14  LEU14       0.0001
     33  CD2      -15.6860    6.1220   -6.8080 C.3    14  LEU14       0.0001
     34  N        -20.0360    8.4810   -6.4290 N.am   15  ILE15      -0.1963
     35  CA       -20.9270    9.5390   -6.6960 C.3    15  ILE15       0.1727
     36  C        -20.1010   10.7220   -7.4710 C.2    15  ILE15       0.2617
     37  O        -20.7120   11.5350   -8.1230 O.2    15  ILE15      -0.2715
     38  CB       -21.6070   10.0990   -5.4340 C.3    15  ILE15       0.0290
     39  CG1      -20.6350   10.5030   -4.3560 C.3    15  ILE15       0.0022
     40  CG2      -22.6310    9.0850   -4.7500 C.3    15  ILE15       0.0023
     41  CD1      -21.2880   11.4430   -3.2510 C.3    15  ILE15       0.0001
     42  N        -18.7830   10.7530   -7.2470 N.am   16  GLY16      -0.1940
     43  CA       -17.8840   11.7130   -8.0220 C.3    16  GLY16       0.2014
     44  C        -17.6200   12.9690   -7.2220 C.2    16  GLY16       0.2639
     45  O        -17.6230   14.0980   -7.7670 O.2    16  GLY16      -0.2714
     46  N        -17.3790   12.8660   -5.8870 N.am   17  ILE17      -0.1963
     47  CA       -16.8720   13.9630   -5.1740 C.3    17  ILE17       0.1727
     48  C        -15.5730   13.5580   -4.4140 C.2    17  ILE17       0.2617
     49  O        -15.3800   12.4110   -4.1000 O.2    17  ILE17      -0.2715
     50  CB       -17.8530   14.6150   -4.2960 C.3    17  ILE17       0.0290
     51  CG1      -18.1200   13.6320   -3.0520 C.3    17  ILE17       0.0022
     52  CG2      -19.1990   14.9330   -4.9520 C.3    17  ILE17       0.0023
     53  CD1      -19.0610   14.0930   -1.9520 C.3    17  ILE17       0.0001
     54  N        -14.7120   14.5690   -4.1260 N.am   18  SER18      -0.1936
     55  CA       -13.6330   14.5060   -3.0720 C.3    18  SER18       0.2055
     56  C        -14.1190   15.3920   -1.9270 C.2    18  SER18       0.2642
     57  O        -15.0640   16.2710   -1.9740 O.2    18  SER18      -0.2714
     58  CB       -12.3440   15.0120   -3.6070 C.3    18  SER18       0.2130
     59  OG       -12.4000   16.4710   -3.8400 O.3    18  SER18      -0.2179
     60  N        -13.4220   15.1640   -0.8390 N.am   19  ILE19      -0.1977
     61  CA       -13.8430   15.7240    0.4590 C.3    19  ILE19       0.1596
     62  C        -12.6010   16.3110    1.2100 C.2    19  ILE19       0.2287
     63  O        -11.4500   15.9210    0.8760 O.2    19  ILE19      -0.2864
     64  CB       -14.6910   14.7650    1.3400 C.3    19  ILE19       0.0276
     65  CG1      -14.0100   13.5200    1.6960 C.3    19  ILE19       0.0022
     66  CG2      -16.1510   14.6590    0.8130 C.3    19  ILE19       0.0022
     67  CD1      -14.6780   12.5690    2.7220 C.3    19  ILE19       0.0001
     68  N        -14.0660   18.8680   -4.4430 N.3    32  GLN32      -0.1245
     69  CA       -14.2440   18.7880   -5.9000 C.3    32  GLN32       0.1566
     70  C        -15.5010   17.9990   -6.2350 C.2    32  GLN32       0.2260
     71  O        -15.8420   16.9350   -5.6120 O.2    32  GLN32      -0.2867
     72  CB       -13.0530   18.0900   -6.4970 C.3    32  GLN32       0.0367
     73  CG       -12.7150   18.7650   -7.8700 C.3    32  GLN32       0.0905
     74  CD       -11.5040   18.0570   -8.5520 C.2    32  GLN32       0.2608
     75  OE1      -10.5430   17.5920   -7.8690 O.2    32  GLN32      -0.2717
     76  NE2      -11.5390   18.0030   -9.9220 N.am   32  GLN32      -0.0878
     77  N        -16.5300   15.9840   -9.5480 N.3    34  PHE34      -0.1227
     78  CA       -15.9510   15.5590  -10.7640 C.3    34  PHE34       0.1736
     79  C        -16.9290   15.5870  -11.9750 C.2    34  PHE34       0.2592
     80  O        -17.9910   14.9520  -11.9340 O.2    34  PHE34      -0.2718
     81  CB       -15.4350   14.2920  -10.5160 C.3    34  PHE34       0.0547
     82  CG       -14.1100   14.2430   -9.6740 C.ar   34  PHE34      -0.0202
     83  CD1      -12.9220   14.7770  -10.2250 C.ar   34  PHE34      -0.0042
     84  CD2      -14.1830   14.0450   -8.3560 C.ar   34  PHE34      -0.0042
     85  CE1      -11.7840   14.8510   -9.4540 C.ar   34  PHE34      -0.0003
     86  CE2      -13.0390   14.0310   -7.5370 C.ar   34  PHE34      -0.0003
     87  CZ       -11.8740   14.5270   -8.1030 C.ar   34  PHE34      -0.0000
     88  N        -16.4620   16.1760  -13.0930 N.am   35  ASP35      -0.2027
     89  CA       -17.2470   16.0680  -14.3230 C.3    35  ASP35       0.1395
     90  C        -17.6890   14.6820  -14.7430 C.3    35  ASP35       0.2041
     91  O        -16.8550   13.6590  -14.6780 O.3    35  ASP35      -0.2185
     92  CB       -16.4370   16.5670  -15.5030 C.3    35  ASP35       0.1383
     93  CG       -16.1210   18.0450  -15.4460 C.2    35  ASP35       0.3667
     94  OD1      -16.5690   18.7940  -14.5770 O.co2  35  ASP35      -0.2456
     95  OD2      -15.6180   18.5040  -16.5020 O.co2  35  ASP35      -0.2456
     96  N        -19.9130   12.7390  -13.4680 N.3    37  THR37      -0.1218
     97  CA       -20.2520   11.7950  -12.4790 C.3    37  THR37       0.1862
     98  C        -21.7500   12.1130  -12.0330 C.2    37  THR37       0.2287
     99  O        -22.3060   13.2110  -12.3900 O.2    37  THR37      -0.2866
    100  CB       -19.3640   11.9560  -11.2790 C.3    37  THR37       0.1770
    101  OG1      -19.6850   13.2390  -10.6660 O.3    37  THR37      -0.2211
    102  CG2      -17.9300   11.7690  -11.7300 C.3    37  THR37       0.0375
    103  N        -11.7340   12.1960    7.4860 N.3    64  LYS64      -0.1231
    104  CA       -12.0700   12.1380    6.1140 C.3    64  LYS64       0.1693
    105  C        -12.0210   10.7080    5.5660 C.2    64  LYS64       0.2591
    106  O        -12.9200   10.3770    4.8370 O.2    64  LYS64      -0.2718
    107  CB       -11.2240   13.1830    5.3040 C.3    64  LYS64       0.0285
    108  CG       -11.1960   13.1400    3.8060 C.3    64  LYS64       0.0035
    109  CD       -10.0860   14.0960    3.3250 C.3    64  LYS64       0.0206
    110  CE        -8.7150   13.6050    3.6780 C.3    64  LYS64       0.1093
    111  NZ        -7.6540   13.8920    2.6290 N.3    64  LYS64      -0.1314
    112  N        -11.0080    9.8970    5.9470 N.am   65  VAL65      -0.1980
    113  CA       -10.9900    8.5230    5.4980 C.3    65  VAL65       0.1595
    114  C        -12.1820    7.6960    5.9540 C.2    65  VAL65       0.2287
    115  O        -12.5360    6.7860    5.2650 O.2    65  VAL65      -0.2864
    116  CB        -9.5410    7.8740    5.7880 C.3    65  VAL65       0.0276
    117  CG1       -9.4210    6.2550    5.7320 C.3    65  VAL65       0.0022
    118  CG2       -8.4820    8.6540    4.9970 C.3    65  VAL65       0.0022
    119  N        -15.2190    8.6510    3.8710 N.3    68  ALA68      -0.1245
    120  CA       -15.0170    8.0580    2.5230 C.3    68  ALA68       0.1562
    121  C        -15.4630    6.6060    2.5770 C.2    68  ALA68       0.2260
    122  O        -16.2880    6.0880    1.8170 O.2    68  ALA68      -0.2867
    123  CB       -13.5110    8.1300    2.1500 C.3    68  ALA68       0.0290
    124  N        -19.2990    6.2730    2.8430 N.3    71  ILE71      -0.1231
    125  CA       -19.9170    6.5930    1.5840 C.3    71  ILE71       0.1692
    126  C        -19.7370    5.4190    0.5700 C.2    71  ILE71       0.2591
    127  O        -20.7410    5.0360   -0.1040 O.2    71  ILE71      -0.2718
    128  CB       -19.5190    7.9710    1.0240 C.3    71  ILE71       0.0266
    129  CG1      -20.0120    9.1660    1.8970 C.3    71  ILE71       0.0019
    130  CG2      -20.0510    8.1350   -0.4030 C.3    71  ILE71       0.0020
    131  CD1      -19.5650   10.5280    1.4840 C.3    71  ILE71       0.0001
    132  N        -18.5850    4.8300    0.4930 N.am   72  GLN72      -0.1979
    133  CA       -18.2650    3.8200   -0.4930 C.3    72  GLN72       0.1601
    134  C        -19.0090    2.5670   -0.2380 C.2    72  GLN72       0.2287
    135  O        -19.3780    1.8190   -1.1770 O.2    72  GLN72      -0.2864
    136  CB       -16.7650    3.6050   -0.3890 C.3    72  GLN72       0.0394
    137  CG       -15.9220    4.6870   -1.0810 C.3    72  GLN72       0.0908
    138  CD       -14.4500    4.5840   -0.6990 C.2    72  GLN72       0.2608
    139  OE1      -14.0810    3.6640   -0.0090 O.2    72  GLN72      -0.2717
    140  NE2      -13.6020    5.4690   -1.2590 N.am   72  GLN72      -0.0878
@<TRIPOS>BOND
     1    95    93   ar
     2    92    93    1
     3    92    89    1
     4    93    94   ar
     5    90    91    1
     6    90    89    1
     7    89    88    1
     8    96    97    1
     9    88    79   am
    10    97    98    1
    11    97   100    1
    12    99    98    2
    13    79    80    2
    14    79    78    1
    15    14    15    1
    16    14    11    1
    17   102   100    1
    18    17    15   ar
    19   100   101    1
    20    15    16   ar
    21    12    11    1
    22    12    13    2
    23    11    10    1
    24    78    81    1
    25    78    77    1
    26    81    82    1
    27    83    82   ar
    28    83    85   ar
    29    76    74   am
    30    82    84   ar
    31     4     3    2
    32    10     3   am
    33    85    87   ar
    34    32    31    1
    35     3     2    1
    36    18    19    1
    37    74    73    1
    38    74    75    2
    39    84    86   ar
    40    29    28    2
    41    37    36    2
    42    31    30    1
    43    31    33    1
    44    87    86   ar
    45    30    27    1
    46    43    42    1
    47    43    44    1
    48    73    72    1
    49    45    44    2
    50     2     1    1
    51     2     5    1
    52    26    27    1
    53    26    20   am
    54    36    42   am
    55    36    35    1
    56    28    27    1
    57    28    34   am
    58    44    46   am
    59    19    20    1
    60    19    22    1
    61    20    21    2
    62    35    34    1
    63    35    38    1
    64     5     6    1
    65    72    69    1
    66    22    23    1
    67    70    69    1
    68    70    71    2
    69    69    68    1
    70    46    47    1
    71    38    40    1
    72    38    39    1
    73     6     7    1
    74    47    48    1
    75    47    50    1
    76    52    50    1
    77    23    24    2
    78    23    25   am
    79    48    54   am
    80    48    49    2
    81    39    41    1
    82    50    51    1
    83     7     8    1
    84    54    55    1
    85    59    58    1
    86    58    55    1
    87     8     9    1
    88    55    56    1
    89    51    53    1
    90    57    56    2
    91    56    60   am
    92   140   138   am
    93   135   134    2
    94   137   138    1
    95   137   136    1
    96    60    61    1
    97   138   139    2
    98   133   136    1
    99   133   134    1
   100   133   132    1
   101   130   128    1
   102   127   126    2
   103    61    62    1
   104    61    64    1
   105   132   126   am
   106   126   125    1
   107    66    64    1
   108    63    62    2
   109   128   125    1
   110   128   129    1
   111    64    65    1
   112   131   129    1
   113   125   124    1
   114    65    67    1
   115   122   121    2
   116   123   120    1
   117   120   121    1
   118   120   119    1
   119   111   110    1
   120   109   110    1
   121   109   108    1
   122   108   107    1
   123   106   105    2
   124   118   116    1
   125   115   114    2
   126   107   104    1
   127   113   116    1
   128   113   112    1
   129   113   114    1
   130   105   112   am
   131   105   104    1
   132   117   116    1
   133   104   103    1
