@<TRIPOS>MOLECULE
tmp/6bjqA00.pdb
 155 148 0 0 0
SMALL
GASTEIGER

@<TRIPOS>ATOM
      1  N         23.5010  -92.8450  -11.5420 N.3   151  MET151     -0.1230
      2  CA        22.4680  -91.8110  -11.5550 C.3   151  MET151      0.1702
      3  C         22.1110  -91.3690  -12.9710 C.2   151  MET151      0.2592
      4  O         20.9790  -90.9330  -13.2160 O.2   151  MET151     -0.2718
      5  CB        22.9340  -90.6120  -10.7270 C.3   151  MET151      0.0401
      6  CG        21.9370  -89.4700  -10.6260 C.3   151  MET151      0.0596
      7  SD        22.7610  -87.8870  -10.3550 S.3   151  MET151     -0.1393
      8  CE        21.3790  -86.8510   -9.8700 C.3   151  MET151      0.0692
      9  N         23.0520  -91.4710  -13.9100 N.am  152  MET152     -0.1979
     10  CA        22.8370  -91.0050  -15.2750 C.3   152  MET152      0.1605
     11  C         22.2630  -92.0750  -16.1970 C.2   152  MET152      0.2287
     12  O         21.9330  -91.7600  -17.3470 O.2   152  MET152     -0.2864
     13  CB        24.1520  -90.4710  -15.8620 C.3   152  MET152      0.0413
     14  CG        24.7600  -89.3250  -15.0620 C.3   152  MET152      0.0598
     15  SD        23.6960  -87.8660  -15.0000 S.3   152  MET152     -0.1393
     16  CE        24.3680  -87.0150  -13.5770 C.3   152  MET152      0.0692
     17  N         24.8290  -86.1850   -7.9310 N.3   169  ASP169     -0.1239
     18  CA        25.8690  -85.8900   -8.9130 C.3   169  ASP169      0.1674
     19  C         27.1090  -85.2940   -8.2610 C.2   169  ASP169      0.2266
     20  O         27.5910  -84.2320   -8.6570 O.2   169  ASP169     -0.2867
     21  CB        25.3120  -84.9660   -9.9850 C.3   169  ASP169      0.1410
     22  CG        26.2690  -84.7660  -11.1320 C.2   169  ASP169      0.3668
     23  OD1       26.8490  -85.7680  -11.6060 O.co2 169  ASP169     -0.2456
     24  OD2       26.4440  -83.6030  -11.5510 O.co2 169  ASP169     -0.2456
     25  N         30.5330  -76.3960   -3.9900 N.3   297  HIS297     -0.1241
     26  CA        30.7930  -77.6700   -3.3450 C.3   297  HIS297      0.1621
     27  C         31.9940  -77.4890   -2.4360 C.2   297  HIS297      0.2264
     28  O         32.9100  -76.7250   -2.7520 O.2   297  HIS297     -0.2867
     29  CB        31.0800  -78.7910   -4.3550 C.3   297  HIS297      0.0745
     30  CG        29.8800  -79.6060   -4.7260 C.ar  297  HIS297      0.0817
     31  ND1       29.2530  -80.4590   -3.8410 N.ar  297  HIS297     -0.2268
     32  CD2       29.2030  -79.7120   -5.8950 C.ar  297  HIS297      0.1154
     33  CE1       28.2390  -81.0490   -4.4490 C.ar  297  HIS297      0.1986
     34  NE2       28.1850  -80.6110   -5.6950 N.ar  297  HIS297     -0.2212
     35  N         25.6640  -79.6840   -1.5290 N.3   331  HIS331     -0.1241
     36  CA        24.2700  -80.0220   -1.2380 C.3   331  HIS331      0.1621
     37  C         24.2570  -80.6280    0.1580 C.2   331  HIS331      0.2264
     38  O         23.8640  -81.7830    0.3400 O.2   331  HIS331     -0.2867
     39  CB        23.6990  -81.0280   -2.2430 C.3   331  HIS331      0.0745
     40  CG        23.4380  -80.4550   -3.6000 C.ar  331  HIS331      0.0817
     41  ND1       23.8480  -81.0760   -4.7600 N.ar  331  HIS331     -0.2268
     42  CD2       22.8000  -79.3250   -3.9840 C.ar  331  HIS331      0.1154
     43  CE1       23.4830  -80.3490   -5.8000 C.ar  331  HIS331      0.1986
     44  NE2       22.8500  -79.2770   -5.3560 N.ar  331  HIS331     -0.2212
     45  N         17.4010  -80.6480   -2.0130 N.3   412  ASN412     -0.1225
     46  CA        17.8250  -80.3280   -3.3740 C.3   412  ASN412      0.1785
     47  C         17.1950  -81.3370   -4.3250 C.2   412  ASN412      0.2597
     48  O         17.4070  -82.5460   -4.1810 O.2   412  ASN412     -0.2718
     49  CB        19.3520  -80.3380   -3.5070 C.3   412  ASN412      0.1169
     50  CG        19.8210  -80.2070   -4.9590 C.2   412  ASN412      0.2627
     51  OD1       20.1770  -81.1980   -5.6070 O.2   412  ASN412     -0.2716
     52  ND2       19.8210  -78.9810   -5.4720 N.am  412  ASN412     -0.0877
     53  N         16.4180  -80.8350   -5.2790 N.am  413  GLU413     -0.1979
     54  CA        15.7790  -81.6500   -6.3090 C.3   413  GLU413      0.1602
     55  C         15.0790  -82.9140   -5.8000 C.2   413  GLU413      0.2287
     56  O         15.3370  -84.0150   -6.3030 O.2   413  GLU413     -0.2864
     57  CB        16.7920  -82.0070   -7.3840 C.3   413  GLU413      0.0415
     58  CG        17.3090  -80.8140   -8.1370 C.3   413  GLU413      0.1163
     59  CD        17.9280  -81.1980   -9.4540 C.2   413  GLU413      0.3649
     60  OE1       18.4150  -82.3450   -9.5740 O.co2 413  GLU413     -0.2457
     61  OE2       17.9300  -80.3500  -10.3710 O.co2 413  GLU413     -0.2457
     62  N         16.1300  -75.0960  -10.5250 N.3   467  ASN467     -0.1240
     63  CA        17.3040  -75.6580  -11.1910 C.3   467  ASN467      0.1653
     64  C         16.8840  -75.9610  -12.6250 C.2   467  ASN467      0.2266
     65  O         16.3280  -77.0240  -12.9110 O.2   467  ASN467     -0.2867
     66  CB        17.8020  -76.9170  -10.4860 C.3   467  ASN467      0.1155
     67  CG        18.5440  -76.6080   -9.2120 C.2   467  ASN467      0.2627
     68  OD1       18.6840  -75.4420   -8.8380 O.2   467  ASN467     -0.2716
     69  ND2       19.0120  -77.6470   -8.5250 N.am  467  ASN467     -0.0877
     70  N         17.8740  -75.9800  -16.8690 N.3   469  TYR469     -0.1241
     71  CA        18.9730  -76.1400  -17.8140 C.3   469  TYR469      0.1605
     72  C         18.4760  -75.9800  -19.2460 C.2   469  TYR469      0.2264
     73  O         18.7860  -76.7750  -20.1340 O.2   469  TYR469     -0.2867
     74  CB        19.6670  -77.4840  -17.6070 C.3   469  TYR469      0.0534
     75  CG        20.4270  -77.5510  -16.2990 C.ar  469  TYR469     -0.0201
     76  CD1       21.7500  -77.1080  -16.2100 C.ar  469  TYR469     -0.0009
     77  CD2       19.8190  -78.0320  -15.1480 C.ar  469  TYR469     -0.0009
     78  CE1       22.4440  -77.1550  -15.0080 C.ar  469  TYR469      0.0417
     79  CE2       20.5050  -78.0850  -13.9450 C.ar  469  TYR469      0.0417
     80  CZ        21.8160  -77.6460  -13.8820 C.ar  469  TYR469      0.1957
     81  OH        22.4900  -77.6990  -12.6820 O.3   469  TYR469     -0.2866
     82  N         20.8650  -79.5690  -21.0210 N.3   473  TYR473     -0.1241
     83  CA        20.1370  -80.8390  -21.0750 C.3   473  TYR473      0.1605
     84  C         18.8530  -80.7220  -21.8860 C.2   473  TYR473      0.2264
     85  O         18.4430  -81.6830  -22.5450 O.2   473  TYR473     -0.2867
     86  CB        19.7950  -81.3190  -19.6620 C.3   473  TYR473      0.0534
     87  CG        20.9770  -81.6890  -18.7940 C.ar  473  TYR473     -0.0201
     88  CD1       21.8730  -82.6760  -19.1840 C.ar  473  TYR473     -0.0009
     89  CD2       21.1880  -81.0600  -17.5730 C.ar  473  TYR473     -0.0009
     90  CE1       22.9530  -83.0200  -18.3820 C.ar  473  TYR473      0.0417
     91  CE2       22.2650  -81.3960  -16.7690 C.ar  473  TYR473      0.0417
     92  CZ        23.1420  -82.3750  -17.1800 C.ar  473  TYR473      0.1957
     93  OH        24.2100  -82.7140  -16.3860 O.3   473  TYR473     -0.2866
     94  N         20.5000  -72.9540   -9.7120 N.3   504  GLU504     -0.1245
     95  CA        21.4240  -73.6950  -10.5640 C.3   504  GLU504      0.1567
     96  C         21.0480  -73.5060  -12.0240 C.2   504  GLU504      0.2260
     97  O         19.8830  -73.6730  -12.3970 O.2   504  GLU504     -0.2867
     98  CB        21.4310  -75.1930  -10.2470 C.3   504  GLU504      0.0388
     99  CG        21.9860  -75.5450   -8.8960 C.3   504  GLU504      0.1160
    100  CD        22.0660  -77.0390   -8.6770 C.2   504  GLU504      0.3649
    101  OE1       22.0500  -77.7830   -9.6860 O.co2 504  GLU504     -0.2457
    102  OE2       22.1460  -77.4650   -7.5010 O.co2 504  GLU504     -0.2457
    103  N         25.5950  -72.6250  -11.7100 N.3   549  TRP549     -0.1241
    104  CA        26.0800  -73.9500  -11.3550 C.3   549  TRP549      0.1605
    105  C         27.1360  -74.3320  -12.3800 C.2   549  TRP549      0.2264
    106  O         26.8470  -74.3640  -13.5810 O.2   549  TRP549     -0.2867
    107  CB        24.9320  -74.9610  -11.3410 C.3   549  TRP549      0.0550
    108  CG        25.3200  -76.3100  -10.8530 C.ar  549  TRP549      0.0003
    109  CD1       25.5760  -77.4160  -11.6120 C.ar  549  TRP549      0.0946
    110  CD2       25.5010  -76.7080   -9.4880 C.ar  549  TRP549      0.0152
    111  NE1       25.9020  -78.4790  -10.8020 N.ar  549  TRP549     -0.2442
    112  CE2       25.8680  -78.0680   -9.4950 C.ar  549  TRP549      0.0810
    113  CE3       25.3900  -76.0450   -8.2610 C.ar  549  TRP549      0.0012
    114  CZ2       26.1250  -78.7760   -8.3240 C.ar  549  TRP549      0.0191
    115  CZ3       25.6440  -76.7500   -7.1030 C.ar  549  TRP549      0.0001
    116  CH2       26.0070  -78.1000   -7.1410 C.ar  549  TRP549      0.0015
    117  N         34.1470  -79.9890  -10.2660 N.3   554  PHE554     -0.1241
    118  CA        34.2310  -80.8590   -9.1020 C.3   554  PHE554      0.1605
    119  C         34.0880  -82.3150   -9.5240 C.2   554  PHE554      0.2264
    120  O         33.6050  -82.6280  -10.6160 O.2   554  PHE554     -0.2867
    121  CB        33.1790  -80.5010   -8.0360 C.3   554  PHE554      0.0534
    122  CG        31.7520  -80.6010   -8.5090 C.ar  554  PHE554     -0.0203
    123  CD1       31.1370  -79.5250   -9.1300 C.ar  554  PHE554     -0.0042
    124  CD2       31.0150  -81.7610   -8.3010 C.ar  554  PHE554     -0.0042
    125  CE1       29.8140  -79.6080   -9.5550 C.ar  554  PHE554     -0.0003
    126  CE2       29.6930  -81.8530   -8.7250 C.ar  554  PHE554     -0.0003
    127  CZ        29.0910  -80.7720   -9.3500 C.ar  554  PHE554     -0.0000
    128  N         30.0710  -87.4470  -17.7530 N.3   562  ARG562     -0.1245
    129  CA        30.9190  -86.6440  -16.8760 C.3   562  ARG562      0.1563
    130  C         32.3580  -86.7220  -17.3760 C.2   562  ARG562      0.2260
    131  O         32.9910  -87.7790  -17.2990 O.2   562  ARG562     -0.2867
    132  CB        30.8140  -87.1220  -15.4280 C.3   562  ARG562      0.0307
    133  CG        29.4120  -87.0710  -14.8360 C.3   562  ARG562      0.0489
    134  CD        29.0520  -85.6800  -14.3220 C.3   562  ARG562      0.2205
    135  NE        28.4580  -84.8800  -15.3860 N.pl3 562  ARG562     -0.0865
    136  CZ        27.4960  -83.9830  -15.2070 C.cat 562  ARG562      0.5346
    137  NH1       27.0000  -83.7670  -13.9980 N.pl3 562  ARG562      0.1354
    138  NH2       27.0250  -83.3060  -16.2470 N.pl3 562  ARG562      0.1354
    139  N         32.2490  -83.0250  -13.0310 N.3   566  ASN566     -0.1240
    140  CA        31.2900  -82.0450  -13.5170 C.3   566  ASN566      0.1653
    141  C         32.0510  -80.8040  -13.9620 C.2   566  ASN566      0.2266
    142  O         32.7750  -80.1980  -13.1650 O.2   566  ASN566     -0.2867
    143  CB        30.2700  -81.7160  -12.4290 C.3   566  ASN566      0.1155
    144  CG        29.1290  -80.8620  -12.9350 C.2   566  ASN566      0.2627
    145  OD1       29.3450  -79.8370  -13.5890 O.2   566  ASN566     -0.2716
    146  ND2       27.9010  -81.2780  -12.6340 N.am  566  ASN566     -0.0877
    147  N         30.6930  -77.9500  -15.2230 N.3   568  LYS568     -0.1245
    148  CA        29.8350  -76.7770  -15.3100 C.3   568  LYS568      0.1561
    149  C         30.3720  -75.5810  -14.5280 C.2   568  LYS568      0.2260
    150  O         29.6910  -74.5510  -14.4590 O.2   568  LYS568     -0.2867
    151  CB        28.4260  -77.1190  -14.8250 C.3   568  LYS568      0.0271
    152  CG        27.6360  -77.9900  -15.7900 C.3   568  LYS568      0.0035
    153  CD        26.1560  -78.0350  -15.4100 C.3   568  LYS568      0.0206
    154  CE        25.3870  -78.9940  -16.3010 C.3   568  LYS568      0.1093
    155  NZ        25.9590  -80.3670  -16.1950 N.3   568  LYS568     -0.1314
@<TRIPOS>BOND
     1    85    84    2
     2    84    83    1
     3    83    82    1
     4    83    86    1
     5    73    72    2
     6    86    87    1
     7    72    71    1
     8    88    87   ar
     9    88    90   ar
    10    87    89   ar
    11    90    92   ar
    12    71    74    1
    13    71    70    1
    14   128   129    1
    15    74    75    1
    16    89    91   ar
    17   130   131    2
    18   130   129    1
    19    12    11    2
    20    92    91   ar
    21    92    93    1
    22   129   132    1
    23   154   155    1
    24   154   153    1
    25    75    76   ar
    26    75    77   ar
    27   138   136    1
    28    76    78   ar
    29    11    10    1
    30    13    10    1
    31    13    14    1
    32   152   153    1
    33   152   151    1
    34   132   133    1
    35   135   136    2
    36   135   134    1
    37   148   147    1
    38   148   151    1
    39   148   149    1
    40    10     9    1
    41   136   137    1
    42    77    79   ar
    43    14    15    1
    44    78    80   ar
    45    15    16    1
    46   133   134    1
    47   149   150    2
    48   141   140    1
    49   141   142    2
    50    79    80   ar
    51     9     3   am
    52    80    81    1
    53   145   144    2
    54   106   105    2
    55   140   139    1
    56   140   143    1
    57     4     3    2
    58     3     2    1
    59   144   146   am
    60   144   143    1
    61    65    64    2
    62    64    63    1
    63    97    96    2
    64   105   104    1
    65    96    95    1
    66   103   104    1
    67   109   108   ar
    68   109   111   ar
    69    23    22   ar
    70     2     1    1
    71     2     5    1
    72    24    22   ar
    73   104   107    1
    74   107   108    1
    75    63    62    1
    76    63    66    1
    77    22    21    1
    78   108   110   ar
    79   111   112   ar
    80     5     6    1
    81     6     7    1
    82   120   119    2
    83    95    98    1
    84    95    94    1
    85    66    67    1
    86    61    59   ar
    87     7     8    1
    88   117   118    1
    89    98    99    1
    90    21    18    1
    91   101   100   ar
    92    60    59   ar
    93   125   127   ar
    94   125   123   ar
    95   119   118    1
    96   112   110   ar
    97   112   114   ar
    98   110   113   ar
    99    59    58    1
   100   127   126   ar
   101    67    68    2
   102    67    69   am
   103   123   122   ar
   104   118   121    1
   105    18    19    1
   106    18    17    1
   107    99   100    1
   108   126   124   ar
   109   100   102   ar
   110    20    19    2
   111   122   124   ar
   112   122   121    1
   113   114   116   ar
   114   113   115   ar
   115    58    57    1
   116    57    54    1
   117   116   115   ar
   118    54    55    1
   119    54    53    1
   120    56    55    2
   121    32    34   ar
   122    32    30   ar
   123    43    44   ar
   124    43    41   ar
   125    34    33   ar
   126    51    50    2
   127    52    50   am
   128    44    42   ar
   129    53    47   am
   130    50    49    1
   131    41    40   ar
   132    30    29    1
   133    30    31   ar
   134    33    31   ar
   135    29    26    1
   136    47    48    2
   137    47    46    1
   138    25    26    1
   139    42    40   ar
   140    40    39    1
   141    49    46    1
   142    46    45    1
   143    26    27    1
   144    28    27    2
   145    39    36    1
   146    35    36    1
   147    36    37    1
   148    37    38    2
