@<TRIPOS>MOLECULE
tmp/6bk3A01.pdb
 123 120 0 0 0
SMALL
GASTEIGER

@<TRIPOS>ATOM
      1  N         43.5250    6.6960  -11.5530 N.3     7  PHE7       -0.1241
      2  CA        43.1170    6.7230  -12.9310 C.3     7  PHE7        0.1605
      3  C         41.6190    6.6020  -13.0540 C.2     7  PHE7        0.2264
      4  O         41.0550    5.7620  -12.4510 O.2     7  PHE7       -0.2867
      5  CB        43.7870    5.6390  -13.7100 C.3     7  PHE7        0.0534
      6  CG        43.7380    5.9240  -15.1510 C.ar    7  PHE7       -0.0203
      7  CD1       44.8270    6.5370  -15.7760 C.ar    7  PHE7       -0.0042
      8  CD2       42.5160    5.7600  -15.8460 C.ar    7  PHE7       -0.0042
      9  CE1       44.7250    6.8950  -17.1080 C.ar    7  PHE7       -0.0003
     10  CE2       42.4140    6.1270  -17.1710 C.ar    7  PHE7       -0.0003
     11  CZ        43.5160    6.6900  -17.8040 C.ar    7  PHE7       -0.0000
     12  N         37.0520    7.2630  -23.1200 N.3    61  MET61      -0.1245
     13  CA        37.8850    6.0750  -23.2600 C.3    61  MET61       0.1570
     14  C         37.4420    5.3590  -24.5430 C.2    61  MET61       0.2261
     15  O         38.2720    5.0980  -25.4110 O.2    61  MET61      -0.2867
     16  CB        37.7450    5.1800  -22.0130 C.3    61  MET61       0.0387
     17  CG        38.7290    5.4850  -20.8930 C.3    61  MET61       0.0595
     18  SD        40.4330    5.0610  -21.3530 S.3    61  MET61      -0.1393
     19  CE        40.8170    3.9550  -19.9980 C.3    61  MET61       0.0692
     20  N         45.6010    4.8400  -27.0060 N.3    67  PRO67      -0.2116
     21  CA        46.2930    5.2080  -25.7420 C.3    67  PRO67       0.1372
     22  C         46.7470    6.6950  -25.6310 C.2    67  PRO67       0.2244
     23  O         46.1410    7.4430  -24.8490 O.2    67  PRO67      -0.2868
     24  CB        47.5160    4.2510  -25.7070 C.3    67  PRO67       0.0268
     25  CG        47.5560    3.5680  -27.0490 C.3    67  PRO67       0.0207
     26  CD        46.1370    3.5570  -27.5230 C.3    67  PRO67       0.0892
     27  N         43.7640    9.5310  -25.7020 N.3    70  TYR70      -0.1227
     28  CA        42.8200    9.7420  -24.5960 C.3    70  TYR70       0.1736
     29  C         43.4630   10.5410  -23.4630 C.2    70  TYR70       0.2595
     30  O         42.8260   11.3980  -22.8420 O.2    70  TYR70      -0.2718
     31  CB        42.3170    8.4470  -24.0000 C.3    70  TYR70       0.0548
     32  CG        41.5420    8.7450  -22.7390 C.ar   70  TYR70      -0.0200
     33  CD1       40.2650    9.3020  -22.7960 C.ar   70  TYR70      -0.0009
     34  CD2       42.1020    8.5150  -21.4860 C.ar   70  TYR70      -0.0009
     35  CE1       39.5360    9.5800  -21.6530 C.ar   70  TYR70       0.0417
     36  CE2       41.3830    8.7950  -20.3290 C.ar   70  TYR70       0.0417
     37  CZ        40.1150    9.3450  -20.4110 C.ar   70  TYR70       0.1957
     38  OH        39.4270    9.6560  -19.2700 O.3    70  TYR70      -0.2866
     39  N         44.7300   10.2180  -23.2410 N.am   71  LEU71      -0.1980
     40  CA        45.5340   10.7710  -22.1800 C.3    71  LEU71       0.1596
     41  C         45.6910   12.2640  -22.3380 C.2    71  LEU71       0.2287
     42  O         45.6310   13.0280  -21.3440 O.2    71  LEU71      -0.2864
     43  CB        46.9000   10.0690  -22.1510 C.3    71  LEU71       0.0297
     44  CG        46.7480    8.5770  -21.7350 C.3    71  LEU71       0.0022
     45  CD1       48.0590    7.8190  -21.7650 C.3    71  LEU71       0.0001
     46  CD2       46.1450    8.4000  -20.3550 C.3    71  LEU71       0.0001
     47  N         47.6420    8.5030   -8.8500 N.3   102  ASP102     -0.1239
     48  CA        48.2660    7.4530   -9.6900 C.3   102  ASP102      0.1674
     49  C         49.3060    8.1130  -10.5690 C.2   102  ASP102      0.2266
     50  O         48.9550    8.9370  -11.3620 O.2   102  ASP102     -0.2867
     51  CB        47.1240    6.8380  -10.5520 C.3   102  ASP102      0.1410
     52  CG        47.5480    5.6320  -11.3980 C.2   102  ASP102      0.3668
     53  OD1       48.7240    5.4360  -11.7200 O.co2 102  ASP102     -0.2456
     54  OD2       46.6340    4.8430  -11.6850 O.co2 102  ASP102     -0.2456
     55  N         50.6450    7.2210  -13.2120 N.3   104  HIS104     -0.1241
     56  CA        50.2640    7.1950  -14.6250 C.3   104  HIS104      0.1621
     57  C         49.6150    8.5150  -15.0070 C.2   104  HIS104      0.2264
     58  O         49.2640    8.6830  -16.1380 O.2   104  HIS104     -0.2867
     59  CB        49.3000    6.0510  -14.9300 C.3   104  HIS104      0.0745
     60  CG        49.9460    4.6980  -14.8320 C.ar  104  HIS104      0.0817
     61  ND1       49.8990    3.9320  -13.6900 N.ar  104  HIS104     -0.2268
     62  CD2       50.6970    4.0020  -15.7200 C.ar  104  HIS104      0.1154
     63  CE1       50.6230    2.8360  -13.8680 C.ar  104  HIS104      0.1986
     64  NE2       51.0960    2.8460  -15.1040 N.ar  104  HIS104     -0.2212
     65  N         51.3440   -1.6140   -8.6300 N.3   125  GLN125     -0.1245
     66  CA        51.9130   -2.7560   -9.2500 C.3   125  GLN125      0.1566
     67  C         52.9940   -3.1990   -8.3030 C.2   125  GLN125      0.2260
     68  O         53.4010   -2.4280   -7.4440 O.2   125  GLN125     -0.2867
     69  CB        52.5220   -2.3640  -10.5980 C.3   125  GLN125      0.0367
     70  CG        51.5220   -1.7480  -11.5600 C.3   125  GLN125      0.0905
     71  CD        52.2460   -1.0430  -12.7000 C.2   125  GLN125      0.2608
     72  OE1       52.4980    0.2300  -12.6980 O.2   125  GLN125     -0.2717
     73  NE2       52.6460   -1.8570  -13.6710 N.am  125  GLN125     -0.0878
     74  N         56.1970   -4.3740  -21.6300 N.3   171  PHE171     -0.1241
     75  CA        56.2320   -2.9500  -21.9430 C.3   171  PHE171      0.1605
     76  C         57.6820   -2.3790  -22.0810 C.2   171  PHE171      0.2264
     77  O         57.9060   -1.3820  -22.7570 O.2   171  PHE171     -0.2867
     78  CB        55.5030   -2.1380  -20.9080 C.3   171  PHE171      0.0534
     79  CG        54.0490   -2.3370  -20.8950 C.ar  171  PHE171     -0.0203
     80  CD1       53.4070   -2.9800  -21.9030 C.ar  171  PHE171     -0.0042
     81  CD2       53.3270   -1.8540  -19.8580 C.ar  171  PHE171     -0.0042
     82  CE1       52.0280   -3.1310  -21.8590 C.ar  171  PHE171     -0.0003
     83  CE2       51.9650   -2.0100  -19.7950 C.ar  171  PHE171     -0.0003
     84  CZ        51.3080   -2.6490  -20.7970 C.ar  171  PHE171     -0.0000
     85  N         52.4970    2.7400  -23.6970 N.3   181  PHE181     -0.1241
     86  CA        52.4620    2.1390  -22.3390 C.3   181  PHE181      0.1605
     87  C         53.8810    1.9870  -21.8710 C.2   181  PHE181      0.2264
     88  O         54.1810    2.1650  -20.6900 O.2   181  PHE181     -0.2867
     89  CB        51.7680    0.7710  -22.3410 C.3   181  PHE181      0.0534
     90  CG        50.2860    0.8400  -22.6020 C.ar  181  PHE181     -0.0203
     91  CD1       49.4990    1.8770  -22.0910 C.ar  181  PHE181     -0.0042
     92  CD2       49.6750   -0.1200  -23.3580 C.ar  181  PHE181     -0.0042
     93  CE1       48.1160    1.9240  -22.3270 C.ar  181  PHE181     -0.0003
     94  CE2       48.3090   -0.0750  -23.6030 C.ar  181  PHE181     -0.0003
     95  CZ        47.5300    0.9390  -23.0740 C.ar  181  PHE181     -0.0000
     96  N         54.7860    5.6250  -20.7550 N.3   184  GLN184     -0.1245
     97  CA        54.0200    5.9120  -19.5360 C.3   184  GLN184      0.1566
     98  C         54.5110    5.1440  -18.2870 C.2   184  GLN184      0.2260
     99  O         54.6590    5.7320  -17.1790 O.2   184  GLN184     -0.2867
    100  CB        52.5920    5.5390  -19.7780 C.3   184  GLN184      0.0367
    101  CG        51.6660    6.1030  -18.7380 C.3   184  GLN184      0.0905
    102  CD        50.3780    5.3210  -18.7400 C.2   184  GLN184      0.2608
    103  OE1       50.3750    4.1060  -19.0310 O.2   184  GLN184     -0.2717
    104  NE2       49.2690    5.9950  -18.4280 N.am  184  GLN184     -0.0878
    105  N         49.6670   -9.6960  -20.2010 N.3   351  TRP351     -0.1227
    106  CA        50.4150   -8.4670  -20.4990 C.3   351  TRP351      0.1737
    107  C         50.7210   -7.6500  -19.2280 C.2   351  TRP351      0.2595
    108  O         50.4210   -8.0780  -18.0830 O.2   351  TRP351     -0.2718
    109  CB        49.6630   -7.6140  -21.5720 C.3   351  TRP351      0.0564
    110  CG        48.5410   -6.8080  -21.0460 C.ar  351  TRP351      0.0003
    111  CD1       47.6170   -7.1870  -20.1270 C.ar  351  TRP351      0.0946
    112  CD2       48.2010   -5.4710  -21.4390 C.ar  351  TRP351      0.0152
    113  NE1       46.7300   -6.1440  -19.8770 N.ar  351  TRP351     -0.2442
    114  CE2       47.0740   -5.0770  -20.6710 C.ar  351  TRP351      0.0810
    115  CE3       48.7610   -4.5510  -22.3470 C.ar  351  TRP351      0.0012
    116  CZ2       46.4830   -3.8040  -20.7910 C.ar  351  TRP351      0.0191
    117  CZ3       48.1680   -3.2660  -22.4620 C.ar  351  TRP351      0.0001
    118  CH2       47.0500   -2.9150  -21.6890 C.ar  351  TRP351      0.0015
    119  N         51.3820   -6.5090  -19.4510 N.am  352  ALA352     -0.1980
    120  CA        51.5730   -5.5200  -18.4560 C.3   352  ALA352      0.1597
    121  C         52.3600   -6.1320  -17.2630 C.2   352  ALA352      0.2287
    122  O         53.4930   -6.5850  -17.4680 O.2   352  ALA352     -0.2864
    123  CB        50.2010   -4.9590  -18.0780 C.3   352  ALA352      0.0319
@<TRIPOS>BOND
     1    26    25    1
     2    26    20    1
     3    25    24    1
     4    20    21    1
     5    21    24    1
     6    21    22    1
     7    27    28    1
     8    22    23    2
     9    15    14    2
    10    28    31    1
    11    28    29    1
    12    14    13    1
    13    31    32    1
    14    85    86    1
    15    94    92   ar
    16    94    95   ar
    17    29    39   am
    18    29    30    2
    19    92    90   ar
    20    13    12    1
    21    13    16    1
    22    39    40    1
    23    95    93   ar
    24    33    32   ar
    25    33    35   ar
    26    77    76    2
    27    32    34   ar
    28    90    89    1
    29    90    91   ar
    30   117   115   ar
    31   117   118   ar
    32   115   112   ar
    33    89    86    1
    34    86    87    1
    35    41    40    1
    36    41    42    2
    37    93    91   ar
    38    40    43    1
    39    43    44    1
    40    76    75    1
    41    16    17    1
    42    75    74    1
    43    75    78    1
    44    80    82   ar
    45    80    79   ar
    46    87    88    2
    47    82    84   ar
    48    45    44    1
    49    44    46    1
    50   118   116   ar
    51    35    37   ar
    52   109   110    1
    53   109   106    1
    54    34    36   ar
    55   112   110   ar
    56   112   114   ar
    57    18    17    1
    58    18    19    1
    59   110   111   ar
    60    78    79    1
    61    79    81   ar
    62    84    83   ar
    63   116   114   ar
    64    96    97    1
    65   114   113   ar
    66   106   105    1
    67   106   107    1
    68    37    36   ar
    69    37    38    1
    70   111   113   ar
    71    81    83   ar
    72   100    97    1
    73   100   101    1
    74    97    98    1
    75   119   107   am
    76   119   120    1
    77   107   108    2
    78   103   102    2
    79   102   101    1
    80   102   104   am
    81   120   123    1
    82   120   121    1
    83    98    99    2
    84    11    10   ar
    85    11     9   ar
    86   122   121    2
    87    10     8   ar
    88     9     7   ar
    89    58    57    2
    90     8     6   ar
    91     7     6   ar
    92    62    64   ar
    93    62    60   ar
    94     6     5    1
    95    64    63   ar
    96    57    56    1
    97    59    60    1
    98    59    56    1
    99    60    61   ar
   100    56    55    1
   101    63    61   ar
   102     5     2    1
   103    73    71   am
   104     3     2    1
   105     3     4    2
   106     2     1    1
   107    71    72    2
   108    71    70    1
   109    53    52   ar
   110    54    52   ar
   111    70    69    1
   112    52    51    1
   113    50    49    2
   114    69    66    1
   115    49    48    1
   116    51    48    1
   117    48    47    1
   118    66    65    1
   119    66    67    1
   120    67    68    2
