@<TRIPOS>MOLECULE
tmp/6bkaA01.pdb
 115 107 0 0 0
SMALL
GASTEIGER

@<TRIPOS>ATOM
      1  N         30.9190   -8.7400   24.3240 N.3    13  GLU13      -0.1231
      2  CA        30.8630   -8.2830   22.9180 C.3    13  GLU13       0.1699
      3  C         30.8200   -6.7640   22.7400 C.2    13  GLU13       0.2592
      4  O         30.0280   -6.1900   21.9400 O.2    13  GLU13      -0.2718
      5  CB        29.7000   -9.0130   22.1430 C.3    13  GLU13       0.0402
      6  CG        29.8030  -10.5260   22.2040 C.3    13  GLU13       0.1161
      7  CD        28.6110  -11.2130   21.5610 C.2    13  GLU13       0.3649
      8  OE1       28.2280  -10.7610   20.4700 O.co2  13  GLU13      -0.2457
      9  OE2       28.0500  -12.1780   22.1340 O.co2  13  GLU13      -0.2457
     10  N         31.6260   -6.0970   23.5490 N.am   14  VAL14      -0.1980
     11  CA        31.6750   -4.6690   23.6070 C.3    14  VAL14       0.1595
     12  C         33.0680   -4.1140   23.2620 C.2    14  VAL14       0.2287
     13  O         34.0670   -4.8400   23.2460 O.2    14  VAL14      -0.2864
     14  CB        31.1440   -4.0950   24.9390 C.3    14  VAL14       0.0276
     15  CG1       29.6880   -4.4780   25.1650 C.3    14  VAL14       0.0022
     16  CG2       31.9400   -4.5580   26.0910 C.3    14  VAL14       0.0022
     17  N         20.0710    2.1220   25.5650 N.3    33  ALA33      -0.1231
     18  CA        20.2540    1.6900   24.1490 C.3    33  ALA33       0.1694
     19  C         21.4000    2.4890   23.5160 C.2    33  ALA33       0.2592
     20  O         22.1870    1.9420   22.7540 O.2    33  ALA33      -0.2718
     21  CB        18.9780    1.8380   23.3620 C.3    33  ALA33       0.0304
     22  N         21.4530    3.8180   23.7950 N.am   34  THR34      -0.1953
     23  CA        22.5080    4.6390   23.2350 C.3    34  THR34       0.1897
     24  C         23.8950    4.1920   23.7230 C.2    34  THR34       0.2313
     25  O         24.8220    4.0740   22.9220 O.2    34  THR34      -0.2863
     26  CB        22.1850    6.1190   23.3730 C.3    34  THR34       0.1794
     27  OG1       20.9700    6.3820   22.6970 O.3    34  THR34      -0.2208
     28  CG2       23.2450    7.0030   22.8900 C.3    34  THR34       0.0378
     29  N         24.8460    1.1500   24.7860 N.3    36  THR36      -0.1203
     30  CA        25.1290   -0.0770   24.0800 C.3    36  THR36       0.1994
     31  C         25.5230    0.2050   22.5930 C.2    36  THR36       0.2618
     32  O         26.5070   -0.3650   22.1420 O.2    36  THR36      -0.2717
     33  CB        23.9450   -1.0160   24.1970 C.3    36  THR36       0.1784
     34  OG1       23.9420   -1.5610   25.5600 O.3    36  THR36      -0.2211
     35  CG2       24.0500   -2.1650   23.2470 C.3    36  THR36       0.0376
     36  N         24.7860    1.0700   21.8950 N.am   37  ARG37      -0.1965
     37  CA        25.1550    1.4560   20.5070 C.3    37  ARG37       0.1729
     38  C         26.5630    2.0460   20.3940 C.2    37  ARG37       0.2616
     39  O         27.2370    1.7840   19.3990 O.2    37  ARG37      -0.2715
     40  CB        24.1230    2.3520   19.8120 C.3    37  ARG37       0.0348
     41  CG        22.8320    1.5770   19.4940 C.3    37  ARG37       0.0492
     42  CD        21.6690    2.5030   19.1060 C.3    37  ARG37       0.2205
     43  NE        22.0900    3.2940   17.9750 N.pl3  37  ARG37      -0.0865
     44  CZ        21.8830    2.9580   16.7090 C.cat  37  ARG37       0.5346
     45  NH1       21.1580    1.8940   16.3820 N.pl3  37  ARG37       0.1354
     46  NH2       22.3070    3.7560   15.7280 N.pl3  37  ARG37       0.1354
     47  N         26.9530    2.8230   21.3780 N.am   38  LEU38      -0.1963
     48  CA        28.2850    3.4660   21.4540 C.3    38  LEU38       0.1728
     49  C         29.3950    2.5150   21.7590 C.2    38  LEU38       0.2616
     50  O         30.5610    2.8750   21.6060 O.2    38  LEU38      -0.2715
     51  CB        28.2650    4.6270   22.4480 C.3    38  LEU38       0.0311
     52  CG        27.4550    5.8220   22.0230 C.3    38  LEU38       0.0022
     53  CD1       27.1090    6.7520   23.1710 C.3    38  LEU38       0.0001
     54  CD2       28.1310    6.5930   20.8820 C.3    38  LEU38       0.0001
     55  N         29.0760    1.2940   22.2280 N.am   39  GLY39      -0.1955
     56  CA        30.0740    0.2640   22.4750 C.3    39  GLY39       0.1869
     57  C         30.3630   -0.0450   23.9330 C.2    39  GLY39       0.2309
     58  O         31.3280   -0.7670   24.1610 O.2    39  GLY39      -0.2863
     59  N         15.1880    0.0170   20.0990 N.3    65  LEU65      -0.1231
     60  CA        16.0740    1.2240   20.1260 C.3    65  LEU65       0.1693
     61  C         17.5090    0.9270   19.6710 C.2    65  LEU65       0.2592
     62  O         18.1560    1.7090   18.9290 O.2    65  LEU65      -0.2718
     63  CB        16.1070    1.8420   21.4910 C.3    65  LEU65       0.0284
     64  CG        14.8030    2.5020   21.9250 C.3    65  LEU65       0.0019
     65  CD1       14.7540    2.7660   23.4270 C.3    65  LEU65       0.0001
     66  CD2       14.4870    3.7520   21.1390 C.3    65  LEU65       0.0001
     67  N         18.0130   -0.2490   20.0740 N.am   66  VAL66      -0.1966
     68  CA        19.3400   -0.6780   19.6710 C.3    66  VAL66       0.1727
     69  C         19.3400   -1.0160   18.1950 C.2    66  VAL66       0.2617
     70  O         20.3470   -0.7470   17.5180 O.2    66  VAL66      -0.2715
     71  CB        19.8370   -1.9050   20.4980 C.3    66  VAL66       0.0290
     72  CG1       21.1670   -2.4580   19.9800 C.3    66  VAL66       0.0023
     73  CG2       20.0260   -1.4390   21.9190 C.3    66  VAL66       0.0023
     74  N         18.2820   -1.7090   17.7270 N.am   67  GLY67      -0.1940
     75  CA        18.1840   -2.1440   16.3460 C.3    67  GLY67       0.2014
     76  C         18.3840   -3.6310   16.1170 C.2    67  GLY67       0.2638
     77  O         18.2890   -4.1150   15.0040 O.2    67  GLY67      -0.2714
     78  N         18.6710   -4.4000   17.1720 N.am   68  ASP68      -0.1971
     79  CA        18.8220   -5.8620   17.0530 C.3    68  ASP68       0.1709
     80  C         18.5760   -6.4510   18.4360 C.2    68  ASP68       0.2293
     81  O         18.4570   -5.6860   19.3990 O.2    68  ASP68      -0.2864
     82  CB        20.1890   -6.2100   16.4740 C.3    68  ASP68       0.1436
     83  CG        21.3210   -5.7780   17.3670 C.2    68  ASP68       0.3671
     84  OD1       21.4560   -6.3750   18.4500 O.co2  68  ASP68      -0.2456
     85  OD2       22.0360   -4.8120   16.9550 O.co2  68  ASP68      -0.2456
     86  N         20.5680   -8.4940   20.1500 N.3    70  GLY70      -0.1225
     87  CA        21.8000   -8.9410   20.7790 C.3    70  GLY70       0.1811
     88  C         21.8000   -8.9430   22.3090 C.2    70  GLY70       0.2280
     89  O         22.4830   -9.7670   22.9400 O.2    70  GLY70      -0.2866
     90  N         22.8390   -6.8410   24.6690 N.3    72  ILE72      -0.1245
     91  CA        24.0360   -6.4000   25.3060 C.3    72  ILE72       0.1561
     92  C         23.6070   -5.3790   26.3510 C.2    72  ILE72       0.2260
     93  O         23.5910   -4.2050   26.1130 O.2    72  ILE72      -0.2867
     94  CB        25.0540   -5.8040   24.3000 C.3    72  ILE72       0.0252
     95  CG1       25.3150   -6.7500   23.1490 C.3    72  ILE72       0.0019
     96  CG2       26.3690   -5.4440   24.9860 C.3    72  ILE72       0.0019
     97  CD1       25.7610   -8.0740   23.5700 C.3    72  ILE72       0.0001
     98  N         18.9340   12.5070   27.6200 N.3   268  GLN268     -0.1245
     99  CA        18.2270   11.1810   27.7240 C.3   268  GLN268      0.1566
    100  C         17.9200   10.7280   29.1180 C.2   268  GLN268      0.2260
    101  O         17.1630    9.7560   29.2270 O.2   268  GLN268     -0.2867
    102  CB        19.0040   10.0780   27.0360 C.3   268  GLN268      0.0367
    103  CG        19.2630   10.3450   25.5500 C.3   268  GLN268      0.0905
    104  CD        20.0840    9.2430   24.8520 C.2   268  GLN268      0.2608
    105  OE1       21.1390    8.7650   25.3400 O.2   268  GLN268     -0.2717
    106  NE2       19.5340    8.7390   23.7290 N.am  268  GLN268     -0.0878
    107  N         26.2900   10.8860   23.6630 N.3   363  GLU363     -0.1245
    108  CA        27.4180   10.5690   22.8300 C.3   363  GLU363      0.1567
    109  C         28.6360   11.4070   23.1810 C.2   363  GLU363      0.2260
    110  O         29.7590   10.8590   23.1720 O.2   363  GLU363     -0.2867
    111  CB        27.0600   10.8070   21.3470 C.3   363  GLU363      0.0388
    112  CG        25.9770    9.8980   20.7390 C.3   363  GLU363      0.1160
    113  CD        24.5010   10.3300   20.9450 C.2   363  GLU363      0.3649
    114  OE1       24.1640   11.1590   21.8180 O.co2 363  GLU363     -0.2457
    115  OE2       23.6360    9.7970   20.2000 O.co2 363  GLU363     -0.2457
@<TRIPOS>BOND
     1    77    76    2
     2    46    44    1
     3    76    75    1
     4    76    78   am
     5    75    74    1
     6    45    44    1
     7    82    79    1
     8    82    83    1
     9    44    43    2
    10    85    83   ar
    11    79    78    1
    12    79    80    1
    13    83    84   ar
    14    70    69    2
    15    74    69   am
    16    43    42    1
    17    69    68    1
    18    80    81    2
    19    62    61    2
    20    42    41    1
    21    39    38    2
    22    41    40    1
    23    68    67    1
    24    68    71    1
    25    61    67   am
    26    61    60    1
    27    40    37    1
    28    72    71    1
    29    59    60    1
    30    60    63    1
    31    86    87    1
    32   115   113   ar
    33    38    37    1
    34    38    47   am
    35     8     7   ar
    36    71    73    1
    37    37    36    1
    38   112   113    1
    39   112   111    1
    40    87    88    1
    41    54    52    1
    42   113   114   ar
    43    66    64    1
    44   111   108    1
    45    47    48    1
    46    48    49    1
    47    48    51    1
    48    63    64    1
    49     7     9   ar
    50     7     6    1
    51    50    49    2
    52    49    55   am
    53    36    31   am
    54    64    65    1
    55     4     3    2
    56    52    51    1
    57    52    53    1
    58    32    31    2
    59     5     6    1
    60     5     2    1
    61    55    56    1
    62    88    89    2
    63    56    57    1
    64    31    30    1
    65    27    26    1
    66     3     2    1
    67     3    10   am
    68    20    19    2
    69   108   109    1
    70   108   107    1
    71    28    26    1
    72     2     1    1
    73    25    24    2
    74    95    97    1
    75    95    94    1
    76   110   109    2
    77    23    26    1
    78    23    24    1
    79    23    22    1
    80    13    12    2
    81    35    33    1
    82    12    11    1
    83    21    18    1
    84    19    22   am
    85    19    18    1
    86    10    11    1
    87    11    14    1
    88   106   104   am
    89    57    58    2
    90    30    33    1
    91    30    29    1
    92    18    17    1
    93    33    34    1
    94    94    96    1
    95    94    91    1
    96    90    91    1
    97   104   105    2
    98   104   103    1
    99    14    15    1
   100    14    16    1
   101    91    92    1
   102   103   102    1
   103    93    92    2
   104   102    99    1
   105    98    99    1
   106    99   100    1
   107   100   101    2
