@<TRIPOS>MOLECULE
tmp/6bkfA00.pdb
 172 161 0 0 0
SMALL
GASTEIGER

@<TRIPOS>ATOM
      1  N         29.1620  -24.9320   -1.0120 N.3   229  LEU229     -0.1231
      2  CA        28.9380  -24.1140    0.1720 C.3   229  LEU229      0.1693
      3  C         29.9690  -22.9950    0.2620 C.2   229  LEU229      0.2591
      4  O         30.8530  -22.8840   -0.5890 O.2   229  LEU229     -0.2718
      5  CB        28.9860  -24.9900    1.4260 C.3   229  LEU229      0.0284
      6  CG        28.0730  -26.2160    1.3820 C.3   229  LEU229      0.0019
      7  CD1       28.3490  -27.1370    2.5570 C.3   229  LEU229      0.0001
      8  CD2       26.6110  -25.7940    1.3570 C.3   229  LEU229      0.0001
      9  N         29.8490  -22.1710    1.3010 N.am  230  ALA230     -0.1980
     10  CA        30.7410  -21.0350    1.4970 C.3   230  ALA230      0.1597
     11  C         31.3330  -21.0400    2.8980 C.2   230  ALA230      0.2287
     12  O         30.6090  -21.1450    3.8860 O.2   230  ALA230     -0.2864
     13  CB        29.9990  -19.7370    1.2470 C.3   230  ALA230      0.0319
     14  N         27.6070  -10.4530   -3.8040 N.3   250  GLU250     -0.1231
     15  CA        26.1600  -10.6040   -3.9230 C.3   250  GLU250      0.1699
     16  C         25.5330  -10.7900   -2.5460 C.2   250  GLU250      0.2593
     17  O         26.2170  -10.9870   -1.5380 O.2   250  GLU250     -0.2718
     18  CB        25.7660  -11.7400   -4.8750 C.3   250  GLU250      0.0402
     19  CG        26.4580  -13.0720   -4.7090 C.3   250  GLU250      0.1161
     20  CD        25.9850  -14.0660   -5.7720 C.2   250  GLU250      0.3649
     21  OE1       25.1160  -13.6850   -6.5960 O.co2 250  GLU250     -0.2457
     22  OE2       26.4640  -15.2220   -5.7950 O.co2 250  GLU250     -0.2457
     23  N         24.2110  -10.6840   -2.5240 N.am  251  THR251     -0.1939
     24  CA        23.4510  -10.5420   -1.2910 C.3   251  THR251      0.2028
     25  C         23.2770  -11.8910   -0.6130 C.2   251  THR251      0.2642
     26  O         23.1270  -12.9050   -1.2910 O.2   251  THR251     -0.2714
     27  CB        22.0920   -9.9190   -1.6230 C.3   251  THR251      0.1808
     28  OG1       21.7200  -10.2840   -2.9610 O.3   251  THR251     -0.2208
     29  CG2       22.1490   -8.3800   -1.5370 C.3   251  THR251      0.0379
     30  N         23.2840  -11.9320    0.7170 N.am  252  LYS252     -0.1963
     31  CA        23.2210  -13.2180    1.4220 C.3   252  LYS252      0.1728
     32  C         21.7950  -13.4420    1.9260 C.2   252  LYS252      0.2616
     33  O         21.4070  -12.9280    2.9770 O.2   252  LYS252     -0.2715
     34  CB        24.2340  -13.2260    2.5600 C.3   252  LYS252      0.0311
     35  CG        24.3650  -14.5210    3.3190 C.3   252  LYS252      0.0038
     36  CD        25.3260  -14.3350    4.4750 C.3   252  LYS252      0.0206
     37  CE        25.4790  -15.6040    5.2670 C.3   252  LYS252      0.1093
     38  NZ        24.2570  -15.9630    6.0030 N.3   252  LYS252     -0.1314
     39  N         21.0570  -14.3010    1.2210 N.am  253  LEU253     -0.1963
     40  CA        19.6150  -14.4710    1.3660 C.3   253  LEU253      0.1728
     41  C         19.3270  -15.4850    2.4510 C.2   253  LEU253      0.2616
     42  O         20.0510  -16.4720    2.5390 O.2   253  LEU253     -0.2715
     43  CB        19.0020  -14.9470    0.0460 C.3   253  LEU253      0.0311
     44  CG        19.1670  -13.9990   -1.1400 C.3   253  LEU253      0.0022
     45  CD1       18.8730  -14.7140   -2.4510 C.3   253  LEU253      0.0001
     46  CD2       18.2620  -12.7930   -0.9650 C.3   253  LEU253      0.0001
     47  N         18.2970  -15.2900    3.2780 N.am  254  ASP254     -0.1971
     48  CA        17.8250  -16.4530    4.0090 C.3   254  ASP254      0.1709
     49  C         16.5700  -16.9020    3.3160 C.2   254  ASP254      0.2293
     50  O         15.4820  -16.3610    3.5030 O.2   254  ASP254     -0.2864
     51  CB        17.5520  -16.1290    5.4750 C.3   254  ASP254      0.1436
     52  CG        18.7370  -16.1880    6.3740 C.2   254  ASP254      0.3671
     53  OD1       19.8120  -16.5710    5.9620 O.co2 254  ASP254     -0.2456
     54  OD2       18.5070  -15.8610    7.6080 O.co2 254  ASP254     -0.2456
     55  N         17.8370  -23.7050    0.5020 N.3   257  ARG257     -0.1245
     56  CA        18.6850  -24.0090   -0.6460 C.3   257  ARG257      0.1563
     57  C         17.9760  -25.0400   -1.5110 C.2   257  ARG257      0.2260
     58  O         17.7170  -26.1580   -1.0630 O.2   257  ARG257     -0.2867
     59  CB        20.0590  -24.5250   -0.1920 C.3   257  ARG257      0.0307
     60  CG        21.0830  -24.7340   -1.3080 C.3   257  ARG257      0.0489
     61  CD        21.5960  -23.4150   -1.8560 C.3   257  ARG257      0.2205
     62  NE        22.7300  -23.5900   -2.7640 N.pl3 257  ARG257     -0.0865
     63  CZ        24.0060  -23.6290   -2.3860 C.cat 257  ARG257      0.5346
     64  NH1       24.3410  -23.5140   -1.1050 N.pl3 257  ARG257      0.1354
     65  NH2       24.9560  -23.7870   -3.2970 N.pl3 257  ARG257      0.1354
     66  N         18.8850  -29.1350    0.0750 N.3   272  ARG272     -0.1245
     67  CA        20.3080  -29.1280    0.3790 C.3   272  ARG272      0.1563
     68  C         20.8320  -30.5350    0.5530 C.2   272  ARG272      0.2260
     69  O         21.8670  -30.8960   -0.0140 O.2   272  ARG272     -0.2867
     70  CB        20.5660  -28.3250    1.6390 C.3   272  ARG272      0.0307
     71  CG        21.9250  -28.5500    2.1810 C.3   272  ARG272      0.0489
     72  CD        22.2740  -27.4120    3.0720 C.3   272  ARG272      0.2205
     73  NE        23.6980  -27.3510    3.3500 N.pl3 272  ARG272     -0.0865
     74  CZ        24.2300  -26.4430    4.1560 C.cat 272  ARG272      0.5346
     75  NH1       23.4440  -25.5380    4.7430 N.pl3 272  ARG272      0.1354
     76  NH2       25.5360  -26.4490    4.3870 N.pl3 272  ARG272      0.1354
     77  N         18.2450  -20.0580   -4.1140 N.3   310  GLU310     -0.1245
     78  CA        17.6960  -19.9190   -2.7740 C.3   310  GLU310      0.1567
     79  C         16.2050  -19.5900   -2.8360 C.2   310  GLU310      0.2260
     80  O         15.8200  -18.5230   -3.3110 O.2   310  GLU310     -0.2867
     81  CB        18.4500  -18.8310   -2.0110 C.3   310  GLU310      0.0388
     82  CG        18.1880  -18.8530   -0.5210 C.3   310  GLU310      0.1160
     83  CD        18.9880  -19.9120    0.2180 C.2   310  GLU310      0.3649
     84  OE1       19.5830  -20.7880   -0.4410 O.co2 310  GLU310     -0.2457
     85  OE2       19.0150  -19.8630    1.4650 O.co2 310  GLU310     -0.2457
     86  N         20.9460  -18.1460   -8.3620 N.3   331  PHE331     -0.1241
     87  CA        22.3330  -17.7180   -8.5630 C.3   331  PHE331      0.1605
     88  C         23.2210  -18.6640   -9.3790 C.2   331  PHE331      0.2264
     89  O         24.4180  -18.3750   -9.4870 O.2   331  PHE331     -0.2867
     90  CB        23.0420  -17.4520   -7.2190 C.3   331  PHE331      0.0534
     91  CG        22.7760  -18.4750   -6.1660 C.ar  331  PHE331     -0.0203
     92  CD1       23.2690  -19.7560   -6.2850 C.ar  331  PHE331     -0.0042
     93  CD2       22.0450  -18.1420   -5.0410 C.ar  331  PHE331     -0.0042
     94  CE1       23.0280  -20.6880   -5.3030 C.ar  331  PHE331     -0.0003
     95  CE2       21.7920  -19.0640   -4.0600 C.ar  331  PHE331     -0.0003
     96  CZ        22.2790  -20.3370   -4.1860 C.ar  331  PHE331     -0.0000
     97  N         19.7040  -13.3230   -8.8000 N.3   367  VAL367     -0.1245
     98  CA        20.3650  -12.5850   -7.7320 C.3   367  VAL367      0.1561
     99  C         21.2760  -11.5120   -8.3280 C.2   367  VAL367      0.2260
    100  O         21.9650  -11.7490   -9.3220 O.2   367  VAL367     -0.2867
    101  CB        21.1820  -13.5240   -6.8150 C.3   367  VAL367      0.0252
    102  CG1       21.8280  -12.7370   -5.6810 C.3   367  VAL367      0.0019
    103  CG2       20.2900  -14.6260   -6.2550 C.3   367  VAL367      0.0019
    104  N         21.7430  -10.6830    6.7640 N.3   391  GLU391     -0.1245
    105  CA        22.5950  -11.3490    7.7370 C.3   391  GLU391      0.1567
    106  C         24.0830  -11.2370    7.4130 C.2   391  GLU391      0.2260
    107  O         24.9150  -11.7240    8.1850 O.2   391  GLU391     -0.2867
    108  CB        22.1840  -12.8210    7.8490 C.3   391  GLU391      0.0388
    109  CG        20.9000  -13.0550    8.6280 C.3   391  GLU391      0.1160
    110  CD        20.7910  -14.4890    9.1530 C.2   391  GLU391      0.3649
    111  OE1       21.5420  -15.3810    8.6750 O.co2 391  GLU391     -0.2457
    112  OE2       19.9550  -14.7240   10.0550 O.co2 391  GLU391     -0.2457
    113  N         27.8670  -12.0530    0.5720 N.3   394  MET394     -0.1245
    114  CA        28.5260  -13.1600   -0.1010 C.3   394  MET394      0.1570
    115  C         29.5410  -12.5940   -1.0750 C.2   394  MET394      0.2261
    116  O         29.2760  -11.5870   -1.7440 O.2   394  MET394     -0.2867
    117  CB        27.5310  -14.0490   -0.8680 C.3   394  MET394      0.0387
    118  CG        26.3600  -14.5830   -0.0570 C.3   394  MET394      0.0595
    119  SD        26.8530  -15.9460    0.9910 S.3   394  MET394     -0.1393
    120  CE        26.9200  -17.2760   -0.2160 C.3   394  MET394      0.0692
    121  N         32.4650  -13.8860   -4.1050 N.3   396  LYS396     -0.1245
    122  CA        32.8060  -15.0210   -4.9600 C.3   396  LYS396      0.1561
    123  C         33.8370  -14.7290   -6.0540 C.2   396  LYS396      0.2260
    124  O         33.8460  -13.6510   -6.6680 O.2   396  LYS396     -0.2867
    125  CB        31.5350  -15.5650   -5.6170 C.3   396  LYS396      0.0271
    126  CG        30.5100  -16.0890   -4.6300 C.3   396  LYS396      0.0035
    127  CD        29.3250  -16.7070   -5.3440 C.3   396  LYS396      0.0206
    128  CE        28.2770  -17.1990   -4.3580 C.3   396  LYS396      0.1093
    129  NZ        27.0420  -17.6810   -5.0390 N.3   396  LYS396     -0.1314
    130  N         32.7840  -26.6140    1.0940 N.3   407  ARG407     -0.1245
    131  CA        32.7160  -25.3400    1.8070 C.3   407  ARG407      0.1563
    132  C         33.9810  -24.5230    1.5120 C.2   407  ARG407      0.2260
    133  O         35.0910  -25.0580    1.5380 O.2   407  ARG407     -0.2867
    134  CB        32.5450  -25.6030    3.3120 C.3   407  ARG407      0.0307
    135  CG        32.5320  -24.3700    4.2100 C.3   407  ARG407      0.0489
    136  CD        31.1420  -24.0240    4.6610 C.3   407  ARG407      0.2205
    137  NE        30.6520  -24.9170    5.7080 N.pl3 407  ARG407     -0.0865
    138  CZ        29.4020  -24.9170    6.1870 C.cat 407  ARG407      0.5346
    139  NH1       28.4820  -24.0730    5.7180 N.pl3 407  ARG407      0.1354
    140  NH2       29.0760  -25.7750    7.1450 N.pl3 407  ARG407      0.1354
    141  N         34.0230  -19.5800   -2.6480 N.3   411  TRP411     -0.1241
    142  CA        32.8270  -18.9220   -2.1150 C.3   411  TRP411      0.1605
    143  C         33.0530  -18.5020   -0.6670 C.2   411  TRP411      0.2264
    144  O         33.4550  -19.3200    0.1630 O.2   411  TRP411     -0.2867
    145  CB        31.6030  -19.8410   -2.1960 C.3   411  TRP411      0.0550
    146  CG        31.1070  -20.0970   -3.5840 C.ar  411  TRP411      0.0003
    147  CD1       31.7780  -19.8870   -4.7540 C.ar  411  TRP411      0.0946
    148  CD2       29.8190  -20.6060   -3.9460 C.ar  411  TRP411      0.0152
    149  NE1       30.9870  -20.2400   -5.8220 N.ar  411  TRP411     -0.2442
    150  CE2       29.7800  -20.6830   -5.3520 C.ar  411  TRP411      0.0810
    151  CE3       28.6970  -21.0060   -3.2150 C.ar  411  TRP411      0.0012
    152  CZ2       28.6600  -21.1450   -6.0420 C.ar  411  TRP411      0.0191
    153  CZ3       27.5890  -21.4640   -3.9020 C.ar  411  TRP411      0.0001
    154  CH2       27.5770  -21.5290   -5.3000 C.ar  411  TRP411      0.0015
    155  N         31.3710  -16.1500    2.7720 N.3   413  LYS413     -0.1245
    156  CA        30.2510  -15.4420    3.3880 C.3   413  LYS413      0.1561
    157  C         30.7380  -14.6120    4.5730 C.2   413  LYS413      0.2260
    158  O         31.4050  -15.1270    5.4730 O.2   413  LYS413     -0.2867
    159  CB        29.1580  -16.4250    3.8320 C.3   413  LYS413      0.0271
    160  CG        29.6170  -17.5240    4.7830 C.3   413  LYS413      0.0035
    161  CD        28.4380  -18.3780    5.2420 C.3   413  LYS413      0.0206
    162  CE        28.8680  -19.4750    6.2110 C.3   413  LYS413      0.1093
    163  NZ        27.7150  -20.2570    6.7330 N.3   413  LYS413     -0.1314
    164  N         29.7740  -12.2040    7.7620 N.3   415  LYS415     -0.1245
    165  CA        28.8580  -11.7990    8.8080 C.3   415  LYS415      0.1561
    166  C         29.5860  -10.8820    9.7720 C.2   415  LYS415      0.2260
    167  O         30.8230  -10.8670    9.8200 O.2   415  LYS415     -0.2867
    168  CB        28.3330  -12.9980    9.6080 C.3   415  LYS415      0.0271
    169  CG        27.2470  -13.8140    8.9650 C.3   415  LYS415      0.0035
    170  CD        26.5290  -14.6210   10.0350 C.3   415  LYS415      0.0206
    171  CE        25.5540  -15.6130    9.4400 C.3   415  LYS415      0.1093
    172  NZ        26.2810  -16.7000    8.7390 N.3   415  LYS415     -0.1314
@<TRIPOS>BOND
     1    89    88    2
     2    88    87    1
     3   100    99    2
     4    97    98    1
     5    87    86    1
     6    87    90    1
     7    99    98    1
     8    98   101    1
     9    90    91    1
    10   101   103    1
    11   101   102    1
    12   124   123    2
    13    21    20   ar
    14    92    91   ar
    15    92    94   ar
    16    91    93   ar
    17   123   122    1
    18   152   150   ar
    19   152   154   ar
    20   149   150   ar
    21   149   147   ar
    22    22    20   ar
    23    20    19    1
    24   125   122    1
    25   125   126    1
    26   150   148   ar
    27   127   126    1
    28   127   128    1
    29    94    96   ar
    30   154   153   ar
    31    93    95   ar
    32   129   128    1
    33   122   121    1
    34    18    19    1
    35    18    15    1
    36   147   146   ar
    37    96    95   ar
    38    77    78    1
    39   148   146   ar
    40   148   151   ar
    41    15    14    1
    42    15    16    1
    43   153   151   ar
    44   146   145    1
    45    80    79    2
    46    65    63    1
    47    28    27    1
    48    79    78    1
    49    78    81    1
    50    62    63    2
    51    62    61    1
    52   141   142    1
    53    16    23   am
    54    16    17    2
    55    23    24    1
    56    45    44    1
    57    63    64    1
    58   145   142    1
    59   142   143    1
    60    81    82    1
    61    61    60    1
    62   116   115    2
    63    27    29    1
    64    27    24    1
    65    57    58    2
    66    57    56    1
    67    60    59    1
    68    24    25    1
    69    26    25    2
    70    44    46    1
    71    44    43    1
    72   115   114    1
    73     1     2    1
    74   117   114    1
    75   117   118    1
    76   143   144    2
    77    56    59    1
    78    56    55    1
    79    25    30   am
    80     4     3    2
    81    82    83    1
    82    84    83   ar
    83   120   119    1
    84   114   113    1
    85   118   119    1
    86    69    68    2
    87    43    40    1
    88    66    67    1
    89     2     3    1
    90     2     5    1
    91    83    85   ar
    92     3     9   am
    93    67    68    1
    94    67    70    1
    95    30    31    1
    96   130   131    1
    97    39    40    1
    98    39    32   am
    99    13    10    1
   100     9    10    1
   101     8     6    1
   102    40    41    1
   103     6     5    1
   104     6     7    1
   105    31    32    1
   106    31    34    1
   107    10    11    1
   108   132   133    2
   109   132   131    1
   110    70    71    1
   111   131   134    1
   112    32    33    2
   113    71    72    1
   114    41    42    2
   115    41    47   am
   116    34    35    1
   117   155   156    1
   118    11    12    2
   119    72    73    1
   120    47    48    1
   121   134   135    1
   122    49    50    2
   123    49    48    1
   124    35    36    1
   125    73    74    2
   126   156   159    1
   127   156   157    1
   128   159   160    1
   129    48    51    1
   130    74    76    1
   131    74    75    1
   132   135   136    1
   133    36    37    1
   134   157   158    2
   135   136   137    1
   136   160   161    1
   137   161   162    1
   138    37    38    1
   139    51    52    1
   140   137   138    2
   141   139   138    1
   142    53    52   ar
   143   138   140    1
   144   162   163    1
   145    52    54   ar
   146   104   105    1
   147   106   105    1
   148   106   107    2
   149   105   108    1
   150   164   165    1
   151   108   109    1
   152   109   110    1
   153   111   110   ar
   154   172   171    1
   155   165   168    1
   156   165   166    1
   157   169   168    1
   158   169   170    1
   159   110   112   ar
   160   171   170    1
   161   166   167    2
