@<TRIPOS>MOLECULE
tmp/6bkhA00.pdb
 214 204 0 0 0
SMALL
GASTEIGER

@<TRIPOS>ATOM
      1  N        103.4460  111.9550  -20.5480 N.3    12  GLU12      -0.1231
      2  CA       103.3200  112.9850  -19.5280 C.3    12  GLU12       0.1699
      3  C        101.8560  113.0520  -19.1090 C.2    12  GLU12       0.2592
      4  O        100.9670  112.9730  -19.9580 O.2    12  GLU12      -0.2718
      5  CB       103.7920  114.3440  -20.0720 C.3    12  GLU12       0.0402
      6  CG       105.2630  114.3820  -20.5910 C.3    12  GLU12       0.1161
      7  CD       106.3180  114.3280  -19.4820 C.2    12  GLU12       0.3649
      8  OE1      105.9190  114.4000  -18.3090 O.co2  12  GLU12      -0.2457
      9  OE2      107.5440  114.2010  -19.7740 O.co2  12  GLU12      -0.2457
     10  N        101.6040  113.1520  -17.7980 N.am   13  LEU13      -0.1980
     11  CA       100.2480  113.3320  -17.2850 C.3    13  LEU13       0.1596
     12  C        100.0420  114.6920  -16.6300 C.2    13  LEU13       0.2287
     13  O         98.9780  114.9330  -16.0530 O.2    13  LEU13      -0.2864
     14  CB        99.8840  112.2470  -16.2680 C.3    13  LEU13       0.0297
     15  CG        99.5240  110.8760  -16.7930 C.3    13  LEU13       0.0022
     16  CD1       99.2110  110.0250  -15.6010 C.3    13  LEU13       0.0001
     17  CD2       98.3390  110.9080  -17.7840 C.3    13  LEU13       0.0001
     18  N        101.1500  117.9060  -13.9150 N.3    15  THR15      -0.1203
     19  CA       101.8670  118.3150  -12.7180 C.3    15  THR15       0.1994
     20  C        100.8870  118.3970  -11.5610 C.2    15  THR15       0.2618
     21  O         99.7060  118.7130  -11.7480 O.2    15  THR15      -0.2717
     22  CB       102.5590  119.6780  -12.9190 C.3    15  THR15       0.1784
     23  OG1      103.6030  119.5300  -13.8820 O.3    15  THR15      -0.2211
     24  CG2      103.1800  120.1760  -11.6200 C.3    15  THR15       0.0376
     25  N        101.3770  118.0690  -10.3650 N.am   16  GLY16      -0.1942
     26  CA       100.5540  118.1610   -9.1780 C.3    16  GLY16       0.2014
     27  C        101.3460  118.7840   -8.0510 C.2    16  GLY16       0.2639
     28  O        102.3950  119.3720   -8.3010 O.2    16  GLY16      -0.2714
     29  N        100.8870  118.6220   -6.8050 N.am   17  GLN17      -0.1963
     30  CA       101.5270  119.3100   -5.6920 C.3    17  GLN17       0.1733
     31  C        102.9710  118.8580   -5.4860 C.2    17  GLN17       0.2616
     32  O        103.7490  119.5840   -4.8650 O.2    17  GLN17      -0.2715
     33  CB       100.6960  119.0980   -4.4280 C.3    17  GLN17       0.0408
     34  CG       101.1690  119.9300   -3.2370 C.3    17  GLN17       0.0908
     35  CD       100.9670  121.4230   -3.4550 C.2    17  GLN17       0.2608
     36  OE1       99.9900  121.8390   -4.0710 O.2    17  GLN17      -0.2717
     37  NE2      101.9010  122.2330   -2.9630 N.am   17  GLN17      -0.0878
     38  N        103.3420  117.6750   -5.9810 N.am   18  PHE18      -0.1974
     39  CA       104.7030  117.1700   -5.8790 C.3    18  PHE18       0.1639
     40  C        105.4490  117.1860   -7.2100 C.2    18  PHE18       0.2290
     41  O        106.4980  116.5440   -7.3320 O.2    18  PHE18      -0.2864
     42  CB       104.6860  115.7460   -5.3290 C.3    18  PHE18       0.0560
     43  CG       104.1750  115.6300   -3.9420 C.ar   18  PHE18      -0.0200
     44  CD1      104.6940  116.4090   -2.9100 C.ar   18  PHE18      -0.0042
     45  CD2      103.1780  114.7180   -3.6480 C.ar   18  PHE18      -0.0042
     46  CE1      104.2020  116.2660   -1.6110 C.ar   18  PHE18      -0.0003
     47  CE2      102.6900  114.5750   -2.3690 C.ar   18  PHE18      -0.0003
     48  CZ       103.1970  115.3470   -1.3420 C.ar   18  PHE18      -0.0000
     49  N        104.0230  114.1200  -12.9950 N.3    21  VAL21      -0.1245
     50  CA       103.4570  112.7780  -12.9450 C.3    21  VAL21       0.1561
     51  C        103.4500  112.2280  -14.3590 C.2    21  VAL21       0.2260
     52  O        103.0910  112.9410  -15.3040 O.2    21  VAL21      -0.2867
     53  CB       102.0270  112.7630  -12.3630 C.3    21  VAL21       0.0252
     54  CG1      101.4930  111.3640  -12.2960 C.3    21  VAL21       0.0019
     55  CG2      101.9960  113.4180  -10.9630 C.3    21  VAL21       0.0019
     56  N        100.3700  105.2060  -12.8550 N.3    33  ALA33      -0.1245
     57  CA       100.8220  106.5840  -12.7820 C.3    33  ALA33       0.1562
     58  C        102.0350  106.6370  -11.8740 C.2    33  ALA33       0.2260
     59  O        102.1060  105.9040  -10.8870 O.2    33  ALA33      -0.2867
     60  CB        99.7370  107.5100  -12.2540 C.3    33  ALA33       0.0290
     61  N        104.4260  109.3780   -9.8750 N.3    35  LYS35      -0.1245
     62  CA       104.7890  110.7160   -9.4350 C.3    35  LYS35       0.1561
     63  C        106.3010  110.7660   -9.2860 C.2    35  LYS35       0.2260
     64  O        106.8910  109.8790   -8.6730 O.2    35  LYS35      -0.2867
     65  CB       104.1510  111.0640   -8.0960 C.3    35  LYS35       0.0271
     66  CG       102.6510  110.9290   -7.9720 C.3    35  LYS35       0.0035
     67  CD       102.2640  111.5270   -6.6100 C.3    35  LYS35       0.0206
     68  CE       100.9150  111.0480   -6.1280 C.3    35  LYS35       0.1093
     69  NZ        99.8590  111.4690   -7.0530 N.3    35  LYS35      -0.1314
     70  N        101.1070  104.4180   -8.6620 N.3    79  THR79      -0.1203
     71  CA        99.7050  104.2600   -8.3230 C.3    79  THR79       0.1994
     72  C         98.9180  103.7540   -9.5120 C.2    79  THR79       0.2618
     73  O         99.3750  103.7770  -10.6560 O.2    79  THR79      -0.2717
     74  CB        99.0930  105.5780   -7.8720 C.3    79  THR79       0.1784
     75  OG1       99.2360  106.5290   -8.9370 O.3    79  THR79      -0.2211
     76  CG2       99.7820  106.1160   -6.6480 C.3    79  THR79       0.0376
     77  N         97.6770  103.3780   -9.2190 N.am   80  GLU80      -0.1965
     78  CA        96.7700  102.8080  -10.1960 C.3    80  GLU80       0.1733
     79  C         96.3630  103.8510  -11.2360 C.2    80  GLU80       0.2616
     80  O         95.8480  104.9100  -10.8960 O.2    80  GLU80      -0.2715
     81  CB        95.5570  102.2600   -9.4460 C.3    80  GLU80       0.0429
     82  CG        94.3920  101.7860  -10.2730 C.3    80  GLU80       0.1163
     83  CD        93.1490  101.3470   -9.4180 C.2    80  GLU80       0.3649
     84  OE1       92.1270  100.9110  -10.0250 O.co2  80  GLU80      -0.2457
     85  OE2       93.1750  101.4180   -8.1480 O.co2  80  GLU80      -0.2457
     86  N         96.5760  103.5350  -12.5060 N.am   81  TYR81      -0.1960
     87  CA        96.2220  104.4510  -13.5890 C.3    81  TYR81       0.1771
     88  C         94.7200  104.4630  -13.8260 C.2    81  TYR81       0.2619
     89  O         94.0690  103.4150  -13.8080 O.2    81  TYR81      -0.2715
     90  CB        96.9190  104.0490  -14.8840 C.3    81  TYR81       0.0574
     91  CG        96.6380  104.9960  -16.0290 C.ar   81  TYR81      -0.0198
     92  CD1       97.0880  106.3260  -16.0040 C.ar   81  TYR81      -0.0009
     93  CD2       95.8990  104.5820  -17.1160 C.ar   81  TYR81      -0.0009
     94  CE1       96.8050  107.1860  -17.0610 C.ar   81  TYR81       0.0417
     95  CE2       95.6330  105.4210  -18.1650 C.ar   81  TYR81       0.0417
     96  CZ        96.0680  106.7180  -18.1320 C.ar   81  TYR81       0.1957
     97  OH        95.7820  107.5440  -19.1850 O.3    81  TYR81      -0.2866
     98  N         94.1840  105.6610  -14.0790 N.am   82  MET82      -0.1963
     99  CA        92.7580  105.8750  -14.2810 C.3    82  MET82       0.1736
    100  C         92.6050  106.6520  -15.5790 C.2    82  MET82       0.2616
    101  O         92.9820  107.8270  -15.6460 O.2    82  MET82      -0.2715
    102  CB        92.1560  106.6090  -13.0880 C.3    82  MET82       0.0427
    103  CG        92.4490  105.8970  -11.7560 C.3    82  MET82       0.0599
    104  SD        91.3620  104.4720  -11.5520 S.3    82  MET82      -0.1393
    105  CE        89.8220  105.3050  -11.1080 C.3    82  MET82       0.0692
    106  N         92.0580  105.9910  -16.6090 N.am   83  ALA83      -0.1963
    107  CA        92.1860  106.4940  -17.9800 C.3    83  ALA83       0.1728
    108  C         91.4210  107.7930  -18.2060 C.2    83  ALA83       0.2616
    109  O         91.8080  108.5810  -19.0760 O.2    83  ALA83      -0.2715
    110  CB        91.7320  105.4250  -18.9830 C.3    83  ALA83       0.0334
    111  N         90.3490  108.0590  -17.4450 N.am   84  ASN84      -0.1958
    112  CA        89.5410  109.2530  -17.6780 C.3    84  ASN84       0.1819
    113  C         89.9470  110.4380  -16.7940 C.2    84  ASN84       0.2621
    114  O         89.2790  111.4770  -16.8130 O.2    84  ASN84      -0.2715
    115  CB        88.0530  108.9140  -17.5040 C.3    84  ASN84       0.1195
    116  CG        87.4260  108.4600  -18.8020 C.2    84  ASN84       0.2630
    117  OD1       87.5100  109.1460  -19.8210 O.2    84  ASN84      -0.2716
    118  ND2       86.8280  107.3020  -18.7840 N.am   84  ASN84      -0.0877
    119  N         91.0540  110.3320  -16.0790 N.am   85  GLY85      -0.1954
    120  CA        91.5630  111.4620  -15.3370 C.3    85  GLY85       0.1869
    121  C         90.7040  111.8460  -14.1510 C.2    85  GLY85       0.2309
    122  O         89.9030  111.0560  -13.6420 O.2    85  GLY85      -0.2863
    123  N         91.6410  111.4640    4.7370 N.3   123  HIS123     -0.1241
    124  CA        92.0600  111.9410    3.4330 C.3   123  HIS123      0.1621
    125  C         92.7740  113.2800    3.5570 C.2   123  HIS123      0.2264
    126  O         93.9230  113.4280    3.1300 O.2   123  HIS123     -0.2867
    127  CB        90.8520  112.0460    2.5020 C.3   123  HIS123      0.0745
    128  CG        91.2440  112.2590    1.0820 C.ar  123  HIS123      0.0817
    129  ND1       91.9910  113.3430    0.6780 N.ar  123  HIS123     -0.2268
    130  CD2       91.0770  111.4780   -0.0190 C.ar  123  HIS123      0.1154
    131  CE1       92.2390  113.2380   -0.6190 C.ar  123  HIS123      0.1986
    132  NE2       91.6910  112.1230   -1.0620 N.ar  123  HIS123     -0.2212
    133  N         92.1800  116.0870    1.9730 N.3   125  ASP125     -0.1239
    134  CA        91.9540  116.9560    0.8120 C.3   125  ASP125      0.1674
    135  C         90.9840  116.2860   -0.1610 C.2   125  ASP125      0.2266
    136  O         91.2250  116.1650   -1.3640 O.2   125  ASP125     -0.2867
    137  CB        93.2970  117.3150    0.1810 C.3   125  ASP125      0.1410
    138  CG        93.2240  118.4890   -0.7760 C.2   125  ASP125      0.3668
    139  OD1       92.1500  119.0700   -0.9780 O.co2 125  ASP125     -0.2456
    140  OD2       94.2640  118.8070   -1.3820 O.co2 125  ASP125     -0.2456
    141  N         88.6560  117.1080   -7.6290 N.3   129  ARG129     -0.1231
    142  CA        89.9610  117.1220   -8.2780 C.3   129  ARG129      0.1694
    143  C         90.8460  116.0070   -7.7740 C.2   129  ARG129      0.2592
    144  O         91.8010  115.6200   -8.4520 O.2   129  ARG129     -0.2718
    145  CB        90.6830  118.4620   -8.0530 C.3   129  ARG129      0.0321
    146  CG        90.9890  118.7620   -6.5850 C.3   129  ARG129      0.0489
    147  CD        91.7600  120.0730   -6.3650 C.3   129  ARG129      0.2205
    148  NE        91.7900  120.2770   -4.9190 N.pl3 129  ARG129     -0.0865
    149  CZ        90.7810  120.8000   -4.2260 C.cat 129  ARG129      0.5346
    150  NH1       90.8310  120.8510   -2.9160 N.pl3 129  ARG129      0.1354
    151  NH2       89.7230  121.2950   -4.8330 N.pl3 129  ARG129      0.1354
    152  N         90.5630  115.4920   -6.5860 N.am  130  ASN130     -0.1974
    153  CA        91.3280  114.3920   -5.9900 C.3   130  ASN130      0.1688
    154  C         90.5370  113.0860   -5.9800 C.2   130  ASN130      0.2292
    155  O         90.6670  112.2560   -5.0690 O.2   130  ASN130     -0.2864
    156  CB        91.7800  114.7830   -4.5910 C.3   130  ASN130      0.1181
    157  CG        92.8160  115.9000   -4.6190 C.2   130  ASN130      0.2629
    158  OD1       93.6260  115.9970   -5.5510 O.2   130  ASN130     -0.2716
    159  ND2       92.8030  116.7450   -3.6030 N.am  130  ASN130     -0.0877
    160  N         89.5630  110.1820   -9.2160 N.3   132  LEU132     -0.1245
    161  CA        89.8900  109.8240  -10.5880 C.3   132  LEU132      0.1561
    162  C         88.8190  108.8780  -11.1130 C.2   132  LEU132      0.2260
    163  O         88.0940  108.2450  -10.3410 O.2   132  LEU132     -0.2867
    164  CB        91.2750  109.1720  -10.6830 C.3   132  LEU132      0.0270
    165  CG        92.5030  110.0140  -10.2970 C.3   132  LEU132      0.0019
    166  CD1       93.7160  109.1450  -10.0710 C.3   132  LEU132      0.0001
    167  CD2       92.7740  111.0920  -11.3850 C.3   132  LEU132      0.0001
    168  N         91.5380  109.4750   -4.6500 N.3   142  SER142     -0.1202
    169  CA        92.9600  109.5090   -4.9590 C.3   142  SER142      0.2020
    170  C         93.7090  110.3990   -3.9790 C.2   142  SER142      0.2618
    171  O         93.1430  111.3270   -3.3970 O.2   142  SER142     -0.2717
    172  CB        93.1770  110.0010   -6.4070 C.3   142  SER142      0.2103
    173  OG        94.5410  110.2180   -6.7150 O.3   142  SER142     -0.2182
    174  N         94.9960  110.0840   -3.7880 N.am  143  ASP143     -0.1973
    175  CA        95.9300  110.9450   -3.0450 C.3   143  ASP143      0.1709
    176  C         95.5150  111.1680   -1.5870 C.2   143  ASP143      0.2293
    177  O         95.8550  112.1810   -0.9520 O.2   143  ASP143     -0.2864
    178  CB        96.1220  112.2570   -3.7920 C.3   143  ASP143      0.1436
    179  CG        96.7010  112.0280   -5.1790 C.2   143  ASP143      0.3671
    180  OD1       97.7690  111.3850   -5.2560 O.co2 143  ASP143     -0.2456
    181  OD2       96.0730  112.4140   -6.1740 O.co2 143  ASP143     -0.2456
    182  N         98.0720  112.3680    1.4580 N.3   146  LEU146     -0.1231
    183  CA        99.3210  112.9730    1.0080 C.3   146  LEU146      0.1693
    184  C         99.4360  114.4480    1.3930 C.2   146  LEU146      0.2592
    185  O        100.5510  114.9630    1.5090 O.2   146  LEU146     -0.2718
    186  CB        99.4620  112.8030   -0.5020 C.3   146  LEU146      0.0284
    187  CG        99.6580  111.3620   -0.9370 C.3   146  LEU146      0.0019
    188  CD1       99.7010  111.2540   -2.4540 C.3   146  LEU146      0.0001
    189  CD2      100.9260  110.7500   -0.3380 C.3   146  LEU146      0.0001
    190  N         98.3280  115.1410    1.6260 N.am  147  SER147     -0.1952
    191  CA        98.4410  116.5370    2.0510 C.3   147  SER147      0.1924
    192  C         99.3450  116.6770    3.2740 C.2   147  SER147      0.2314
    193  O        100.0300  117.6940    3.4330 O.2   147  SER147     -0.2863
    194  CB        97.0560  117.1130    2.3540 C.3   147  SER147      0.2116
    195  OG        96.7190  116.8990    3.7030 O.3   147  SER147     -0.2180
    196  N        103.0100  117.7740    2.2130 N.3   150  VAL150     -0.1245
    197  CA       103.2300  118.8550    1.2680 C.3   150  VAL150      0.1561
    198  C        104.0380  119.9410    1.9520 C.2   150  VAL150      0.2260
    199  O        103.6660  120.4200    3.0280 O.2   150  VAL150     -0.2867
    200  CB       101.8840  119.3940    0.7510 C.3   150  VAL150      0.0252
    201  CG1      102.0720  120.6490   -0.0840 C.3   150  VAL150      0.0019
    202  CG2      101.1650  118.3300   -0.0900 C.3   150  VAL150      0.0019
    203  N         99.9530  126.0060    0.4340 N.3   155  TYR155     -0.1241
    204  CA        99.0410  124.8750    0.5810 C.3   155  TYR155      0.1605
    205  C         98.7640  124.5110    2.0340 C.2   155  TYR155      0.2264
    206  O         97.6470  124.1120    2.3540 O.2   155  TYR155     -0.2867
    207  CB        99.6130  123.6550   -0.1320 C.3   155  TYR155      0.0534
    208  CG        98.7500  122.4210   -0.0260 C.ar  155  TYR155     -0.0201
    209  CD1       97.7650  122.1600   -0.9680 C.ar  155  TYR155     -0.0009
    210  CD2       98.9060  121.5290    1.0300 C.ar  155  TYR155     -0.0009
    211  CE1       96.9620  121.0360   -0.8750 C.ar  155  TYR155      0.0417
    212  CE2       98.1250  120.4060    1.1300 C.ar  155  TYR155      0.0417
    213  CZ        97.1480  120.1620    0.1680 C.ar  155  TYR155      0.1957
    214  OH        96.3630  119.0440    0.2720 O.3   155  TYR155     -0.2866
@<TRIPOS>BOND
     1     6     5    1
     2     6     7    1
     3     1     2    1
     4     5     2    1
     5     4     3    2
     6   117   116    2
     7     9     7   ar
     8     2     3    1
     9     7     8   ar
    10    97    96    1
    11     3    10   am
    12   109   108    2
    13   110   107    1
    14   116   118   am
    15   116   115    1
    16   108   107    1
    17   108   111   am
    18    95    96   ar
    19    95    93   ar
    20    96    94   ar
    21   107   106    1
    22    10    11    1
    23    17    15    1
    24   112   115    1
    25   112   111    1
    26   112   113    1
    27    11    12    1
    28    11    14    1
    29    93    91   ar
    30    94    92   ar
    31   114   113    2
    32   113   119   am
    33    15    14    1
    34    15    16    1
    35    12    13    2
    36   106   100   am
    37   119   120    1
    38    91    92   ar
    39    91    90    1
    40   101   100    2
    41   100    99    1
    42   120   121    1
    43    52    51    2
    44    90    87    1
    45    51    50    1
    46    99    98    1
    47    99   102    1
    48   121   122    2
    49    98    88   am
    50    18    19    1
    51    23    22    1
    52    88    89    2
    53    88    87    1
    54    87    86    1
    55   102   103    1
    56    49    50    1
    57    50    53    1
    58    22    19    1
    59    22    24    1
    60    56    57    1
    61    57    60    1
    62    57    58    1
    63    19    20    1
    64    86    79   am
    65    53    54    1
    66    53    55    1
    67    58    59    2
    68   103   104    1
    69    21    20    2
    70    20    25   am
    71   104   105    1
    72   167   165    1
    73    79    80    2
    74    79    78    1
    75   162   161    1
    76   162   163    2
    77   164   161    1
    78   164   165    1
    79    73    72    2
    80   161   160    1
    81    25    26    1
    82   165   166    1
    83    82    81    1
    84    82    83    1
    85    78    81    1
    86    78    77    1
    87    84    83   ar
    88    61    62    1
    89    72    77   am
    90    72    71    1
    91    62    63    1
    92    62    65    1
    93    83    85   ar
    94    63    64    2
    95    26    27    1
    96    75    74    1
    97    70    71    1
    98   144   143    2
    99    71    74    1
   100    28    27    2
   101   142   145    1
   102   142   143    1
   103   142   141    1
   104    65    66    1
   105   145   146    1
   106    27    29   am
   107    66    67    1
   108    74    76    1
   109   143   152   am
   110    41    40    2
   111    40    39    1
   112    69    68    1
   113    29    30    1
   114   173   172    1
   115    67    68    1
   116   152   153    1
   117   146   147    1
   118   172   169    1
   119   147   148    1
   120   181   179   ar
   121   153   154    1
   122   153   156    1
   123    38    39    1
   124    38    31   am
   125   154   155    2
   126    39    42    1
   127    30    31    1
   128    30    33    1
   129   158   157    2
   130    31    32    2
   131    42    43    1
   132   180   179   ar
   133   179   178    1
   134   169   168    1
   135   169   170    1
   136   148   149    2
   137   151   149    1
   138   157   156    1
   139   157   159   am
   140    33    34    1
   141   149   150    1
   142    36    35    2
   143   170   174   am
   144   170   171    2
   145    43    45   ar
   146    43    44   ar
   147   178   175    1
   148   174   175    1
   149    45    47   ar
   150    35    34    1
   151    35    37   am
   152   175   176    1
   153    44    46   ar
   154   188   187    1
   155    47    48   ar
   156    46    48   ar
   157   176   177    2
   158   140   138   ar
   159   136   135    2
   160   132   131   ar
   161   132   130   ar
   162   139   138   ar
   163   209   211   ar
   164   209   208   ar
   165   187   186    1
   166   187   189    1
   167   211   213   ar
   168   138   137    1
   169   131   129   ar
   170   186   183    1
   171   135   134    1
   172   207   208    1
   173   207   204    1
   174   202   200    1
   175   201   200    1
   176   208   210   ar
   177   130   128   ar
   178   213   214    1
   179   213   212   ar
   180   137   134    1
   181   203   204    1
   182   204   205    1
   183   129   128   ar
   184   200   197    1
   185   134   133    1
   186   183   184    1
   187   183   182    1
   188   210   212   ar
   189   128   127    1
   190   197   198    1
   191   197   196    1
   192   184   185    2
   193   184   190   am
   194   190   191    1
   195   198   199    2
   196   205   206    2
   197   191   194    1
   198   191   192    1
   199   194   195    1
   200   127   124    1
   201   126   125    2
   202   192   193    2
   203   124   125    1
   204   124   123    1
