@<TRIPOS>MOLECULE
tmp/6bkjD00.pdb
 130 125 0 0 0
SMALL
GASTEIGER

@<TRIPOS>ATOM
      1  N         14.1150   98.4090   14.3340 N.3    67  GLN67      -0.1245
      2  CA        13.8100   97.3660   13.3550 C.3    67  GLN67       0.1566
      3  C         14.1020   95.9680   13.8750 C.2    67  GLN67       0.2260
      4  O         15.0500   95.7680   14.6370 O.2    67  GLN67      -0.2867
      5  CB        14.5840   97.6200   12.0570 C.3    67  GLN67       0.0367
      6  CG        14.0880   96.7990   10.8620 C.3    67  GLN67       0.0905
      7  CD        14.4570   97.3990    9.5040 C.2    67  GLN67       0.2608
      8  OE1       14.8140   98.5760    9.3990 O.2    67  GLN67      -0.2717
      9  NE2       14.4720   96.5710    8.4770 N.am   67  GLN67      -0.0878
     10  N         12.6700   93.4100    6.6810 N.3    71  GLY71      -0.1225
     11  CA        13.2170   94.5810    6.0210 C.3    71  GLY71       0.1811
     12  C         12.2970   95.7510    5.7660 C.2    71  GLY71       0.2280
     13  O         12.2890   96.2740    4.6730 O.2    71  GLY71      -0.2866
     14  N         12.3560   99.0320    6.5720 N.3    73  CYS73      -0.1221
     15  CA        12.9190  100.3390    6.8880 C.3    73  CYS73       0.1808
     16  C         12.0740  101.4980    6.3800 C.2    73  CYS73       0.2601
     17  O         11.7560  102.4010    7.1240 O.2    73  CYS73      -0.2717
     18  CB        14.3070  100.4650    6.2960 C.3    73  CYS73       0.0970
     19  SG        14.3380  100.1230    4.5720 S.3    73  CYS73      -0.0800
     20  N         11.6070  101.3710    5.1370 N.am   74  TRP74      -0.1976
     21  CA        10.8120  102.3930    4.5240 C.3    74  TRP74       0.1640
     22  C          9.6140  102.8430    5.3480 C.2    74  TRP74       0.2290
     23  O          9.1870  103.9560    5.2670 O.2    74  TRP74      -0.2864
     24  CB        10.3400  101.9290    3.1520 C.3    74  TRP74       0.0576
     25  CG         9.5600  100.6820    3.1890 C.ar   74  TRP74       0.0006
     26  CD1       10.0360   99.4180    3.2640 C.ar   74  TRP74       0.0946
     27  CD2        8.1510  100.5850    3.2160 C.ar   74  TRP74       0.0152
     28  NE1        8.9980   98.5320    3.3020 N.ar   74  TRP74      -0.2442
     29  CE2        7.8280   99.2270    3.2680 C.ar   74  TRP74       0.0810
     30  CE3        7.1160  101.5150    3.1660 C.ar   74  TRP74       0.0012
     31  CZ2        6.5260   98.7730    3.2950 C.ar   74  TRP74       0.0191
     32  CZ3        5.8260  101.0740    3.1920 C.ar   74  TRP74       0.0001
     33  CH2        5.5340   99.7140    3.2510 C.ar   74  TRP74       0.0015
     34  N          8.0510   93.7520    3.2120 N.3   164  LYS164     -0.1231
     35  CA         9.4350   93.5380    2.8760 C.3   164  LYS164      0.1693
     36  C          9.8920   94.3720    1.7040 C.2   164  LYS164      0.2593
     37  O         10.1630   93.8550    0.6120 O.2   164  LYS164     -0.2718
     38  CB         9.6410   92.0600    2.5300 C.3   164  LYS164      0.0285
     39  CG         9.5090   91.1240    3.7040 C.3   164  LYS164      0.0035
     40  CD         9.5450   89.6750    3.2490 C.3   164  LYS164      0.0206
     41  CE        10.9360   89.2920    2.7220 C.3   164  LYS164      0.1093
     42  NZ        11.0410   87.8690    2.3360 N.3   164  LYS164     -0.1314
     43  N         10.0340   95.6670    1.9210 N.am  165  GLY165     -0.1942
     44  CA        10.5290   96.5490    0.8790 C.3   165  GLY165      0.2014
     45  C          9.4270   97.3900    0.2810 C.2   165  GLY165      0.2639
     46  O          8.3400   96.9080   -0.0300 O.2   165  GLY165     -0.2714
     47  N          9.7170   98.6740    0.1250 N.am  166  GLY166     -0.1939
     48  CA         8.7490   99.6260   -0.4030 C.3   166  GLY166      0.2014
     49  C          9.3580  101.0100   -0.3830 C.2   166  GLY166      0.2639
     50  O         10.5850  101.1570   -0.2750 O.2   166  GLY166     -0.2714
     51  N          8.5350  102.0150   -0.6090 N.am  167  ASN167     -0.1958
     52  CA         9.0460  103.3650   -0.6180 C.3   167  ASN167      0.1819
     53  C          8.4570  104.0780    0.5640 C.2   167  ASN167      0.2621
     54  O          7.2750  104.0190    0.7810 O.2   167  ASN167     -0.2715
     55  CB         8.6990  104.0630   -1.9090 C.3   167  ASN167      0.1195
     56  CG         9.2730  105.4420   -1.9780 C.2   167  ASN167      0.2630
     57  OD1        9.3500  106.1420   -0.9630 O.2   167  ASN167     -0.2716
     58  ND2        9.6790  105.8490   -3.1640 N.am  167  ASN167     -0.0877
     59  N          9.2740  104.8420    1.2500 N.am  168  THR168     -0.1951
     60  CA         8.8140  105.5110    2.4540 C.3   168  THR168      0.1897
     61  C          7.6640  106.4390    2.2060 C.2   168  THR168      0.2313
     62  O          6.7610  106.5170    3.0350 O.2   168  THR168     -0.2863
     63  CB         9.9170  106.3730    3.0250 C.3   168  THR168      0.1794
     64  OG1       10.2060  107.3920    2.0820 O.3   168  THR168     -0.2208
     65  CG2       11.1440  105.5650    3.2780 C.3   168  THR168      0.0378
     66  N         17.9340  108.3470    1.2170 N.3   209  SER209     -0.1217
     67  CA        18.5530  107.0460    0.9590 C.3   209  SER209      0.1889
     68  C         19.6950  107.1260   -0.0480 C.2   209  SER209      0.2288
     69  O         19.7050  107.9620   -0.9260 O.2   209  SER209     -0.2866
     70  CB        17.5110  106.0790    0.4110 C.3   209  SER209      0.2089
     71  OG        17.3400  106.2970   -0.9760 O.3   209  SER209     -0.2183
     72  N         21.7800  104.6950   -2.7960 N.3   211  ASP211     -0.1239
     73  CA        21.4710  103.5010   -3.5810 C.3   211  ASP211      0.1674
     74  C         22.5620  102.7370   -4.2940 C.2   211  ASP211      0.2266
     75  O         23.4900  103.2850   -4.8540 O.2   211  ASP211     -0.2867
     76  CB        20.4740  103.8530   -4.6790 C.3   211  ASP211      0.1410
     77  CG        19.1170  104.2120   -4.1520 C.2   211  ASP211      0.3668
     78  OD1       18.8550  103.9700   -2.9610 O.co2 211  ASP211     -0.2456
     79  OD2       18.3160  104.7580   -4.9370 O.co2 211  ASP211     -0.2456
     80  N         20.8440  101.3470    0.1540 N.3   224  GLY224     -0.1210
     81  CA        19.4930  100.9130   -0.0910 C.3   224  GLY224      0.1956
     82  C         18.7570  100.8910    1.2190 C.2   224  GLY224      0.2612
     83  O         18.2440   99.8480    1.6340 O.2   224  GLY224     -0.2717
     84  N         18.8580  101.9870    1.9610 N.am  225  HIS225     -0.1961
     85  CA        18.3150  101.9800    3.3050 C.3   225  HIS225      0.1787
     86  C         17.7410  103.3090    3.6690 C.2   225  HIS225      0.2620
     87  O         18.4130  104.3180    3.5840 O.2   225  HIS225     -0.2715
     88  CB        19.3960  101.5780    4.2950 C.3   225  HIS225      0.0785
     89  CG        18.8940  101.2200    5.6460 C.ar  225  HIS225      0.0821
     90  ND1       18.0250  100.1800    5.8880 N.ar  225  HIS225     -0.2267
     91  CD2       19.2320  101.7220    6.8540 C.ar  225  HIS225      0.1154
     92  CE1       17.8070  100.0880    7.1920 C.ar  225  HIS225      0.1986
     93  NE2       18.5310  101.0150    7.8010 N.ar  225  HIS225     -0.2212
     94  N         16.4930  103.3020    4.1150 N.am  226  ALA226     -0.1977
     95  CA        15.8100  104.5390    4.4450 C.3   226  ALA226      0.1597
     96  C         16.2700  105.1210    5.7680 C.2   226  ALA226      0.2287
     97  O         16.2320  104.4770    6.8010 O.2   226  ALA226     -0.2864
     98  CB        14.3340  104.3170    4.4820 C.3   226  ALA226      0.0319
     99  N         17.3060  101.1960   12.4230 N.3   251  TRP251     -0.1241
    100  CA        17.7930  100.0110   13.0920 C.3   251  TRP251      0.1605
    101  C         18.1060  100.4000   14.5140 C.2   251  TRP251      0.2264
    102  O         17.9060   99.6170   15.4270 O.2   251  TRP251     -0.2867
    103  CB        19.1160   99.5520   12.5110 C.3   251  TRP251      0.0550
    104  CG        19.0760   98.7740   11.2930 C.ar  251  TRP251      0.0003
    105  CD1       17.9820   98.3420   10.6320 C.ar  251  TRP251      0.0946
    106  CD2       20.1960   98.2640   10.5960 C.ar  251  TRP251      0.0152
    107  NE1       18.3490   97.6150    9.5270 N.ar  251  TRP251     -0.2442
    108  CE2       19.7100   97.5490    9.4870 C.ar  251  TRP251      0.0810
    109  CE3       21.5780   98.3520   10.7870 C.ar  251  TRP251      0.0012
    110  CZ2       20.5480   96.9250    8.5830 C.ar  251  TRP251      0.0191
    111  CZ3       22.4080   97.7390    9.8940 C.ar  251  TRP251      0.0001
    112  CH2       21.8980   97.0290    8.8010 C.ar  251  TRP251      0.0015
    113  N         19.1140  110.3840   -2.8750 N.3   301  LYS301     -0.1245
    114  CA        17.7200  110.7480   -3.0380 C.3   301  LYS301      0.1561
    115  C         17.1190  111.2880   -1.7770 C.2   301  LYS301      0.2260
    116  O         17.2270  110.6780   -0.7300 O.2   301  LYS301     -0.2867
    117  CB        16.9230  109.5640   -3.5250 C.3   301  LYS301      0.0271
    118  CG        15.4920  109.5520   -2.9970 C.3   301  LYS301      0.0035
    119  CD        14.5550  108.8430   -3.9250 C.3   301  LYS301      0.0206
    120  CE        15.1300  107.5290   -4.4430 C.3   301  LYS301      0.1093
    121  NZ        14.0920  106.6620   -5.0520 N.3   301  LYS301     -0.1314
    122  N         13.5370  112.7750   -0.1230 N.3   303  GLU303     -0.1245
    123  CA        12.1050  112.7950   -0.3320 C.3   303  GLU303      0.1567
    124  C         11.4220  113.4730    0.8140 C.2   303  GLU303      0.2260
    125  O         11.7190  113.2110    1.9610 O.2   303  GLU303     -0.2867
    126  CB        11.5870  111.3740   -0.4750 C.3   303  GLU303      0.0388
    127  CG        12.4260  110.4010    0.3080 C.3   303  GLU303      0.1160
    128  CD        12.1990  108.9710   -0.0980 C.2   303  GLU303      0.3649
    129  OE1       11.0390  108.5250   -0.0380 O.co2 303  GLU303     -0.2457
    130  OE2       13.1760  108.2810   -0.4700 O.co2 303  GLU303     -0.2457
@<TRIPOS>BOND
     1   121   120    1
     2    79    77   ar
     3    75    74    2
     4    76    77    1
     5    76    73    1
     6   120   119    1
     7    74    73    1
     8    77    78   ar
     9   119   118    1
    10    73    72    1
    11   117   114    1
    12   117   118    1
    13    58    56   am
    14   114   113    1
    15   114   115    1
    16    56    55    1
    17    56    57    2
    18    55    52    1
    19   115   116    2
    20    71    70    1
    21    69    68    2
    22    52    51    1
    23    52    53    1
    24    51    49   am
    25   126   123    1
    26   126   127    1
    27   130   128   ar
    28    48    49    1
    29    48    47    1
    30    49    50    2
    31   123   122    1
    32   123   124    1
    33   128   129   ar
    34   128   127    1
    35    81    80    1
    36    81    82    1
    37    68    67    1
    38    46    45    2
    39    47    45   am
    40    45    44    1
    41    70    67    1
    42    53    54    2
    43    53    59   am
    44    37    36    2
    45   124   125    2
    46    44    43    1
    47    67    66    1
    48    82    83    2
    49    82    84   am
    50    59    60    1
    51    36    43   am
    52    36    35    1
    53    84    85    1
    54    64    63    1
    55    61    60    1
    56    61    62    2
    57    42    41    1
    58    60    63    1
    59    38    35    1
    60    38    39    1
    61    41    40    1
    62    35    34    1
    63    63    65    1
    64    24    25    1
    65    24    21    1
    66    30    32   ar
    67    30    27   ar
    68    25    27   ar
    69    25    26   ar
    70    32    33   ar
    71    27    29   ar
    72    40    39    1
    73    33    31   ar
    74    26    28   ar
    75    29    31   ar
    76    29    28   ar
    77    85    86    1
    78    85    88    1
    79    87    86    2
    80    86    94   am
    81    94    95    1
    82    88    89    1
    83    95    98    1
    84    95    96    1
    85    21    20    1
    86    21    22    1
    87    19    18    1
    88    13    12    2
    89    20    16   am
    90    23    22    2
    91    89    90   ar
    92    89    91   ar
    93    12    11    1
    94    96    97    2
    95    90    92   ar
    96    11    10    1
    97    18    15    1
    98    16    15    1
    99    16    17    2
   100    14    15    1
   101    91    93   ar
   102    92    93   ar
   103     9     7   am
   104   110   112   ar
   105   110   108   ar
   106   112   111   ar
   107     8     7    2
   108   108   107   ar
   109   108   106   ar
   110     7     6    1
   111   107   105   ar
   112   111   109   ar
   113   106   109   ar
   114   106   104   ar
   115   105   104   ar
   116     6     5    1
   117   104   103    1
   118     5     2    1
   119    99   100    1
   120   103   100    1
   121   100   101    1
   122     2     3    1
   123     2     1    1
   124     3     4    2
   125   101   102    2
