@<TRIPOS>MOLECULE
tmp/6bktA03.pdb
 124 120 0 0 0
SMALL
GASTEIGER

@<TRIPOS>ATOM
      1  N        -49.4940    4.4540   88.8660 N.3    90  TYR90      -0.1241
      2  CA       -50.0800    5.4750   89.7320 C.3    90  TYR90       0.1605
      3  C        -50.7680    6.5420   88.8620 C.2    90  TYR90       0.2264
      4  O        -50.2230    6.9310   87.8250 O.2    90  TYR90      -0.2867
      5  CB       -49.0100    6.1300   90.6130 C.3    90  TYR90       0.0534
      6  CG       -49.5420    6.6380   91.9430 C.ar   90  TYR90      -0.0201
      7  CD1      -49.6760    5.7830   93.0320 C.ar   90  TYR90      -0.0009
      8  CD2      -49.9380    7.9720   92.1030 C.ar   90  TYR90      -0.0009
      9  CE1      -50.1610    6.2360   94.2540 C.ar   90  TYR90       0.0417
     10  CE2      -50.4250    8.4260   93.3270 C.ar   90  TYR90       0.0417
     11  CZ       -50.5280    7.5470   94.3980 C.ar   90  TYR90       0.1957
     12  OH       -50.9980    8.0010   95.6080 O.3    90  TYR90      -0.2866
     13  N        -40.7740    4.3830   97.3250 N.3   126  GLY126     -0.1210
     14  CA       -42.1820    4.1960   97.6140 C.3   126  GLY126      0.1956
     15  C        -42.9400    3.5130   96.4940 C.2   126  GLY126      0.2613
     16  O        -42.6680    3.7400   95.2930 O.2   126  GLY126     -0.2717
     17  N        -43.9040    2.6870   96.8840 N.am  127  THR127     -0.1938
     18  CA       -44.6390    1.8540   95.9490 C.3   127  THR127      0.2028
     19  C        -46.1520    1.9430   96.1900 C.2   127  THR127      0.2643
     20  O        -46.6120    2.5630   97.1460 O.2   127  THR127     -0.2714
     21  CB       -44.1530    0.3970   96.0260 C.3   127  THR127      0.1808
     22  OG1      -44.5480   -0.1830   97.2730 O.3   127  THR127     -0.2208
     23  CG2      -42.6230    0.3140   95.9180 C.3   127  THR127      0.0379
     24  N        -46.9140    1.3340   95.2910 N.am  128  SER128     -0.1935
     25  CA       -48.3680    1.3700   95.3360 C.3   128  SER128      0.2055
     26  C        -48.9430    0.1280   94.6730 C.2   128  SER128      0.2643
     27  O        -48.3860   -0.3790   93.6910 O.2   128  SER128     -0.2714
     28  CB       -48.8860    2.6380   94.6410 C.3   128  SER128      0.2130
     29  OG       -50.2960    2.6400   94.4760 O.3   128  SER128     -0.2179
     30  N        -50.0670   -0.3420   95.2040 N.am  129  SER129     -0.1949
     31  CA       -50.8280   -1.4280   94.5960 C.3   129  SER129      0.1924
     32  C        -51.5460   -1.0240   93.3080 C.2   129  SER129      0.2314
     33  O        -52.0670   -1.8920   92.6060 O.2   129  SER129     -0.2863
     34  CB       -51.8380   -1.9880   95.6100 C.3   129  SER129      0.2116
     35  OG       -52.6460   -0.9310   96.0940 O.3   129  SER129     -0.2180
     36  N        -46.4430   -4.6330   94.5920 N.3   137  SER137     -0.1217
     37  CA       -46.6550   -3.1860   94.5260 C.3   137  SER137      0.1889
     38  C        -45.3660   -2.5260   94.0520 C.2   137  SER137      0.2288
     39  O        -44.2840   -2.8870   94.5160 O.2   137  SER137     -0.2866
     40  CB       -47.0630   -2.6330   95.8900 C.3   137  SER137      0.2089
     41  OG       -48.3440   -3.1140   96.2620 O.3   137  SER137     -0.2183
     42  N        -40.2090    7.6790   94.5340 N.3   145  TRP145     -0.1241
     43  CA       -41.1450    8.2280   95.5350 C.3   145  TRP145      0.1605
     44  C        -40.5120    8.3110   96.9480 C.2   145  TRP145      0.2264
     45  O        -40.4400    7.3160   97.6760 O.2   145  TRP145     -0.2867
     46  CB       -42.4140    7.3740   95.5910 C.3   145  TRP145      0.0550
     47  CG       -43.5540    7.9950   96.3030 C.ar  145  TRP145      0.0003
     48  CD1      -43.5590    9.1580   97.0140 C.ar  145  TRP145      0.0946
     49  CD2      -44.8710    7.4640   96.3900 C.ar  145  TRP145      0.0152
     50  NE1      -44.8130    9.4020   97.5050 N.ar  145  TRP145     -0.2442
     51  CE2      -45.6420    8.3800   97.1330 C.ar  145  TRP145      0.0810
     52  CE3      -45.4920    6.3140   95.8710 C.ar  145  TRP145      0.0012
     53  CZ2      -47.0010    8.1750   97.4050 C.ar  145  TRP145      0.0191
     54  CZ3      -46.8440    6.1070   96.1410 C.ar  145  TRP145      0.0001
     55  CH2      -47.5820    7.0420   96.8990 C.ar  145  TRP145      0.0015
     56  N        -40.4940    9.4320  100.8550 N.3   147  THR147     -0.1218
     57  CA       -41.3540    9.6960  102.0120 C.3   147  THR147      0.1862
     58  C        -40.5040    9.8830  103.2790 C.2   147  THR147      0.2287
     59  O        -39.2680    9.7380  103.2510 O.2   147  THR147     -0.2866
     60  CB       -42.3560    8.5430  102.2400 C.3   147  THR147      0.1770
     61  OG1      -41.6600    7.2950  102.2780 O.3   147  THR147     -0.2211
     62  CG2      -43.4060    8.5230  101.1530 C.3   147  THR147      0.0375
     63  N        -46.4280   14.9640   94.2000 N.3   175  HIS175     -0.1241
     64  CA       -47.5060   14.1180   94.6660 C.3   175  HIS175      0.1621
     65  C        -48.5260   15.0210   95.3620 C.2   175  HIS175      0.2264
     66  O        -48.1710   15.8300   96.2340 O.2   175  HIS175     -0.2867
     67  CB       -46.9840   13.0360   95.6100 C.3   175  HIS175      0.0745
     68  CG       -48.0310   12.0600   96.0530 C.ar  175  HIS175      0.0817
     69  ND1      -48.5260   12.0340   97.3360 N.ar  175  HIS175     -0.2268
     70  CD2      -48.6880   11.0900   95.3780 C.ar  175  HIS175      0.1154
     71  CE1      -49.4480   11.0920   97.4300 C.ar  175  HIS175      0.1986
     72  NE2      -49.5570   10.4970   96.2570 N.ar  175  HIS175     -0.2212
     73  N        -54.6090   12.8000   98.6200 N.3   178  GLY178     -0.1225
     74  CA       -56.0610   12.8690   98.6470 C.3   178  GLY178      0.1811
     75  C        -56.6310   13.6000   99.8480 C.2   178  GLY178      0.2280
     76  O        -57.7100   14.1710   99.7600 O.2   178  GLY178     -0.2866
     77  N        -53.1350   11.9360  104.8070 N.3   182  ASP182     -0.1239
     78  CA       -52.1970   11.2780  103.8970 C.3   182  ASP182      0.1674
     79  C        -50.9340   12.1220  103.7210 C.2   182  ASP182      0.2266
     80  O        -49.8410   11.5710  103.6760 O.2   182  ASP182     -0.2867
     81  CB       -52.8590   10.9500  102.5380 C.3   182  ASP182      0.1410
     82  CG       -53.7880    9.7230  102.6110 C.2   182  ASP182      0.3668
     83  OD1      -53.3450    8.6430  103.0530 O.co2 182  ASP182     -0.2456
     84  OD2      -54.9710    9.8350  102.2280 O.co2 182  ASP182     -0.2456
     85  N        -49.0260   11.2650  106.8860 N.3   185  PHE185     -0.1227
     86  CA       -48.6020    9.8680  106.8270 C.3   185  PHE185      0.1736
     87  C        -47.3970    9.6580  105.8970 C.2   185  PHE185      0.2595
     88  O        -46.5560    8.8100  106.1860 O.2   185  PHE185     -0.2718
     89  CB       -49.7380    8.9500  106.3430 C.3   185  PHE185      0.0547
     90  CG       -50.9070    8.8120  107.2930 C.ar  185  PHE185     -0.0202
     91  CD1      -50.7280    8.6890  108.6650 C.ar  185  PHE185     -0.0042
     92  CD2      -52.2050    8.7250  106.7850 C.ar  185  PHE185     -0.0042
     93  CE1      -51.8160    8.5280  109.5110 C.ar  185  PHE185     -0.0003
     94  CE2      -53.2960    8.5640  107.6300 C.ar  185  PHE185     -0.0003
     95  CZ       -53.1000    8.4700  108.9910 C.ar  185  PHE185     -0.0000
     96  N        -47.3300   10.4260  104.7960 N.am  186  LEU186     -0.1980
     97  CA       -46.2660   10.3040  103.7960 C.3   186  LEU186      0.1596
     98  C        -45.0540   11.2020  104.0660 C.2   186  LEU186      0.2287
     99  O        -43.9170   10.7370  103.9560 O.2   186  LEU186     -0.2864
    100  CB       -46.8200   10.6120  102.3790 C.3   186  LEU186      0.0297
    101  CG       -47.9030    9.6400  101.8870 C.3   186  LEU186      0.0022
    102  CD1      -48.7940   10.2780  100.8360 C.3   186  LEU186      0.0001
    103  CD2      -47.2850    8.3620  101.3410 C.3   186  LEU186      0.0001
    104  N        -56.9880    4.8870   94.2340 N.3   218  ILE218     -0.1231
    105  CA       -56.1110    5.9810   94.6300 C.3   218  ILE218      0.1678
    106  C        -56.8270    7.3060   94.3460 C.2   218  ILE218      0.2434
    107  O        -57.0810    7.6130   93.1810 O.2   218  ILE218     -0.2733
    108  CB       -54.7790    5.9310   93.8330 C.3   218  ILE218      0.0265
    109  CG1      -54.0620    4.5710   93.9920 C.3   218  ILE218      0.0019
    110  CG2      -53.8450    7.0620   94.2410 C.3   218  ILE218      0.0020
    111  CD1      -53.4290    4.2770   95.3450 C.3   218  ILE218      0.0001
    112  N        -57.1560    8.0910   95.3950 N.am  219  PRO219     -0.2718
    113  CA       -57.7510    9.4220   95.1940 C.3   219  PRO219      0.1535
    114  C        -56.7200   10.5440   95.0270 C.2   219  PRO219      0.2599
    115  O        -57.1030   11.6990   94.7800 O.2   219  PRO219     -0.2715
    116  CB       -58.5120    9.6410   96.4920 C.3   219  PRO219      0.0310
    117  CG       -57.6460    8.9800   97.5280 C.3   219  PRO219      0.0237
    118  CD       -57.0410    7.7730   96.8350 C.3   219  PRO219      0.0939
    119  N        -55.4370   10.2080   95.2050 N.am  220  SER220     -0.1950
    120  CA       -54.3420   11.1570   95.0050 C.3   220  SER220      0.1924
    121  C        -53.8770   11.1410   93.5460 C.2   220  SER220      0.2314
    122  O        -54.3300   10.3190   92.7450 O.2   220  SER220     -0.2863
    123  CB       -53.1840   10.8250   95.9490 C.3   220  SER220      0.2116
    124  OG       -53.0650    9.4340   96.1360 O.3   220  SER220     -0.2180
@<TRIPOS>BOND
     1     4     3    2
     2     3     2    1
     3     1     2    1
     4     2     5    1
     5     5     6    1
     6     6     8   ar
     7     6     7   ar
     8     8    10   ar
     9    33    32    2
    10   122   121    2
    11     7     9   ar
    12   107   106    2
    13    32    31    1
    14    10    11   ar
    15   121   120    1
    16    27    26    2
    17   108   109    1
    18   108   110    1
    19   108   105    1
    20   109   111    1
    21    38    39    2
    22    38    37    1
    23    63    64    1
    24   104   105    1
    25     9    11   ar
    26   106   105    1
    27   106   112   am
    28    11    12    1
    29    29    28    1
    30    37    36    1
    31    37    40    1
    32    42    43    1
    33    31    30    1
    34    31    34    1
    35    28    25    1
    36    64    65    1
    37    64    67    1
    38    26    30   am
    39    26    25    1
    40   115   114    2
    41   120   119    1
    42   120   123    1
    43   114   113    1
    44   114   119   am
    45   113   112    1
    46   113   116    1
    47    24    25    1
    48    24    19   am
    49    16    15    2
    50    65    66    2
    51    70    68   ar
    52    70    72   ar
    53   112   118    1
    54    43    46    1
    55    43    44    1
    56    46    47    1
    57    34    35    1
    58    67    68    1
    59    52    54   ar
    60    52    49   ar
    61    40    41    1
    62    23    21    1
    63    18    21    1
    64    18    19    1
    65    18    17    1
    66   123   124    1
    67    21    22    1
    68    68    69   ar
    69    54    55   ar
    70    19    20    2
    71    72    71   ar
    72    47    49   ar
    73    47    48   ar
    74    49    51   ar
    75   116   117    1
    76    15    17   am
    77    15    14    1
    78   118   117    1
    79    55    53   ar
    80    44    45    2
    81    48    50   ar
    82    51    53   ar
    83    51    50   ar
    84    13    14    1
    85    69    71   ar
    86    73    74    1
    87    74    75    1
    88    76    75    2
    89   102   101    1
    90    56    57    1
    91    62    60    1
    92   103   101    1
    93   101   100    1
    94    57    60    1
    95    57    58    1
    96    84    82   ar
    97    60    61    1
    98   100    97    1
    99    81    82    1
   100    81    78    1
   101    82    83   ar
   102    59    58    2
   103    80    79    2
   104    79    78    1
   105    97    98    1
   106    97    96    1
   107    78    77    1
   108    99    98    2
   109    96    87   am
   110    87    88    2
   111    87    86    1
   112    89    86    1
   113    89    90    1
   114    92    90   ar
   115    92    94   ar
   116    86    85    1
   117    90    91   ar
   118    94    95   ar
   119    91    93   ar
   120    95    93   ar
