@<TRIPOS>MOLECULE
tmp/6bkwA01.pdb
 104 104 0 0 0
SMALL
GASTEIGER

@<TRIPOS>ATOM
      1  N         52.1700   -4.8130   -2.0830 N.3     3  TRP3       -0.1241
      2  CA        52.7820   -4.1070   -0.9670 C.3     3  TRP3        0.1605
      3  C         53.7610   -5.0370   -0.2640 C.2     3  TRP3        0.2264
      4  O         53.3690   -6.0750    0.2830 O.2     3  TRP3       -0.2867
      5  CB        51.7230   -3.6030    0.0060 C.3     3  TRP3        0.0550
      6  CG        52.2780   -2.8450    1.1810 C.ar    3  TRP3        0.0003
      7  CD1       53.5690   -2.4290    1.3660 C.ar    3  TRP3        0.0946
      8  CD2       51.5510   -2.4070    2.3320 C.ar    3  TRP3        0.0152
      9  NE1       53.6850   -1.7660    2.5620 N.ar    3  TRP3       -0.2442
     10  CE2       52.4610   -1.7360    3.1730 C.ar    3  TRP3        0.0810
     11  CE3       50.2180   -2.5120    2.7310 C.ar    3  TRP3        0.0012
     12  CZ2       52.0800   -1.1780    4.3880 C.ar    3  TRP3        0.0191
     13  CZ3       49.8450   -1.9590    3.9350 C.ar    3  TRP3        0.0001
     14  CH2       50.7690   -1.3020    4.7520 C.ar    3  TRP3        0.0015
     15  N         55.4760   -5.5480    2.7500 N.3     5  ILE5       -0.1245
     16  CA        55.4050   -5.1460    4.1480 C.3     5  ILE5        0.1561
     17  C         56.7510   -5.3940    4.8060 C.2     5  ILE5        0.2260
     18  O         57.4170   -6.4000    4.5410 O.2     5  ILE5       -0.2867
     19  CB        54.2700   -5.9170    4.8470 C.3     5  ILE5        0.0252
     20  CG1       52.9230   -5.3350    4.4030 C.3     5  ILE5        0.0019
     21  CG2       54.4260   -5.8760    6.3840 C.3     5  ILE5        0.0019
     22  CD1       51.7110   -6.1260    4.8480 C.3     5  ILE5        0.0001
     23  N         50.3060   -5.2840   13.1260 N.3    29  TRP29      -0.1241
     24  CA        51.1270   -4.4510   12.2560 C.3    29  TRP29       0.1605
     25  C         51.2520   -3.0770   12.8960 C.2    29  TRP29       0.2264
     26  O         50.2480   -2.4370   13.2450 O.2    29  TRP29      -0.2867
     27  CB        50.5390   -4.3590   10.8420 C.3    29  TRP29       0.0550
     28  CG        51.3310   -3.5010    9.8650 C.ar   29  TRP29       0.0003
     29  CD1       52.4100   -3.8910    9.0980 C.ar   29  TRP29       0.0946
     30  CD2       51.1120   -2.1230    9.5530 C.ar   29  TRP29       0.0152
     31  NE1       52.8610   -2.8410    8.3470 N.ar   29  TRP29      -0.2442
     32  CE2       52.0750   -1.7500    8.5900 C.ar   29  TRP29       0.0810
     33  CE3       50.1840   -1.1690    9.9790 C.ar   29  TRP29       0.0012
     34  CZ2       52.1520   -0.4610    8.0730 C.ar   29  TRP29       0.0191
     35  CZ3       50.2550    0.1110    9.4490 C.ar   29  TRP29       0.0001
     36  CH2       51.2290    0.4510    8.5070 C.ar   29  TRP29       0.0015
     37  N         47.2890   -2.7460   14.3670 N.3    33  TYR33      -0.1227
     38  CA        46.3030   -3.3790   13.4990 C.3    33  TYR33       0.1736
     39  C         46.4230   -4.8950   13.5630 C.2    33  TYR33       0.2595
     40  O         47.4920   -5.4470   13.2870 O.2    33  TYR33      -0.2718
     41  CB        46.4870   -2.9220   12.0540 C.3    33  TYR33       0.0548
     42  CG        46.1990   -1.4580   11.8580 C.ar   33  TYR33      -0.0200
     43  CD1       47.2230   -0.5440   11.7790 C.ar   33  TYR33      -0.0009
     44  CD2       44.9070   -0.9950   11.7960 C.ar   33  TYR33      -0.0009
     45  CE1       46.9730    0.7990   11.6190 C.ar   33  TYR33       0.0417
     46  CE2       44.6370    0.3570   11.6360 C.ar   33  TYR33       0.0417
     47  CZ        45.6830    1.2500   11.5510 C.ar   33  TYR33       0.1957
     48  OH        45.4640    2.6110   11.3870 O.3    33  TYR33      -0.2866
     49  N         45.3190   -5.5680   13.8810 N.am   34  ASP34      -0.1960
     50  CA        45.3180   -7.0240   13.8920 C.3    34  ASP34       0.1840
     51  C         45.5450   -7.5460   12.4810 C.2    34  ASP34       0.2621
     52  O         44.9440   -7.0590   11.5130 O.2    34  ASP34      -0.2715
     53  CB        43.9670   -7.5550   14.3930 C.3    34  ASP34       0.1450
     54  CG        43.7340   -7.3010   15.8780 C.2    34  ASP34       0.3671
     55  OD1       42.5510   -7.2970   16.2840 O.co2  34  ASP34      -0.2456
     56  OD2       44.7050   -7.1030   16.6470 O.co2  34  ASP34      -0.2456
     57  N         46.4020   -8.5630   12.3640 N.am   35  VAL35      -0.1977
     58  CA        46.6590   -9.2190   11.0900 C.3    35  VAL35       0.1596
     59  C         46.7940  -10.7150   11.3150 C.2    35  VAL35       0.2287
     60  O         47.0710  -11.1830   12.4220 O.2    35  VAL35      -0.2864
     61  CB        47.8990   -8.6760   10.3440 C.3    35  VAL35       0.0276
     62  CG1       47.7170   -7.1840    9.9840 C.3    35  VAL35       0.0022
     63  CG2       49.1840   -8.8800   11.1710 C.3    35  VAL35       0.0022
     64  N         46.6440   -7.9520    2.5670 N.3    69  TYR69      -0.1241
     65  CA        47.2540   -6.6590    2.8620 C.3    69  TYR69       0.1605
     66  C         48.5950   -6.5070    2.1650 C.2    69  TYR69       0.2264
     67  O         48.9270   -5.4200    1.6780 O.2    69  TYR69      -0.2867
     68  CB        47.4680   -6.5070    4.3650 C.3    69  TYR69       0.0534
     69  CG        46.2070   -6.3640    5.1920 C.ar   69  TYR69      -0.0201
     70  CD1       46.2310   -6.6110    6.5460 C.ar   69  TYR69      -0.0009
     71  CD2       45.0110   -5.9490    4.6270 C.ar   69  TYR69      -0.0009
     72  CE1       45.1210   -6.4770    7.3230 C.ar   69  TYR69       0.0417
     73  CE2       43.8740   -5.8010    5.4010 C.ar   69  TYR69       0.0417
     74  CZ        43.9390   -6.0660    6.7490 C.ar   69  TYR69       0.1957
     75  OH        42.8450   -5.9250    7.5520 O.3    69  TYR69      -0.2866
     76  N         50.2730  -11.5800    4.4620 N.3    81  ILE81      -0.1245
     77  CA        49.6530  -10.8330    5.5460 C.3    81  ILE81       0.1561
     78  C         48.2250  -10.4930    5.1280 C.2    81  ILE81       0.2260
     79  O         48.0110   -9.8690    4.0800 O.2    81  ILE81      -0.2867
     80  CB        50.4480   -9.5560    5.8600 C.3    81  ILE81       0.0252
     81  CG1       51.9480   -9.8670    6.0460 C.3    81  ILE81       0.0019
     82  CG2       49.8360   -8.8590    7.0940 C.3    81  ILE81       0.0019
     83  CD1       52.2430  -10.6720    7.2360 C.3    81  ILE81       0.0001
     84  N         43.8670   -9.6590    6.4740 N.3    83  GLU83      -0.1231
     85  CA        42.8900   -9.2910    7.4850 C.3    83  GLU83       0.1699
     86  C         42.7040  -10.4190    8.4950 C.2    83  GLU83       0.2592
     87  O         42.6770  -11.6040    8.1350 O.2    83  GLU83      -0.2718
     88  CB        41.5690   -8.9730    6.7580 C.3    83  GLU83       0.0402
     89  CG        40.4120   -8.5070    7.6210 C.3    83  GLU83       0.1161
     90  CD        39.2300   -7.9950    6.7860 C.2    83  GLU83       0.3649
     91  OE1       38.2310   -7.5380    7.3790 O.co2  83  GLU83      -0.2457
     92  OE2       39.3080   -8.0130    5.5420 O.co2  83  GLU83      -0.2457
     93  N         42.5880  -10.0450    9.7630 N.am   84  TYR84      -0.1976
     94  CA        42.3380  -10.9720   10.8600 C.3    84  TYR84       0.1639
     95  C         40.8560  -11.0050   11.2050 C.2    84  TYR84       0.2290
     96  O         40.1950   -9.9620   11.2800 O.2    84  TYR84      -0.2864
     97  CB        43.1190  -10.5520   12.1000 C.3    84  TYR84       0.0560
     98  CG        42.8390  -11.4140   13.2990 C.ar   84  TYR84      -0.0198
     99  CD1       43.2400  -12.7350   13.3210 C.ar   84  TYR84      -0.0009
    100  CD2       42.1670  -10.9200   14.3910 C.ar   84  TYR84      -0.0009
    101  CE1       42.9940  -13.5450   14.4170 C.ar   84  TYR84       0.0417
    102  CE2       41.9040  -11.7120   15.4940 C.ar   84  TYR84       0.0417
    103  CZ        42.3260  -13.0380   15.4990 C.ar   84  TYR84       0.1957
    104  OH        42.0920  -13.8700   16.5740 O.3    84  TYR84      -0.2866
@<TRIPOS>BOND
     1     1     2    1
     2     2     3    1
     3     2     5    1
     4     3     4    2
     5     5     6    1
     6     6     7   ar
     7     6     8   ar
     8     7     9   ar
     9    67    66    2
    10    66    65    1
    11     8    11   ar
    12     8    10   ar
    13     9    10   ar
    14    64    65    1
    15    11    13   ar
    16    15    16    1
    17    65    68    1
    18    10    12   ar
    19    13    14   ar
    20    79    78    2
    21    16    17    1
    22    16    19    1
    23    68    69    1
    24    12    14   ar
    25    20    19    1
    26    20    22    1
    27    76    77    1
    28    18    17    2
    29    71    69   ar
    30    71    73   ar
    31    19    21    1
    32    78    77    1
    33    69    70   ar
    34    73    74   ar
    35    92    90   ar
    36    77    80    1
    37    80    81    1
    38    80    82    1
    39    81    83    1
    40    84    85    1
    41    70    72   ar
    42    74    72   ar
    43    74    75    1
    44    88    85    1
    45    88    89    1
    46    90    91   ar
    47    90    89    1
    48    85    86    1
    49    34    36   ar
    50    34    32   ar
    51    87    86    2
    52    31    32   ar
    53    31    29   ar
    54    86    93   am
    55    36    35   ar
    56    32    30   ar
    57    29    28   ar
    58    35    33   ar
    59    30    28   ar
    60    30    33   ar
    61    93    94    1
    62    28    27    1
    63    62    61    1
    64    61    58    1
    65    61    63    1
    66    27    24    1
    67    94    95    1
    68    94    97    1
    69    58    59    1
    70    58    57    1
    71    95    96    2
    72    59    60    2
    73    48    47    1
    74    52    51    2
    75    47    45   ar
    76    47    46   ar
    77    45    43   ar
    78    46    44   ar
    79    43    42   ar
    80    44    42   ar
    81    42    41    1
    82    41    38    1
    83    97    98    1
    84    24    25    1
    85    24    23    1
    86    57    51   am
    87    51    50    1
    88    25    26    2
    89    40    39    2
    90    98    99   ar
    91    98   100   ar
    92    99   101   ar
    93    38    39    1
    94    38    37    1
    95    39    49   am
    96    49    50    1
    97    50    53    1
    98   100   102   ar
    99    53    54    1
   100   101   103   ar
   101   102   103   ar
   102   103   104    1
   103    54    55   ar
   104    54    56   ar
