@<TRIPOS>MOLECULE
tmp/6bkxA01.pdb
 147 140 0 0 0
SMALL
GASTEIGER

@<TRIPOS>ATOM
      1  N         34.0670    5.7550   -9.6400 N.3   285  SER285     -0.1202
      2  CA        33.3510    6.9630  -10.0440 C.3   285  SER285      0.2020
      3  C         31.8870    6.6880  -10.3280 C.2   285  SER285      0.2619
      4  O         31.5840    5.8090  -11.1270 O.2   285  SER285     -0.2717
      5  CB        34.0140    7.5260  -11.3030 C.3   285  SER285      0.2103
      6  OG        33.2300    8.5140  -11.9400 O.3   285  SER285     -0.2182
      7  N         30.9850    7.5070   -9.7660 N.am  286  LEU286     -0.1965
      8  CA        29.5490    7.3830  -10.0240 C.3   286  LEU286      0.1728
      9  C         29.2340    7.4900  -11.5070 C.2   286  LEU286      0.2616
     10  O         28.3590    6.7850  -11.9950 O.2   286  LEU286     -0.2715
     11  CB        28.7610    8.4940   -9.3220 C.3   286  LEU286      0.0311
     12  CG        27.9190    8.1610   -8.1490 C.3   286  LEU286      0.0022
     13  CD1       27.0660    9.3670   -7.7620 C.3   286  LEU286      0.0001
     14  CD2       27.0420    6.9280   -8.3930 C.3   286  LEU286      0.0001
     15  N         29.9300    8.3810  -12.2060 N.am  287  GLY287     -0.1955
     16  CA        29.7150    8.6080  -13.6240 C.3   287  GLY287      0.1869
     17  C         30.2520    7.5450  -14.5630 C.2   287  GLY287      0.2309
     18  O         30.0610    7.6590  -15.7720 O.2   287  GLY287     -0.2863
     19  N         23.4390    8.6790  -14.6100 N.3   307  HIS307     -0.1226
     20  CA        23.8410    9.7030  -13.6570 C.3   307  HIS307      0.1752
     21  C         23.0000   10.9780  -13.7860 C.2   307  HIS307      0.2596
     22  O         22.0810   11.0340  -14.5950 O.2   307  HIS307     -0.2718
     23  CB        25.3530    9.9870  -13.7710 C.3   307  HIS307      0.0759
     24  CG        25.7930   10.4580  -15.1260 C.ar  307  HIS307      0.0818
     25  ND1       25.3740   11.6820  -15.6470 N.ar  307  HIS307     -0.2268
     26  CD2       26.6310    9.8680  -16.0140 C.ar  307  HIS307      0.1154
     27  CE1       25.9820   11.7980  -16.8260 C.ar  307  HIS307      0.1986
     28  NE2       26.7450   10.7340  -17.0950 N.ar  307  HIS307     -0.2212
     29  N         23.3480   11.9920  -12.9980 N.am  308  GLY308     -0.1957
     30  CA        22.6290   13.2640  -12.9870 C.3   308  GLY308      0.1869
     31  C         22.9270   14.1600  -14.1750 C.2   308  GLY308      0.2309
     32  O         23.7310   13.8240  -15.0570 O.2   308  GLY308     -0.2863
     33  N         24.3070   17.1370  -13.9540 N.3   310  VAL310     -0.1245
     34  CA        25.4890   17.9590  -13.6090 C.3   310  VAL310      0.1561
     35  C         25.1440   19.4650  -13.5880 C.2   310  VAL310      0.2260
     36  O         25.7530   20.2770  -14.2900 O.2   310  VAL310     -0.2867
     37  CB        26.7340   17.6370  -14.4960 C.3   310  VAL310      0.0252
     38  CG1       28.0070   17.9470  -13.7220 C.3   310  VAL310      0.0019
     39  CG2       26.7520   16.1640  -14.9500 C.3   310  VAL310      0.0019
     40  N         25.6660   21.8490  -11.4540 N.3   312  ARG312     -0.1231
     41  CA        26.7770   22.7500  -11.0660 C.3   312  ARG312      0.1694
     42  C         27.5950   23.1720  -12.2760 C.2   312  ARG312      0.2592
     43  O         27.8800   24.3680  -12.4560 O.2   312  ARG312     -0.2718
     44  CB        27.6510   22.1320   -9.9760 C.3   312  ARG312      0.0321
     45  CG        27.0410   22.2540   -8.5770 C.3   312  ARG312      0.0489
     46  CD        28.0570   21.9740   -7.4770 C.3   312  ARG312      0.2205
     47  NE        29.0280   23.0620   -7.3260 N.pl3 312  ARG312     -0.0865
     48  CZ        30.0470   23.0540   -6.4710 C.cat 312  ARG312      0.5346
     49  NH1       30.2440   22.0120   -5.6710 N.pl3 312  ARG312      0.1354
     50  NH2       30.8760   24.0870   -6.4070 N.pl3 312  ARG312      0.1354
     51  N         27.8940   22.2090  -13.1740 N.am  313  HIS313     -0.1976
     52  CA        28.6220   22.5490  -14.3950 C.3   313  HIS313      0.1656
     53  C         27.7480   23.3550  -15.3430 C.2   313  HIS313      0.2291
     54  O         28.2420   24.2630  -15.9980 O.2   313  HIS313     -0.2864
     55  CB        29.1300   21.2850  -15.1130 C.3   313  HIS313      0.0771
     56  CG        30.2730   20.6020  -14.4330 C.ar  313  HIS313      0.0820
     57  ND1       30.8390   19.4560  -14.9830 N.ar  313  HIS313     -0.2267
     58  CD2       30.9100   20.8900  -13.2720 C.ar  313  HIS313      0.1154
     59  CE1       31.8150   19.0950  -14.1640 C.ar  313  HIS313      0.1986
     60  NE2       31.9180   19.9380  -13.1230 N.ar  313  HIS313     -0.2212
     61  N         27.8500   26.9730  -14.5380 N.3   316  MET316     -0.1245
     62  CA        29.1140   27.5710  -14.9960 C.3   316  MET316      0.1570
     63  C         29.0430   27.8370  -16.5000 C.2   316  MET316      0.2261
     64  O         29.3590   28.9390  -16.9660 O.2   316  MET316     -0.2867
     65  CB        30.3020   26.6470  -14.6480 C.3   316  MET316      0.0387
     66  CG        30.5600   26.4850  -13.1610 C.3   316  MET316      0.0595
     67  SD        31.4590   24.9490  -12.7110 S.3   316  MET316     -0.1393
     68  CE        33.0790   25.2830  -13.4920 C.3   316  MET316      0.0692
     69  N         34.4470   28.0870  -18.3440 N.3   322  GLU322     -0.1231
     70  CA        34.9820   26.8130  -18.8170 C.3   322  GLU322      0.1699
     71  C         34.4420   25.6820  -17.9220 C.2   322  GLU322      0.2593
     72  O         34.3920   25.8410  -16.7010 O.2   322  GLU322     -0.2718
     73  CB        36.5150   26.8660  -18.6950 C.3   322  GLU322      0.0402
     74  CG        37.1900   25.6580  -19.2930 C.3   322  GLU322      0.1161
     75  CD        38.6990   25.7370  -19.2660 C.2   322  GLU322      0.3649
     76  OE1       39.2710   25.7960  -18.1530 O.co2 322  GLU322     -0.2457
     77  OE2       39.3030   25.7350  -20.3630 O.co2 322  GLU322     -0.2457
     78  N         34.1050   24.5200  -18.5150 N.am  323  THR323     -0.1939
     79  CA        33.6470   23.3590  -17.7340 C.3   323  THR323      0.2028
     80  C         34.4610   22.1490  -18.1700 C.2   323  THR323      0.2643
     81  O         35.0740   22.1660  -19.2430 O.2   323  THR323     -0.2714
     82  CB        32.1320   23.0800  -17.9820 C.3   323  THR323      0.1808
     83  OG1       31.9170   22.8080  -19.3590 O.3   323  THR323     -0.2208
     84  CG2       31.2410   24.2230  -17.5340 C.3   323  THR323      0.0379
     85  N         34.4570   21.1050  -17.3540 N.am  324  SER324     -0.1935
     86  CA        35.1630   19.8710  -17.6750 C.3   324  SER324      0.2055
     87  C         34.2930   18.6960  -17.1570 C.2   324  SER324      0.2644
     88  O         34.4060   18.3180  -16.0010 O.2   324  SER324     -0.2714
     89  CB        36.5550   19.8860  -17.0540 C.3   324  SER324      0.2130
     90  OG        37.2270   18.6830  -17.3690 O.3   324  SER324     -0.2179
     91  N         33.3820   18.2150  -18.0200 N.am  325  THR325     -0.1936
     92  CA        32.3760   17.2130  -17.6420 C.3   325  THR325      0.2028
     93  C         32.6500   15.8870  -18.3240 C.2   325  THR325      0.2642
     94  O         32.7860   15.8530  -19.5490 O.2   325  THR325     -0.2714
     95  CB        30.9600   17.6780  -18.0240 C.3   325  THR325      0.1808
     96  OG1       30.7540   19.0460  -17.6680 O.3   325  THR325     -0.2208
     97  CG2       29.8670   16.8000  -17.3990 C.3   325  THR325      0.0379
     98  N         32.6550   14.8240  -17.5290 N.am  326  ASN326     -0.1971
     99  CA        32.8940   13.4610  -17.9980 C.3   326  ASN326      0.1688
    100  C         31.7660   13.0060  -18.9600 C.2   326  ASN326      0.2292
    101  O         30.6470   12.7880  -18.5020 O.2   326  ASN326     -0.2864
    102  CB        32.9960   12.5050  -16.8020 C.3   326  ASN326      0.1181
    103  CG        33.3860   11.1040  -17.1840 C.2   326  ASN326      0.2629
    104  OD1       33.4620   10.7590  -18.3740 O.2   326  ASN326     -0.2716
    105  ND2       33.6460   10.2620  -16.1990 N.am  326  ASN326     -0.0877
    106  N         38.0910   16.9490  -15.3690 N.3   372  LYS372     -0.1231
    107  CA        38.4430   17.3420  -14.0050 C.3   372  LYS372      0.1693
    108  C         37.9490   16.3340  -12.9580 C.2   372  LYS372      0.2592
    109  O         38.6600   16.0550  -11.9900 O.2   372  LYS372     -0.2718
    110  CB        37.8920   18.7320  -13.7180 C.3   372  LYS372      0.0285
    111  CG        38.2740   19.2660  -12.3410 C.3   372  LYS372      0.0035
    112  CD        37.5220   20.5870  -12.1170 C.3   372  LYS372      0.0206
    113  CE        38.2770   21.5920  -11.2890 C.3   372  LYS372      0.1093
    114  NZ        37.6320   22.9390  -11.3830 N.3   372  LYS372     -0.1314
    115  N         36.7110   15.8530  -13.1420 N.am  373  ASP373     -0.1974
    116  CA        36.0710   14.8940  -12.2250 C.3   373  ASP373      0.1709
    117  C         36.9070   13.6000  -12.1400 C.2   373  ASP373      0.2293
    118  O         37.1700   13.0830  -11.0390 O.2   373  ASP373     -0.2864
    119  CB        34.5900   14.6650  -12.6450 C.3   373  ASP373      0.1436
    120  CG        34.3320   14.6950  -14.1570 C.2   373  ASP373      0.3671
    121  OD1       35.2250   14.2850  -14.9090 O.co2 373  ASP373     -0.2456
    122  OD2       33.2090   15.1390  -14.5810 O.co2 373  ASP373     -0.2456
    123  N         40.1850   14.2740  -10.3650 N.3   376  ALA376     -0.1245
    124  CA        39.8790   14.3340   -8.9170 C.3   376  ALA376      0.1562
    125  C         39.8770   12.9160   -8.2950 C.2   376  ALA376      0.2260
    126  O         40.1970   12.7810   -7.1140 O.2   376  ALA376     -0.2867
    127  CB        38.5510   15.0160   -8.6810 C.3   376  ALA376      0.0290
    128  N         39.8790   16.2890   -5.4150 N.3   381  LEU381     -0.1245
    129  CA        39.4140   17.5460   -6.0200 C.3   381  LEU381      0.1561
    130  C         40.1790   18.8090   -5.5520 C.2   381  LEU381      0.2260
    131  O         40.5720   19.5900   -6.4240 O.2   381  LEU381     -0.2867
    132  CB        37.8860   17.7300   -5.8680 C.3   381  LEU381      0.0270
    133  CG        37.2520   18.9040   -6.6430 C.3   381  LEU381      0.0019
    134  CD1       37.4840   18.7830   -8.1420 C.3   381  LEU381      0.0001
    135  CD2       35.7670   19.0030   -6.3490 C.3   381  LEU381      0.0001
    136  N         43.9220   18.2550  -16.3780 N.3   389  TYR389     -0.1241
    137  CA        42.7430   17.8060  -17.1150 C.3   389  TYR389      0.1605
    138  C         42.4780   18.6510  -18.3670 C.2   389  TYR389      0.2264
    139  O         43.1740   19.6560  -18.6030 O.2   389  TYR389     -0.2867
    140  CB        41.5160   17.8400  -16.1620 C.3   389  TYR389      0.0534
    141  CG        41.1430   19.2340  -15.6870 C.ar  389  TYR389     -0.0201
    142  CD1       40.2770   20.0370  -16.4260 C.ar  389  TYR389     -0.0009
    143  CD2       41.6050   19.7250  -14.4670 C.ar  389  TYR389     -0.0009
    144  CE1       39.9190   21.3090  -15.9890 C.ar  389  TYR389      0.0417
    145  CE2       41.2460   20.9920  -14.0160 C.ar  389  TYR389      0.0417
    146  CZ        40.3900   21.7740  -14.7730 C.ar  389  TYR389      0.1957
    147  OH        40.0080   23.0220  -14.3330 O.3   389  TYR389     -0.2866
@<TRIPOS>BOND
     1    77    75   ar
     2    94    93    2
     3    83    82    1
     4    74    75    1
     5    74    73    1
     6    75    76   ar
     7    81    80    2
     8   100   101    2
     9   100    99    1
    10    70    73    1
    11    70    69    1
    12    70    71    1
    13   139   138    2
    14    78    71   am
    15    78    79    1
    16   104   103    2
    17   138   137    1
    18    93    92    1
    19    93    98   am
    20    80    79    1
    21    80    85   am
    22    95    96    1
    23    95    92    1
    24    95    97    1
    25    91    92    1
    26    91    87   am
    27    99    98    1
    28    99   102    1
    29    82    79    1
    30    82    84    1
    31    71    72    2
    32    86    85    1
    33    86    87    1
    34    86    89    1
    35    90    89    1
    36   103   102    1
    37   103   105   am
    38    87    88    2
    39   137   136    1
    40   137   140    1
    41    28    27   ar
    42    28    26   ar
    43    64    63    2
    44    27    25   ar
    45    63    62    1
    46   142   144   ar
    47   142   141   ar
    48   140   141    1
    49    26    24   ar
    50    54    53    2
    51   144   146   ar
    52    18    17    2
    53   141   143   ar
    54    25    24   ar
    55   106   107    1
    56    53    52    1
    57    24    23    1
    58    55    56    1
    59    55    52    1
    60    32    31    2
    61    62    65    1
    62    62    61    1
    63    57    56   ar
    64    57    59   ar
    65    39    37    1
    66   121   120   ar
    67   146   147    1
    68   146   145   ar
    69    65    66    1
    70    19    20    1
    71    22    21    2
    72   122   120   ar
    73    17    16    1
    74    37    38    1
    75    37    34    1
    76   143   145   ar
    77    56    58   ar
    78    52    51    1
    79    36    35    2
    80    31    30    1
    81    59    60   ar
    82   120   119    1
    83   107   110    1
    84   107   108    1
    85    33    34    1
    86    21    20    1
    87    21    29   am
    88    23    20    1
    89   110   111    1
    90    16    15    1
    91    34    35    1
    92    68    67    1
    93    58    60   ar
    94    51    42   am
    95    66    67    1
    96   115   108   am
    97   115   116    1
    98    29    30    1
    99   108   109    2
   100   119   116    1
   101    43    42    2
   102   111   112    1
   103    42    41    1
   104   116   117    1
   105    15     9   am
   106   117   118    2
   107   112   113    1
   108    10     9    2
   109     6     5    1
   110     9     8    1
   111    40    41    1
   112   114   113    1
   113     5     2    1
   114     4     3    2
   115    41    44    1
   116   123   124    1
   117     3     2    1
   118     3     7   am
   119     2     1    1
   120     8     7    1
   121     8    11    1
   122    44    45    1
   123    11    12    1
   124   124   127    1
   125   124   125    1
   126    45    46    1
   127    14    12    1
   128   125   126    2
   129    12    13    1
   130   134   133    1
   131    46    47    1
   132    47    48    2
   133   133   135    1
   134   133   132    1
   135    48    50    1
   136    48    49    1
   137   131   130    2
   138   129   132    1
   139   129   130    1
   140   129   128    1
