@<TRIPOS>MOLECULE
tmp/6bkyA00.pdb
 96 86 0 0 0
SMALL
GASTEIGER

@<TRIPOS>ATOM
      1  N         33.3950    0.9780   15.9870 N.3    75  THR75      -0.1218
      2  CA        34.6000    1.4520   16.6700 C.3    75  THR75       0.1862
      3  C         34.8850    0.2730   17.6210 C.2    75  THR75       0.2287
      4  O         34.1250    0.0530   18.5750 O.2    75  THR75      -0.2866
      5  CB        34.3840    2.8110   17.3690 C.3    75  THR75       0.1770
      6  OG1       34.2310    3.8120   16.3630 O.3    75  THR75      -0.2211
      7  CG2       35.5660    3.2010   18.2830 C.3    75  THR75       0.0375
      8  N         38.4110    4.9250   16.1100 N.3    92  SER92      -0.1217
      9  CA        37.1550    5.3810   15.4910 C.3    92  SER92       0.1889
     10  C         37.4120    5.9700   14.0840 C.2    92  SER92       0.2288
     11  O         38.2140    6.9070   13.9620 O.2    92  SER92      -0.2866
     12  CB        36.4790    6.4270   16.3870 C.3    92  SER92       0.2089
     13  OG        35.6470    7.3100   15.6490 O.3    92  SER92      -0.2183
     14  N         35.4210    7.8030   12.3830 N.3    94  ASN94      -0.1240
     15  CA        34.8640    9.1540   12.4480 C.3    94  ASN94       0.1653
     16  C         35.8870   10.1360   12.9820 C.2    94  ASN94       0.2266
     17  O         36.0100   11.2080   12.4270 O.2    94  ASN94      -0.2867
     18  CB        33.5940    9.1810   13.3070 C.3    94  ASN94       0.1155
     19  CG        32.5400    8.2560   12.7610 C.2    94  ASN94       0.2627
     20  OD1       32.0940    8.4080   11.6180 O.2    94  ASN94      -0.2716
     21  ND2       32.1630    7.2540   13.5480 N.am   94  ASN94      -0.0877
     22  N         37.3740   13.1330   10.6900 N.3    98  ARG98      -0.1245
     23  CA        37.2210   14.4820   11.2660 C.3    98  ARG98       0.1563
     24  C         38.5790   15.1270   11.5490 C.2    98  ARG98       0.2260
     25  O         38.7500   16.3360   11.3410 O.2    98  ARG98      -0.2867
     26  CB        36.3700   14.4490   12.5460 C.3    98  ARG98       0.0307
     27  CG        34.8700   14.2430   12.3020 C.3    98  ARG98       0.0489
     28  CD        34.2050   13.8460   13.5970 C.3    98  ARG98       0.2205
     29  NE        32.8510   13.3490   13.3840 N.pl3  98  ARG98      -0.0865
     30  CZ        32.1900   12.5690   14.2280 C.cat  98  ARG98       0.5346
     31  NH1       32.7590   12.1700   15.3640 N.pl3  98  ARG98       0.1354
     32  NH2       30.9570   12.1730   13.9440 N.pl3  98  ARG98       0.1354
     33  N         24.3880   19.1510   13.9190 N.3   107  ARG107     -0.1245
     34  CA        23.4300   18.1100   14.2340 C.3   107  ARG107      0.1563
     35  C         22.0960   18.7040   14.6240 C.2   107  ARG107      0.2260
     36  O         22.0300   19.6710   15.3740 O.2   107  ARG107     -0.2867
     37  CB        23.9920   17.1680   15.2930 C.3   107  ARG107      0.0307
     38  CG        25.0540   16.2520   14.7330 C.3   107  ARG107      0.0489
     39  CD        25.6610   15.3480   15.7690 C.3   107  ARG107      0.2205
     40  NE        26.5030   14.3310   15.1440 N.pl3 107  ARG107     -0.0865
     41  CZ        27.3300   13.5180   15.7920 C.cat 107  ARG107      0.5346
     42  NH1       27.4570   13.6010   17.1150 N.pl3 107  ARG107      0.1354
     43  NH2       28.0390   12.6140   15.1230 N.pl3 107  ARG107      0.1354
     44  N         28.9280   20.9920   16.7800 N.3   130  ARG130     -0.1245
     45  CA        29.9840   20.2600   17.4790 C.3   130  ARG130      0.1563
     46  C         31.3740   20.4680   16.8430 C.2   130  ARG130      0.2260
     47  O         31.5970   20.0410   15.6990 O.2   130  ARG130     -0.2867
     48  CB        29.6460   18.7610   17.4990 C.3   130  ARG130      0.0307
     49  CG        30.7160   17.8900   18.1440 C.3   130  ARG130      0.0489
     50  CD        30.4620   16.4260   17.8380 C.3   130  ARG130      0.2205
     51  NE        31.5380   15.6120   18.4030 N.pl3 130  ARG130     -0.0865
     52  CZ        31.6090   14.2940   18.3150 C.cat 130  ARG130      0.5346
     53  NH1       30.6570   13.6120   17.6950 N.pl3 130  ARG130      0.1354
     54  NH2       32.6330   13.6460   18.8430 N.pl3 130  ARG130      0.1354
     55  N         39.2790   13.5060   21.3520 N.3   137  TYR137     -0.1241
     56  CA        39.2540   12.6950   20.1150 C.3   137  TYR137      0.1605
     57  C         40.6240   12.6360   19.3840 C.2   137  TYR137      0.2264
     58  O         40.7590   11.9010   18.4250 O.2   137  TYR137     -0.2867
     59  CB        38.0940   13.1200   19.2070 C.3   137  TYR137      0.0534
     60  CG        36.7710   12.9570   19.9430 C.ar  137  TYR137     -0.0201
     61  CD1       36.3670   13.8840   20.9020 C.ar  137  TYR137     -0.0009
     62  CD2       35.9700   11.8300   19.7460 C.ar  137  TYR137     -0.0009
     63  CE1       35.2080   13.6920   21.6530 C.ar  137  TYR137      0.0417
     64  CE2       34.7960   11.6370   20.4810 C.ar  137  TYR137      0.0417
     65  CZ        34.4140   12.5790   21.4230 C.ar  137  TYR137      0.1957
     66  OH        33.2840   12.4000   22.1810 O.3   137  TYR137     -0.2866
     67  N         29.2390   15.6790   21.3120 N.3   273  ASP273     -0.1239
     68  CA        28.9640   14.2580   21.1690 C.3   273  ASP273      0.1674
     69  C         27.7960   13.8660   22.0840 C.2   273  ASP273      0.2266
     70  O         26.8150   13.3260   21.6130 O.2   273  ASP273     -0.2867
     71  CB        30.2070   13.4420   21.5400 C.3   273  ASP273      0.1410
     72  CG        30.1030   11.9560   21.2230 C.2   273  ASP273      0.3668
     73  OD1       29.1840   11.5630   20.4670 O.co2 273  ASP273     -0.2456
     74  OD2       30.9340   11.1960   21.7120 O.co2 273  ASP273     -0.2456
     75  N         23.2040   13.8200   21.0540 N.3   277  ASP277     -0.1239
     76  CA        22.4020   12.6320   21.3620 C.3   277  ASP277      0.1674
     77  C         21.2300   12.9320   22.3270 C.2   277  ASP277      0.2266
     78  O         20.1090   12.4690   22.0930 O.2   277  ASP277     -0.2867
     79  CB        23.3060   11.5200   21.8920 C.3   277  ASP277      0.1410
     80  CG        24.0470   10.7510   20.7900 C.2   277  ASP277      0.3668
     81  OD1       24.1450   11.2680   19.6470 O.co2 277  ASP277     -0.2456
     82  OD2       24.5010    9.6340   21.0580 O.co2 277  ASP277     -0.2456
     83  N         26.7350   12.0700    7.4450 N.3   304  GLU304     -0.1245
     84  CA        26.7990   10.7270    7.9940 C.3   304  GLU304      0.1567
     85  C         25.5280   10.2900    8.7260 C.2   304  GLU304      0.2260
     86  O         24.7160   11.1140    9.1520 O.2   304  GLU304     -0.2867
     87  CB        28.0140   10.6380    8.9500 C.3   304  GLU304      0.0388
     88  CG        27.7370   11.2270   10.3270 C.3   304  GLU304      0.1160
     89  CD        28.8880   11.3440   11.3070 C.2   304  GLU304      0.3649
     90  OE1       29.4380   10.2960   11.7130 O.co2 304  GLU304     -0.2457
     91  OE2       29.2100   12.4870   11.7030 O.co2 304  GLU304     -0.2457
     92  N         24.8880    9.1290   12.0390 N.3   306  ALA306     -0.1245
     93  CA        25.6150    9.2360   13.3260 C.3   306  ALA306      0.1562
     94  C         25.3510    8.1320   14.3580 C.2   306  ALA306      0.2260
     95  O         26.2390    7.8660   15.1770 O.2   306  ALA306     -0.2867
     96  CB        25.3620   10.5860   13.9740 C.3   306  ALA306      0.0290
@<TRIPOS>BOND
     1    83    84    1
     2    84    85    1
     3    84    87    1
     4    85    86    2
     5    87    88    1
     6    88    89    1
     7    22    23    1
     8    23    24    1
     9    23    26    1
    10    89    91   ar
    11    89    90   ar
    12    25    24    2
    13    20    19    2
    14    92    93    1
    15    27    26    1
    16    27    28    1
    17    14    15    1
    18    17    16    2
    19    15    16    1
    20    15    18    1
    21    19    18    1
    22    19    21   am
    23    93    96    1
    24    93    94    1
    25    29    28    1
    26    29    30    2
    27    33    34    1
    28    32    30    1
    29    11    10    2
    30    10     9    1
    31    30    31    1
    32    34    35    1
    33    34    37    1
    34    94    95    2
    35    35    36    2
    36    38    37    1
    37    38    39    1
    38    43    41    1
    39    40    39    1
    40    40    41    2
    41     9     8    1
    42     9    12    1
    43    13    12    1
    44    47    46    2
    45    41    42    1
    46     1     2    1
    47     6     5    1
    48     2     5    1
    49     2     3    1
    50    44    45    1
    51    46    45    1
    52     5     7    1
    53    45    48    1
    54    48    49    1
    55     3     4    2
    56    53    52    1
    57    50    49    1
    58    50    51    1
    59    52    51    2
    60    52    54    1
    61    58    57    2
    62    59    60    1
    63    59    56    1
    64    57    56    1
    65    81    80   ar
    66    62    60   ar
    67    62    64   ar
    68    60    61   ar
    69    56    55    1
    70    73    72   ar
    71    64    65   ar
    72    80    82   ar
    73    80    79    1
    74    61    63   ar
    75    75    76    1
    76    68    67    1
    77    68    71    1
    78    68    69    1
    79    72    71    1
    80    72    74   ar
    81    76    79    1
    82    76    77    1
    83    65    63   ar
    84    65    66    1
    85    70    69    2
    86    78    77    2
