@<TRIPOS>MOLECULE
tmp/6bkyA01.pdb
 83 79 0 0 0
SMALL
GASTEIGER

@<TRIPOS>ATOM
      1  N         10.6480   16.4260   25.7040 N.3   119  VAL119     -0.1245
      2  CA        10.6620   17.8060   26.2300 C.3   119  VAL119      0.1561
      3  C          9.5460   18.5810   25.5090 C.2   119  VAL119      0.2260
      4  O          9.7280   19.0360   24.3670 O.2   119  VAL119     -0.2867
      5  CB        12.0450   18.4960   26.0440 C.3   119  VAL119      0.0252
      6  CG1       12.0530   19.8760   26.7000 C.3   119  VAL119      0.0019
      7  CG2       13.1810   17.6290   26.5790 C.3   119  VAL119      0.0019
      8  N         10.0550   22.2510   23.7280 N.3   122  TRP122     -0.1241
      9  CA        10.8800   22.4660   22.5190 C.3   122  TRP122      0.1605
     10  C         10.0350   22.6120   21.2290 C.2   122  TRP122      0.2264
     11  O          9.9540   21.6910   20.4400 O.2   122  TRP122     -0.2867
     12  CB        11.9560   21.3780   22.3850 C.3   122  TRP122      0.0550
     13  CG        13.0580   21.4020   23.4210 C.ar  122  TRP122      0.0003
     14  CD1       13.2770   22.3500   24.3830 C.ar  122  TRP122      0.0946
     15  CD2       14.1030   20.4220   23.5760 C.ar  122  TRP122      0.0152
     16  NE1       14.3880   22.0220   25.1250 N.ar  122  TRP122     -0.2442
     17  CE2       14.9230   20.8490   24.6450 C.ar  122  TRP122      0.0810
     18  CE3       14.4320   19.2250   22.9030 C.ar  122  TRP122      0.0012
     19  CZ2       16.0740   20.1390   25.0390 C.ar  122  TRP122      0.0191
     20  CZ3       15.5780   18.5430   23.2760 C.ar  122  TRP122      0.0001
     21  CH2       16.3530   18.9670   24.3780 C.ar  122  TRP122      0.0015
     22  N         23.0700   23.3630   29.7400 N.3   253  VAL253     -0.1245
     23  CA        22.2130   22.2000   29.6000 C.3   253  VAL253      0.1561
     24  C         20.8430   22.4440   30.2520 C.2   253  VAL253      0.2260
     25  O         19.8150   22.2590   29.5900 O.2   253  VAL253     -0.2867
     26  CB        22.8690   20.8830   30.0580 C.3   253  VAL253      0.0252
     27  CG1       21.8750   19.7250   29.9330 C.3   253  VAL253      0.0019
     28  CG2       24.1210   20.5890   29.2550 C.3   253  VAL253      0.0019
     29  N         17.1500   22.7680   28.4440 N.3   257  MET257     -0.1245
     30  CA        16.0550   21.9050   28.8800 C.3   257  MET257      0.1570
     31  C         14.7720   22.6570   29.1890 C.2   257  MET257      0.2261
     32  O         13.7130   22.1400   28.8770 O.2   257  MET257     -0.2867
     33  CB        16.4650   21.0820   30.1100 C.3   257  MET257      0.0387
     34  CG        17.4630   19.9990   29.8110 C.3   257  MET257      0.0595
     35  SD        18.0450   19.2260   31.3460 S.3   257  MET257     -0.1393
     36  CE        16.5140   18.3140   31.8150 C.3   257  MET257      0.0692
     37  N         23.6820   25.9600   19.2890 N.3   265  TRP265     -0.1241
     38  CA        24.4760   25.6170   20.4560 C.3   265  TRP265      0.1605
     39  C         25.8690   25.1150   19.9960 C.2   265  TRP265      0.2264
     40  O         26.0310   23.9690   19.5560 O.2   265  TRP265     -0.2867
     41  CB        23.7030   24.5860   21.2780 C.3   265  TRP265      0.0550
     42  CG        24.3010   24.1520   22.5800 C.ar  265  TRP265      0.0003
     43  CD1       25.5200   24.5010   23.1150 C.ar  265  TRP265      0.0946
     44  CD2       23.7000   23.2320   23.5050 C.ar  265  TRP265      0.0152
     45  NE1       25.7070   23.8490   24.3200 N.ar  265  TRP265     -0.2442
     46  CE2       24.6110   23.0550   24.5760 C.ar  265  TRP265      0.0810
     47  CE3       22.4750   22.5350   23.5290 C.ar  265  TRP265      0.0012
     48  CZ2       24.3130   22.2450   25.6850 C.ar  265  TRP265      0.0191
     49  CZ3       22.1880   21.7200   24.6240 C.ar  265  TRP265      0.0001
     50  CH2       23.0970   21.5870   25.6890 C.ar  265  TRP265      0.0015
     51  N         27.8750   14.2170   23.3640 N.3   274  VAL274     -0.1231
     52  CA        26.8430   13.8810   24.3570 C.3   274  VAL274      0.1692
     53  C         25.5370   14.6870   24.1370 C.2   274  VAL274      0.2591
     54  O         24.4670   14.1130   24.0860 O.2   274  VAL274     -0.2718
     55  CB        27.3930   14.0300   25.8020 C.3   274  VAL274      0.0266
     56  CG1       26.3330   13.6550   26.8360 C.3   274  VAL274      0.0020
     57  CG2       28.6800   13.2300   25.9990 C.3   274  VAL274      0.0020
     58  N         25.6400   15.9990   23.9930 N.am  275  GLN275     -0.1979
     59  CA        24.5000   16.8840   23.8220 C.3   275  GLN275      0.1601
     60  C         23.7090   16.6530   22.5350 C.2   275  GLN275      0.2287
     61  O         22.4870   16.7260   22.5820 O.2   275  GLN275     -0.2864
     62  CB        24.8990   18.3610   23.9610 C.3   275  GLN275      0.0394
     63  CG        25.4670   18.7260   25.3250 C.3   275  GLN275      0.0908
     64  CD        24.7420   18.1060   26.4880 C.2   275  GLN275      0.2608
     65  OE1       23.4970   18.1360   26.5810 O.2   275  GLN275     -0.2717
     66  NE2       25.5140   17.5300   27.3950 N.am  275  GLN275     -0.0878
     67  N         21.4900   13.7430   23.3780 N.3   278  SER278     -0.1202
     68  CA        20.5190   14.1380   24.3910 C.3   278  SER278      0.2020
     69  C         19.3860   14.9470   23.7560 C.2   278  SER278      0.2618
     70  O         18.2150   14.6800   24.0290 O.2   278  SER278     -0.2717
     71  CB        21.1870   14.9800   25.4700 C.3   278  SER278      0.2103
     72  OG        22.3940   14.3640   25.8770 O.3   278  SER278     -0.2182
     73  N         19.7570   15.9480   22.9230 N.am  279  VAL279     -0.1979
     74  CA        18.8340   16.8020   22.2040 C.3   279  VAL279      0.1595
     75  C         17.9830   15.9730   21.2370 C.2   279  VAL279      0.2287
     76  O         16.7580   16.0890   21.2880 O.2   279  VAL279     -0.2864
     77  CB        19.5540   18.0030   21.5660 C.3   279  VAL279      0.0276
     78  CG1       18.6630   18.7390   20.5730 C.3   279  VAL279      0.0022
     79  CG2       20.0360   18.9520   22.6560 C.3   279  VAL279      0.0022
     80  N         15.5150   14.1510   23.2990 N.3   282  GLY282     -0.1225
     81  CA        14.5490   15.1410   23.7710 C.3   282  GLY282      0.1811
     82  C         13.4500   15.4410   22.7430 C.2   282  GLY282      0.2280
     83  O         12.2780   15.6240   23.1190 O.2   282  GLY282     -0.2866
@<TRIPOS>BOND
     1    37    38    1
     2    40    39    2
     3    39    38    1
     4    11    10    2
     5    38    41    1
     6    78    77    1
     7    10     9    1
     8    75    76    2
     9    75    74    1
    10    41    42    1
    11    77    74    1
    12    77    79    1
    13    74    73    1
    14    12     9    1
    15    12    13    1
    16     9     8    1
    17    60    61    2
    18    60    59    1
    19    42    43   ar
    20    42    44   ar
    21    82    83    2
    22    82    81    1
    23    18    20   ar
    24    18    15   ar
    25    73    69   am
    26    43    45   ar
    27    20    21   ar
    28    80    81    1
    29    51    52    1
    30    67    68    1
    31    13    15   ar
    32    13    14   ar
    33    44    47   ar
    34    44    46   ar
    35    47    49   ar
    36    15    17   ar
    37    69    70    2
    38    69    68    1
    39    59    62    1
    40    59    58    1
    41    62    63    1
    42    58    53   am
    43    54    53    2
    44    53    52    1
    45    45    46   ar
    46    52    55    1
    47     4     3    2
    48    21    19   ar
    49    14    16   ar
    50    68    71    1
    51    46    48   ar
    52    49    50   ar
    53    17    19   ar
    54    17    16   ar
    55    63    64    1
    56    71    72    1
    57     3     2    1
    58    48    50   ar
    59     1     2    1
    60    55    57    1
    61    55    56    1
    62     5     2    1
    63     5     7    1
    64     5     6    1
    65    64    65    2
    66    64    66   am
    67    29    30    1
    68    32    31    2
    69    30    31    1
    70    30    33    1
    71    28    26    1
    72    25    24    2
    73    23    22    1
    74    23    26    1
    75    23    24    1
    76    34    33    1
    77    34    35    1
    78    27    26    1
    79    35    36    1
