@<TRIPOS>MOLECULE
tmp/6bkzA01.pdb
 174 165 0 0 0
SMALL
GASTEIGER

@<TRIPOS>ATOM
      1  N        -61.4810   12.9000  -88.9250 N.3   109  ALA109     -0.1245
      2  CA       -62.7840   12.3370  -88.6450 C.3   109  ALA109      0.1562
      3  C        -63.8670   12.9680  -89.5260 C.2   109  ALA109      0.2260
      4  O        -63.7370   14.0960  -89.9790 O.2   109  ALA109     -0.2867
      5  CB       -63.1040   12.5730  -87.1810 C.3   109  ALA109      0.0290
      6  N        -67.7040   13.9490  -89.1470 N.3   111  ILE111     -0.1245
      7  CA       -68.6140   14.2120  -88.0240 C.3   111  ILE111      0.1561
      8  C        -70.0390   14.4140  -88.4730 C.2   111  ILE111      0.2260
      9  O        -70.2760   15.1780  -89.3990 O.2   111  ILE111     -0.2867
     10  CB       -68.0960   15.4070  -87.2000 C.3   111  ILE111      0.0252
     11  CG1      -66.6040   15.2620  -86.8430 C.3   111  ILE111      0.0019
     12  CG2      -68.9700   15.6670  -85.9610 C.3   111  ILE111      0.0019
     13  CD1      -66.0130   16.5350  -86.3310 C.3   111  ILE111      0.0001
     14  N        -69.6210   11.0440  -80.1240 N.3   117  ARG117     -0.1231
     15  CA       -68.1690   11.2430  -80.1960 C.3   117  ARG117      0.1694
     16  C        -67.6310   11.1400  -78.7760 C.2   117  ARG117      0.2591
     17  O        -68.4200   11.2040  -77.8240 O.2   117  ARG117     -0.2718
     18  CB       -67.8390   12.6410  -80.7870 C.3   117  ARG117      0.0321
     19  CG       -68.4120   12.8650  -82.1800 C.3   117  ARG117      0.0489
     20  CD       -68.8700   14.2940  -82.4300 C.3   117  ARG117      0.2205
     21  NE       -69.8610   14.7850  -81.4670 N.pl3 117  ARG117     -0.0865
     22  CZ       -71.1730   14.8240  -81.6760 C.cat 117  ARG117      0.5346
     23  NH1      -71.6850   14.3770  -82.8170 N.pl3 117  ARG117      0.1354
     24  NH2      -71.9880   15.3090  -80.7390 N.pl3 117  ARG117      0.1354
     25  N        -66.2900   10.9920  -78.6270 N.am  118  LEU118     -0.1980
     26  CA       -65.6340   10.8960  -77.3240 C.3   118  LEU118      0.1596
     27  C        -65.9710   12.1330  -76.4500 C.2   118  LEU118      0.2287
     28  O        -66.2620   11.9980  -75.2710 O.2   118  LEU118     -0.2864
     29  CB       -64.1220   10.7770  -77.5550 C.3   118  LEU118      0.0297
     30  CG       -63.2130   10.6010  -76.3240 C.3   118  LEU118      0.0022
     31  CD1      -63.5990    9.3150  -75.4820 C.3   118  LEU118      0.0001
     32  CD2      -61.7730   10.4830  -76.7890 C.3   118  LEU118      0.0001
     33  N        -67.1880   18.2910  -79.5410 N.3   122  TRP122     -0.1241
     34  CA       -66.3750   18.2340  -80.7780 C.3   122  TRP122      0.1605
     35  C        -67.3080   18.3320  -81.9740 C.2   122  TRP122      0.2264
     36  O        -68.0490   17.3960  -82.2530 O.2   122  TRP122     -0.2867
     37  CB       -65.5670   16.9260  -80.8540 C.3   122  TRP122      0.0550
     38  CG       -64.3550   16.8680  -79.9650 C.ar  122  TRP122      0.0003
     39  CD1      -63.7930   17.8960  -79.2590 C.ar  122  TRP122      0.0946
     40  CD2      -63.5310   15.7170  -79.7310 C.ar  122  TRP122      0.0152
     41  NE1      -62.6940   17.4480  -78.5680 N.ar  122  TRP122     -0.2442
     42  CE2      -62.4900   16.1180  -78.8640 C.ar  122  TRP122      0.0810
     43  CE3      -63.5730   14.3730  -80.1690 C.ar  122  TRP122      0.0012
     44  CZ2      -61.5110   15.2140  -78.3990 C.ar  122  TRP122      0.0191
     45  CZ3      -62.5900   13.4910  -79.7310 C.ar  122  TRP122      0.0001
     46  CH2      -61.5780   13.9120  -78.8570 C.ar  122  TRP122      0.0015
     47  N        -66.0470   20.1030  -84.9740 N.3   124  LYS124     -0.1231
     48  CA       -65.1020   20.1930  -86.0880 C.3   124  LYS124      0.1678
     49  C        -63.9570   19.1970  -85.7890 C.2   124  LYS124      0.2434
     50  O        -63.6340   18.9810  -84.6290 O.2   124  LYS124     -0.2733
     51  CB       -64.5450   21.6140  -86.2280 C.3   124  LYS124      0.0284
     52  CG       -65.5030   22.6030  -86.8800 C.3   124  LYS124      0.0035
     53  CD       -64.8460   23.9510  -87.0500 C.3   124  LYS124      0.0206
     54  CE       -65.7700   24.9650  -87.6660 C.3   124  LYS124      0.1093
     55  NZ       -65.1090   26.2930  -87.7990 N.3   124  LYS124     -0.1314
     56  N        -63.3660   18.5280  -86.7850 N.am  125  PRO125     -0.2718
     57  CA       -62.3210   17.5460  -86.4630 C.3   125  PRO125      0.1535
     58  C        -61.0400   18.1240  -85.8840 C.2   125  PRO125      0.2598
     59  O        -60.7040   19.2910  -86.0880 O.2   125  PRO125     -0.2715
     60  CB       -62.0640   16.8580  -87.8050 C.3   125  PRO125      0.0310
     61  CG       -62.5120   17.8130  -88.8260 C.3   125  PRO125      0.0237
     62  CD       -63.6400   18.5810  -88.2340 C.3   125  PRO125      0.0939
     63  N        -60.3710   17.3050  -85.1020 N.am  126  ILE126     -0.1978
     64  CA       -59.0510   17.5980  -84.5640 C.3   126  ILE126      0.1596
     65  C        -58.1450   16.7480  -85.4590 C.2   126  ILE126      0.2287
     66  O        -58.1780   15.5240  -85.3760 O.2   126  ILE126     -0.2864
     67  CB       -58.9480   17.2480  -83.0590 C.3   126  ILE126      0.0276
     68  CG1      -59.7170   18.3040  -82.2330 C.3   126  ILE126      0.0022
     69  CG2      -57.4320   17.1480  -82.6170 C.3   126  ILE126      0.0022
     70  CD1      -60.0360   17.9070  -80.7790 C.3   126  ILE126      0.0001
     71  N        -55.0370   15.1770  -86.4110 N.3   128  ILE128     -0.1245
     72  CA       -53.9030   14.7200  -85.6690 C.3   128  ILE128      0.1561
     73  C        -52.9460   13.9250  -86.5330 C.2   128  ILE128      0.2260
     74  O        -53.3490   13.1070  -87.3650 O.2   128  ILE128     -0.2867
     75  CB       -54.4670   13.9860  -84.4360 C.3   128  ILE128      0.0252
     76  CG1      -53.3670   13.6580  -83.4280 C.3   128  ILE128      0.0019
     77  CG2      -55.3400   12.7540  -84.8080 C.3   128  ILE128      0.0019
     78  CD1      -53.9490   13.5970  -82.0400 C.3   128  ILE128      0.0001
     79  N        -53.9600   17.7650  -74.1710 N.3   253  VAL253     -0.1245
     80  CA       -55.0590   16.8130  -73.9260 C.3   253  VAL253      0.1561
     81  C        -56.2240   17.5280  -73.2250 C.2   253  VAL253      0.2260
     82  O        -57.3650   17.4020  -73.6670 O.2   253  VAL253     -0.2867
     83  CB       -54.6150   15.5380  -73.1410 C.3   253  VAL253      0.0252
     84  CG1      -55.8080   14.6690  -72.7390 C.3   253  VAL253      0.0019
     85  CG2      -53.6040   14.7280  -73.9430 C.3   253  VAL253      0.0019
     86  N        -57.8190   20.0010  -75.6970 N.3   256  ALA256     -0.1231
     87  CA       -58.5750   19.2950  -76.7340 C.3   256  ALA256      0.1694
     88  C        -59.9330   18.8220  -76.1790 C.2   256  ALA256      0.2591
     89  O        -60.9510   18.9450  -76.8650 O.2   256  ALA256     -0.2718
     90  CB       -57.7700   18.1150  -77.2520 C.3   256  ALA256      0.0304
     91  N        -59.9380   18.3410  -74.9060 N.am  257  MET257     -0.1979
     92  CA       -61.0850   17.8320  -74.1370 C.3   257  MET257      0.1605
     93  C        -62.1800   18.8730  -73.8730 C.2   257  MET257      0.2287
     94  O        -63.3310   18.5000  -73.6110 O.2   257  MET257     -0.2864
     95  CB       -60.6200   17.2980  -72.7710 C.3   257  MET257      0.0413
     96  CG       -59.7340   16.0850  -72.8440 C.3   257  MET257      0.0598
     97  SD       -60.6240   14.5870  -73.2250 S.3   257  MET257     -0.1393
     98  CE       -61.3690   14.2650  -71.5550 C.3   257  MET257      0.0692
     99  N        -53.1960   19.2500  -85.0390 N.3   265  TRP265     -0.1241
    100  CA       -52.4050   18.8220  -83.9080 C.3   265  TRP265      0.1605
    101  C        -51.2110   17.9720  -84.4110 C.2   265  TRP265      0.2264
    102  O        -51.3870   16.7980  -84.7270 O.2   265  TRP265     -0.2867
    103  CB       -53.3110   18.0730  -82.8950 C.3   265  TRP265      0.0550
    104  CG       -52.6220   17.5800  -81.6450 C.ar  265  TRP265      0.0003
    105  CD1      -51.3030   17.7130  -81.3170 C.ar  265  TRP265      0.0946
    106  CD2      -53.2390   16.8930  -80.5480 C.ar  265  TRP265      0.0152
    107  NE1      -51.0550   17.1210  -80.1000 N.ar  265  TRP265     -0.2442
    108  CE2      -52.2190   16.5910  -79.6160 C.ar  265  TRP265      0.0810
    109  CE3      -54.5630   16.5220  -80.2510 C.ar  265  TRP265      0.0012
    110  CZ2      -52.4690   15.8840  -78.4380 C.ar  265  TRP265      0.0191
    111  CZ3      -54.8120   15.8360  -79.0760 C.ar  265  TRP265      0.0001
    112  CH2      -53.7830   15.5360  -78.1760 C.ar  265  TRP265      0.0015
    113  N        -51.5370    9.2120  -79.1440 N.3   276  SER276     -0.1217
    114  CA       -52.8020    9.8580  -79.5020 C.3   276  SER276      0.1889
    115  C        -53.1850    9.5710  -80.9630 C.2   276  SER276      0.2288
    116  O        -54.3490    9.3240  -81.2340 O.2   276  SER276     -0.2866
    117  CB       -52.7170   11.3640  -79.2590 C.3   276  SER276      0.2089
    118  OG       -52.7850   11.6380  -77.8670 O.3   276  SER276     -0.2183
    119  N        -54.5800    6.0180  -81.1050 N.3   279  VAL279     -0.1231
    120  CA       -55.8760    6.0140  -80.4270 C.3   279  VAL279      0.1692
    121  C        -56.9380    6.6220  -81.3400 C.2   279  VAL279      0.2591
    122  O        -58.0230    6.0550  -81.4610 O.2   279  VAL279     -0.2718
    123  CB       -55.8220    6.6520  -79.0130 C.3   279  VAL279      0.0266
    124  CG1      -57.2070    6.6930  -78.3860 C.3   279  VAL279      0.0020
    125  CG2      -54.8630    5.8760  -78.1190 C.3   279  VAL279      0.0020
    126  N        -56.6100    7.7470  -81.9960 N.am  280  ALA280     -0.1980
    127  CA       -57.4930    8.4070  -82.9560 C.3   280  ALA280      0.1597
    128  C        -58.0970    7.4020  -84.0010 C.2   280  ALA280      0.2287
    129  O        -59.2640    7.5370  -84.3790 O.2   280  ALA280     -0.2864
    130  CB       -56.7370    9.5180  -83.6660 C.3   280  ALA280      0.0319
    131  N        -59.1810    4.4530  -83.6920 N.3   282  GLY282     -0.1210
    132  CA       -60.3140    3.7080  -83.1620 C.3   282  GLY282      0.1956
    133  C        -61.6440    4.2590  -83.6130 C.2   282  GLY282      0.2611
    134  O        -62.6170    3.5100  -83.7010 O.2   282  GLY282     -0.2717
    135  N        -61.7070    5.5820  -83.9220 N.am  283  TYR283     -0.1976
    136  CA       -62.9020    6.1950  -84.5070 C.3   283  TYR283      0.1639
    137  C        -63.0120    5.7130  -86.0000 C.2   283  TYR283      0.2290
    138  O        -64.1030    5.6650  -86.5800 O.2   283  TYR283     -0.2864
    139  CB       -62.7960    7.7120  -84.4360 C.3   283  TYR283      0.0560
    140  CG       -64.0840    8.4230  -84.7750 C.ar  283  TYR283     -0.0198
    141  CD1      -64.2070    9.1610  -85.9500 C.ar  283  TYR283     -0.0009
    142  CD2      -65.1650    8.4140  -83.8890 C.ar  283  TYR283     -0.0009
    143  CE1      -65.3770    9.8670  -86.2410 C.ar  283  TYR283      0.0417
    144  CE2      -66.3680    9.0360  -84.2150 C.ar  283  TYR283      0.0417
    145  CZ       -66.4540    9.8010  -85.3680 C.ar  283  TYR283      0.1957
    146  OH       -67.6200   10.4480  -85.6770 O.3   283  TYR283     -0.2866
    147  N        -62.5890    2.7170  -86.9330 N.3   285  SER285     -0.1202
    148  CA       -63.2830    1.4230  -86.8910 C.3   285  SER285      0.2020
    149  C        -64.7870    1.5810  -87.1550 C.2   285  SER285      0.2618
    150  O        -65.4280    0.6120  -87.5400 O.2   285  SER285     -0.2717
    151  CB       -63.0070    0.6740  -85.5870 C.3   285  SER285      0.2103
    152  OG       -63.7480    1.2170  -84.5020 O.3   285  SER285     -0.2182
    153  N        -65.3370    2.8130  -87.0410 N.am  286  LEU286     -0.1979
    154  CA       -66.7380    3.0920  -87.3920 C.3   286  LEU286      0.1596
    155  C        -66.8920    3.3560  -88.8910 C.2   286  LEU286      0.2287
    156  O        -68.0100    3.5090  -89.3550 O.2   286  LEU286     -0.2864
    157  CB       -67.2600    4.3370  -86.6470 C.3   286  LEU286      0.0297
    158  CG       -67.4420    4.2180  -85.1440 C.3   286  LEU286      0.0022
    159  CD1      -67.9000    5.5800  -84.5410 C.3   286  LEU286      0.0001
    160  CD2      -68.4690    3.1030  -84.7950 C.3   286  LEU286      0.0001
    161  N        -63.3860    7.9190  -90.5210 N.3   289  MET289     -0.1245
    162  CA       -62.0920    8.5660  -90.4940 C.3   289  MET289      0.1570
    163  C        -61.2440    8.2700  -91.7220 C.2   289  MET289      0.2261
    164  O        -61.1500    7.1260  -92.1250 O.2   289  MET289     -0.2867
    165  CB       -61.3140    8.1610  -89.2300 C.3   289  MET289      0.0387
    166  CG       -60.0580    8.9860  -89.0310 C.3   289  MET289      0.0595
    167  SD       -59.3280    8.6570  -87.4250 S.3   289  MET289     -0.1393
    168  CE       -60.0230   10.0510  -86.5080 C.3   289  MET289      0.0692
    169  N        -73.9800    2.8070  -82.2880 N.3   377  CYS377     -0.1235
    170  CA       -73.3940    3.9490  -81.5640 C.3   377  CYS377      0.1677
    171  C        -74.4440    4.7500  -80.8240 C.2   377  CYS377      0.2270
    172  O        -74.1840    5.2550  -79.7370 O.2   377  CYS377     -0.2867
    173  CB       -72.6370    4.8590  -82.5220 C.3   377  CYS377      0.0956
    174  SG       -70.9640    4.3190  -82.8390 S.3   377  CYS377     -0.0801
@<TRIPOS>BOND
     1   164   163    2
     2   163   162    1
     3   161   162    1
     4   162   165    1
     5     4     3    2
     6     3     2    1
     7     9     8    2
     8   156   155    2
     9   165   166    1
    10     6     7    1
    11   166   167    1
    12     1     2    1
    13   155   154    1
    14    61    62    1
    15    61    60    1
    16     2     5    1
    17     8     7    1
    18    62    56    1
    19     7    10    1
    20    60    57    1
    21    55    54    1
    22    54    53    1
    23   150   149    2
    24   167   168    1
    25   154   153    1
    26   154   157    1
    27    74    73    2
    28    10    11    1
    29    10    12    1
    30   149   153   am
    31   149   148    1
    32    53    52    1
    33   147   148    1
    34   148   151    1
    35    52    51    1
    36    11    13    1
    37    56    57    1
    38    56    49   am
    39   157   158    1
    40   138   137    2
    41    73    72    1
    42    57    58    1
    43    71    72    1
    44   143   141   ar
    45   143   145   ar
    46    51    48    1
    47    59    58    2
    48    48    49    1
    49    48    47    1
    50   137   136    1
    51   141   140   ar
    52    58    63   am
    53    49    50    2
    54   146   145    1
    55    72    75    1
    56   151   152    1
    57    65    66    2
    58    65    64    1
    59   145   144   ar
    60   158   160    1
    61   158   159    1
    62    63    64    1
    63    99   100    1
    64    77    75    1
    65   140   139    1
    66   140   142   ar
    67   102   101    2
    68    64    67    1
    69   136   139    1
    70   136   135    1
    71    75    76    1
    72   101   100    1
    73   129   128    2
    74   144   142   ar
    75   128   127    1
    76   135   133   am
    77   100   103    1
    78   134   133    2
    79   131   132    1
    80   130   127    1
    81   133   132    1
    82    76    78    1
    83    67    69    1
    84    67    68    1
    85   127   126    1
    86   103   104    1
    87   174   173    1
    88    23    22    1
    89   173   170    1
    90    20    19    1
    91    20    21    1
    92   169   170    1
    93    36    35    2
    94    68    70    1
    95    19    18    1
    96   126   121   am
    97    35    34    1
    98    22    21    2
    99    22    24    1
   100   104   105   ar
   101   104   106   ar
   102   170   171    1
   103   122   121    2
   104   121   120    1
   105   105   107   ar
   106   116   115    2
   107   119   120    1
   108   115   114    1
   109    37    34    1
   110    37    38    1
   111   171   172    2
   112    18    15    1
   113    34    33    1
   114   106   109   ar
   115   106   108   ar
   116   120   123    1
   117   109   111   ar
   118    15    14    1
   119    15    16    1
   120    43    40   ar
   121    43    45   ar
   122   107   108   ar
   123    38    40   ar
   124    38    39   ar
   125    40    42   ar
   126    45    46   ar
   127   108   110   ar
   128   114   117    1
   129   114   113    1
   130   117   118    1
   131    39    41   ar
   132   111   112   ar
   133   123   124    1
   134   123   125    1
   135    42    41   ar
   136    42    44   ar
   137    46    44   ar
   138    16    25   am
   139    16    17    2
   140    25    26    1
   141   110   112   ar
   142    29    26    1
   143    29    30    1
   144    26    27    1
   145    90    87    1
   146    89    88    2
   147    32    30    1
   148    87    88    1
   149    87    86    1
   150    27    28    2
   151    30    31    1
   152    88    91   am
   153    91    92    1
   154    79    80    1
   155    92    93    1
   156    92    95    1
   157    85    83    1
   158    80    81    1
   159    80    83    1
   160    93    94    2
   161    82    81    2
   162    97    96    1
   163    97    98    1
   164    83    84    1
   165    96    95    1
