@<TRIPOS>MOLECULE
tmp/6bl0A01.pdb
 147 140 0 0 0
SMALL
GASTEIGER

@<TRIPOS>ATOM
      1  N         15.9980  328.6890   48.6760 N.3   285  SER285     -0.1202
      2  CA        15.0760  327.7920   47.9920 C.3   285  SER285      0.2020
      3  C         15.8020  326.5530   47.5200 C.2   285  SER285      0.2619
      4  O         16.9120  326.6470   46.9920 O.2   285  SER285     -0.2717
      5  CB        14.4310  328.5110   46.8100 C.3   285  SER285      0.2103
      6  OG        13.5870  327.6720   46.0370 O.3   285  SER285     -0.2182
      7  N         15.1490  325.3940   47.6930 N.am  286  LEU286     -0.1965
      8  CA        15.6420  324.0800   47.2700 C.3   286  LEU286      0.1728
      9  C         16.0130  324.0310   45.7970 C.2   286  LEU286      0.2616
     10  O         17.1040  323.5780   45.4710 O.2   286  LEU286     -0.2715
     11  CB        14.6010  322.9850   47.5700 C.3   286  LEU286      0.0311
     12  CG        15.0120  321.8670   48.5180 C.3   286  LEU286      0.0022
     13  CD1       14.0290  320.7180   48.4160 C.3   286  LEU286      0.0001
     14  CD2       16.4540  321.3710   48.2580 C.3   286  LEU286      0.0001
     15  N         15.1300  324.5330   44.9350 N.am  287  GLY287     -0.1955
     16  CA        15.3450  324.5780   43.4940 C.3   287  GLY287      0.1869
     17  C         16.3240  325.6180   42.9800 C.2   287  GLY287      0.2309
     18  O         16.5350  325.6990   41.7760 O.2   287  GLY287     -0.2863
     19  N         16.1820  318.4310   41.6200 N.3   307  HIS307     -0.1226
     20  CA        14.9850  318.6170   42.4390 C.3   307  HIS307      0.1752
     21  C         13.8920  317.6990   41.8430 C.2   307  HIS307      0.2596
     22  O         14.1560  317.0040   40.8620 O.2   307  HIS307     -0.2718
     23  CB        14.5490  320.1030   42.5000 C.3   307  HIS307      0.0759
     24  CG        14.3290  320.7360   41.1580 C.ar  307  HIS307      0.0818
     25  ND1       13.3040  320.3250   40.3170 N.ar  307  HIS307     -0.2268
     26  CD2       14.9990  321.7520   40.5640 C.ar  307  HIS307      0.1154
     27  CE1       13.4050  321.0800   39.2320 C.ar  307  HIS307      0.1986
     28  NE2       14.4010  321.9610   39.3390 N.ar  307  HIS307     -0.2212
     29  N         12.6950  317.7130   42.4270 N.am  308  GLY308     -0.1957
     30  CA        11.5810  316.8910   41.9610 C.3   308  GLY308      0.1869
     31  C         10.9940  317.2950   40.6200 C.2   308  GLY308      0.2309
     32  O         11.3860  318.3070   40.0350 O.2   308  GLY308     -0.2863
     33  N          7.8760  318.1920   40.2340 N.3   310  VAL310     -0.1245
     34  CA         6.8240  319.1590   40.6200 C.3   310  VAL310      0.1561
     35  C          5.4300  318.6300   40.1990 C.2   310  VAL310      0.2260
     36  O          4.7690  319.2010   39.3260 O.2   310  VAL310     -0.2867
     37  CB         7.1020  320.6220   40.1180 C.3   310  VAL310      0.0252
     38  CG1        6.3180  321.6470   40.9320 C.3   310  VAL310      0.0019
     39  CG2        8.5910  320.9640   40.1200 C.3   310  VAL310      0.0019
     40  N          2.5180  318.3630   41.9660 N.3   312  ARG312     -0.1231
     41  CA         1.4320  319.2490   42.4040 C.3   312  ARG312      0.1694
     42  C          1.0490  320.2930   41.3520 C.2   312  ARG312      0.2592
     43  O         -0.1450  320.5090   41.1180 O.2   312  ARG312     -0.2718
     44  CB         1.7560  319.8920   43.7530 C.3   312  ARG312      0.0321
     45  CG         1.1840  319.1080   44.9260 C.3   312  ARG312      0.0489
     46  CD         1.6400  319.6540   46.2590 C.3   312  ARG312      0.2205
     47  NE         3.0810  319.4810   46.4370 N.pl3 312  ARG312     -0.0865
     48  CZ         3.7980  320.0950   47.3710 C.cat 312  ARG312      0.5346
     49  NH1        3.2170  320.9390   48.2160 N.pl3 312  ARG312      0.1354
     50  NH2        5.1040  319.8830   47.4580 N.pl3 312  ARG312      0.1354
     51  N          2.0600  320.8590   40.6570 N.am  313  HIS313     -0.1976
     52  CA         1.8610  321.7900   39.5550 C.3   313  HIS313      0.1656
     53  C          1.4230  321.0190   38.3360 C.2   313  HIS313      0.2291
     54  O          0.5280  321.4800   37.6440 O.2   313  HIS313     -0.2864
     55  CB         3.1550  322.5550   39.2140 C.3   313  HIS313      0.0771
     56  CG         3.4480  323.7230   40.1020 C.ar  313  HIS313      0.0820
     57  ND1        4.4710  324.6020   39.8090 N.ar  313  HIS313     -0.2267
     58  CD2        2.8560  324.1090   41.2560 C.ar  313  HIS313      0.1154
     59  CE1        4.4720  325.4920   40.7860 C.ar  313  HIS313      0.1986
     60  NE2        3.5180  325.2390   41.6850 N.ar  313  HIS313     -0.2212
     61  N         -2.2400  320.4650   38.1390 N.3   316  MET316     -0.1245
     62  CA        -2.8820  321.7400   37.8260 C.3   316  MET316      0.1570
     63  C         -2.7710  322.0240   36.3290 C.2   316  MET316      0.2261
     64  O         -3.7850  322.3280   35.7060 O.2   316  MET316     -0.2867
     65  CB        -2.2560  322.8850   38.6300 C.3   316  MET316      0.0387
     66  CG        -2.5990  322.8830   40.0800 C.3   316  MET316      0.0595
     67  SD        -1.4930  323.9950   40.9950 S.3   316  MET316     -0.1393
     68  CE        -2.3470  324.0440   42.5650 C.3   316  MET316      0.0692
     69  N         -3.7800  327.4520   36.3780 N.3   322  GLU322     -0.1231
     70  CA        -2.6210  328.3190   36.4300 C.3   322  GLU322      0.1699
     71  C         -1.5610  327.7290   37.3680 C.2   322  GLU322      0.2593
     72  O         -1.8880  327.2940   38.4730 O.2   322  GLU322     -0.2718
     73  CB        -3.0300  329.7430   36.8360 C.3   322  GLU322      0.0402
     74  CG        -2.1510  330.7990   36.1890 C.3   322  GLU322      0.1161
     75  CD        -2.6030  332.2400   36.3310 C.2   322  GLU322      0.3649
     76  OE1       -2.6830  332.7290   37.4820 O.co2 322  GLU322     -0.2457
     77  OE2       -2.8560  332.8850   35.2870 O.co2 322  GLU322     -0.2457
     78  N         -0.3190  327.6320   36.8760 N.am  323  THR323     -0.1939
     79  CA         0.8380  327.1480   37.6340 C.3   323  THR323      0.2028
     80  C          1.9310  328.2270   37.6320 C.2   323  THR323      0.2643
     81  O          1.9890  329.0530   36.7220 O.2   323  THR323     -0.2714
     82  CB         1.4050  325.8090   37.0740 C.3   323  THR323      0.1808
     83  OG1        2.0220  326.0200   35.8080 O.3   323  THR323     -0.2208
     84  CG2        0.3760  324.7060   36.9890 C.3   323  THR323      0.0379
     85  N          2.8250  328.1740   38.6160 N.am  324  SER324     -0.1935
     86  CA         3.9520  329.0910   38.7350 C.3   324  SER324      0.2055
     87  C          5.2160  328.2590   39.0740 C.2   324  SER324      0.2644
     88  O          5.6690  328.2240   40.2250 O.2   324  SER324     -0.2714
     89  CB         3.6450  330.1740   39.7680 C.3   324  SER324      0.2130
     90  OG         4.6260  331.1940   39.7610 O.3   324  SER324     -0.2179
     91  N          5.7850  327.6060   38.0380 N.am  325  THR325     -0.1936
     92  CA         6.9400  326.7060   38.1670 C.3   325  THR325      0.2028
     93  C          8.2980  327.3690   37.9710 C.2   325  THR325      0.2642
     94  O          8.5960  327.8280   36.8670 O.2   325  THR325     -0.2714
     95  CB         6.8190  325.4770   37.2300 C.3   325  THR325      0.1808
     96  OG1        5.4970  324.9340   37.2870 O.3   325  THR325     -0.2208
     97  CG2        7.8440  324.4010   37.5500 C.3   325  THR325      0.0379
     98  N          9.1700  327.2780   39.0120 N.am  326  ASN326     -0.1971
     99  CA        10.5250  327.8070   38.9580 C.3   326  ASN326      0.1688
    100  C         11.3810  326.9810   37.9630 C.2   326  ASN326      0.2292
    101  O         11.6750  325.8010   38.2000 O.2   326  ASN326     -0.2864
    102  CB        11.1510  327.8520   40.3660 C.3   326  ASN326      0.1181
    103  CG        12.5130  328.5050   40.4610 C.2   326  ASN326      0.2629
    104  OD1       13.2790  328.6170   39.4800 O.2   326  ASN326     -0.2716
    105  ND2       12.8580  328.9300   41.6720 N.am  326  ASN326     -0.0877
    106  N          5.8080  332.0300   42.0890 N.3   372  LYS372     -0.1231
    107  CA         5.1450  332.0070   43.4030 C.3   372  LYS372      0.1693
    108  C          6.0520  331.5990   44.5790 C.2   372  LYS372      0.2592
    109  O          6.0210  332.2760   45.6090 O.2   372  LYS372     -0.2718
    110  CB         3.8810  331.1440   43.3790 C.3   372  LYS372      0.0285
    111  CG         2.8460  331.5790   44.4120 C.3   372  LYS372      0.0035
    112  CD         1.4850  330.9310   44.1860 C.3   372  LYS372      0.0206
    113  CE         0.5090  331.3510   45.2640 C.3   372  LYS372      0.1093
    114  NZ        -0.8520  330.8070   45.0510 N.3   372  LYS372     -0.1314
    115  N          6.8600  330.5250   44.4220 N.am  373  ASP373     -0.1974
    116  CA         7.7780  329.9980   45.4430 C.3   373  ASP373      0.1709
    117  C          8.7310  331.0730   45.9770 C.2   373  ASP373      0.2293
    118  O          8.8440  331.2300   47.1880 O.2   373  ASP373     -0.2864
    119  CB         8.5820  328.7800   44.8980 C.3   373  ASP373      0.1436
    120  CG         9.4610  329.0570   43.6810 C.2   373  ASP373      0.3671
    121  OD1       10.6680  328.7090   43.7230 O.co2 373  ASP373     -0.2456
    122  OD2        8.9480  329.6310   42.6960 O.co2 373  ASP373     -0.2456
    123  N          7.0160  333.8380   47.8370 N.3   376  ALA376     -0.1245
    124  CA         6.7070  333.3520   49.1800 C.3   376  ALA376      0.1562
    125  C          7.9370  333.4330   50.0700 C.2   376  ALA376      0.2260
    126  O          7.7910  333.7010   51.2570 O.2   376  ALA376     -0.2867
    127  CB         6.1510  331.9370   49.1350 C.3   376  ALA376      0.0290
    128  N          4.1480  332.9460   52.4420 N.3   381  LEU381     -0.1245
    129  CA         3.0250  332.4080   51.6650 C.3   381  LEU381      0.1561
    130  C          1.6410  333.0600   51.9770 C.2   381  LEU381      0.2260
    131  O          0.9540  333.3680   50.9990 O.2   381  LEU381     -0.2867
    132  CB         2.9430  330.8670   51.7510 C.3   381  LEU381      0.0270
    133  CG         1.8820  330.1480   50.8730 C.3   381  LEU381      0.0019
    134  CD1        2.0990  330.3980   49.3850 C.3   381  LEU381      0.0001
    135  CD2        1.8320  328.6680   51.1700 C.3   381  LEU381      0.0001
    136  N          3.7840  337.7070   41.7760 N.3   389  TYR389     -0.1241
    137  CA         4.4620  336.6810   40.9870 C.3   389  TYR389      0.1605
    138  C          3.9310  336.5520   39.5650 C.2   389  TYR389      0.2264
    139  O          2.8570  337.0610   39.2400 O.2   389  TYR389     -0.2867
    140  CB         4.4090  335.3130   41.7070 C.3   389  TYR389      0.0534
    141  CG         3.0200  334.7110   41.8040 C.ar  389  TYR389     -0.0201
    142  CD1        2.5360  333.8550   40.8180 C.ar  389  TYR389     -0.0009
    143  CD2        2.1900  334.9960   42.8840 C.ar  389  TYR389     -0.0009
    144  CE1        1.2500  333.3150   40.8940 C.ar  389  TYR389      0.0417
    145  CE2        0.9070  334.4570   42.9760 C.ar  389  TYR389      0.0417
    146  CZ         0.4410  333.6150   41.9800 C.ar  389  TYR389      0.1957
    147  OH        -0.8220  333.0730   42.0900 O.3   389  TYR389     -0.2866
@<TRIPOS>BOND
     1    77    75   ar
     2    64    63    2
     3    83    82    1
     4    74    75    1
     5    74    73    1
     6    63    62    1
     7    75    76   ar
     8    69    70    1
     9    70    73    1
    10    70    71    1
    11    81    80    2
    12    94    93    2
    13    78    71   am
    14    78    79    1
    15    84    82    1
    16    82    79    1
    17    95    96    1
    18    95    97    1
    19    95    92    1
    20    71    72    2
    21    80    79    1
    22    80    85   am
    23    54    53    2
    24    62    61    1
    25    62    65    1
    26   100   101    2
    27   100    99    1
    28    93    92    1
    29    93    98   am
    30    91    92    1
    31    91    87   am
    32    53    52    1
    33    85    86    1
    34    65    66    1
    35    86    87    1
    36    86    89    1
    37    99    98    1
    38    99   102    1
    39    87    88    2
    40    55    52    1
    41    55    56    1
    42    27    28   ar
    43    27    25   ar
    44   139   138    2
    45    36    35    2
    46    28    26   ar
    47   104   103    2
    48    52    51    1
    49   138   137    1
    50    90    89    1
    51    57    56   ar
    52    57    59   ar
    53    32    31    2
    54    66    67    1
    55    56    58   ar
    56    37    39    1
    57    37    34    1
    58    37    38    1
    59    35    34    1
    60    33    34    1
    61    25    24   ar
    62   102   103    1
    63   103   105   am
    64    26    24   ar
    65    31    30    1
    66    51    42   am
    67    59    60   ar
    68   142   144   ar
    69   142   141   ar
    70    22    21    2
    71   144   146   ar
    72   137   140    1
    73   137   136    1
    74    67    68    1
    75    43    42    2
    76    24    23    1
    77    58    60   ar
    78    42    41    1
    79    19    20    1
    80   140   141    1
    81    18    17    2
    82   141   143   ar
    83    21    29   am
    84    21    20    1
    85    30    29    1
    86    40    41    1
    87   146   147    1
    88   146   145   ar
    89   106   107    1
    90    41    44    1
    91    20    23    1
    92   122   120   ar
    93   143   145   ar
    94    17    16    1
    95   110   107    1
    96   110   111    1
    97   107   108    1
    98    16    15    1
    99   120   121   ar
   100   120   119    1
   101    44    45    1
   102   112   111    1
   103   112   113    1
   104   115   108   am
   105   115   116    1
   106   108   109    2
   107   119   116    1
   108    45    46    1
   109    15     9   am
   110   114   113    1
   111   116   117    1
   112    10     9    2
   113     9     8    1
   114   117   118    2
   115     6     5    1
   116    46    47    1
   117    47    48    2
   118     5     2    1
   119     4     3    2
   120     8    11    1
   121     8     7    1
   122    48    50    1
   123    48    49    1
   124     3     7   am
   125     3     2    1
   126    11    12    1
   127   123   124    1
   128     2     1    1
   129    14    12    1
   130    13    12    1
   131   127   124    1
   132   124   125    1
   133   134   133    1
   134   125   126    2
   135   133   135    1
   136   133   132    1
   137   131   130    2
   138   129   132    1
   139   129   130    1
   140   129   128    1
