@<TRIPOS>MOLECULE
tmp/6bl1A01.pdb
 135 128 0 0 0
SMALL
GASTEIGER

@<TRIPOS>ATOM
      1  N         24.0610  221.7370   45.4170 N.3   285  SER285     -0.1202
      2  CA        25.3050  222.3960   45.0170 C.3   285  SER285      0.2020
      3  C         25.1840  223.9200   44.8630 C.2   285  SER285      0.2619
      4  O         24.1820  224.4190   44.3390 O.2   285  SER285     -0.2717
      5  CB        25.7920  221.8020   43.6880 C.3   285  SER285      0.2103
      6  OG        26.9020  222.4740   43.1080 O.3   285  SER285     -0.2182
      7  N         26.2790  224.6320   45.2130 N.am  286  LEU286     -0.1965
      8  CA        26.4380  226.0880   45.0220 C.3   286  LEU286      0.1728
      9  C         26.4480  226.4280   43.5380 C.2   286  LEU286      0.2616
     10  O         25.9420  227.4830   43.1580 O.2   286  LEU286     -0.2715
     11  CB        27.7630  226.5860   45.6270 C.3   286  LEU286      0.0311
     12  CG        27.8280  226.7880   47.1380 C.3   286  LEU286      0.0022
     13  CD1       29.2340  227.2220   47.5540 C.3   286  LEU286      0.0001
     14  CD2       26.8130  227.8250   47.6010 C.3   286  LEU286      0.0001
     15  N         27.0180  225.5350   42.7180 N.am  287  GLY287     -0.1955
     16  CA        27.0900  225.6990   41.2720 C.3   287  GLY287      0.1869
     17  C         25.7770  225.4480   40.5570 C.2   287  GLY287      0.2309
     18  O         25.7210  225.4940   39.3190 O.2   287  GLY287     -0.2863
     19  N         28.3140  232.4580   42.4020 N.3   307  HIS307     -0.1226
     20  CA        29.4070  231.7680   43.0900 C.3   307  HIS307      0.1752
     21  C         30.7860  232.4170   42.8630 C.2   307  HIS307      0.2596
     22  O         30.8770  233.4580   42.2340 O.2   307  HIS307     -0.2718
     23  CB        29.4080  230.2680   42.7090 C.3   307  HIS307      0.0759
     24  CG        29.5140  230.0130   41.2310 C.ar  307  HIS307      0.0818
     25  ND1       30.7060  230.2110   40.5400 N.ar  307  HIS307     -0.2268
     26  CD2       28.5790  229.5600   40.3660 C.ar  307  HIS307      0.1154
     27  CE1       30.4520  229.8620   39.2900 C.ar  307  HIS307      0.1986
     28  NE2       29.1820  229.4870   39.1330 N.ar  307  HIS307     -0.2212
     29  N         31.8360  231.7690   43.3520 N.am  308  GLY308     -0.1957
     30  CA        33.2120  232.2350   43.2540 C.3   308  GLY308      0.1869
     31  C         33.8540  232.0490   41.8970 C.2   308  GLY308      0.2309
     32  O         33.1950  231.6260   40.9380 O.2   308  GLY308     -0.2863
     33  N         36.5430  229.9840   41.5490 N.3   310  VAL310     -0.1245
     34  CA        37.0960  228.6160   41.6140 C.3   310  VAL310      0.1561
     35  C         38.6440  228.6170   41.4210 C.2   310  VAL310      0.2260
     36  O         39.1930  228.0170   40.4730 O.2   310  VAL310     -0.2867
     37  CB        36.3370  227.6450   40.6490 C.3   310  VAL310      0.0252
     38  CG1       36.6490  226.1810   40.9690 C.3   310  VAL310      0.0019
     39  CG2       34.8220  227.8840   40.6900 C.3   310  VAL310      0.0019
     40  N         41.2280  227.2140   43.1390 N.3   312  ARG312     -0.1231
     41  CA        41.9210  225.9150   43.1710 C.3   312  ARG312      0.1694
     42  C         42.0310  225.2690   41.7770 C.2   312  ARG312      0.2592
     43  O         43.1420  224.9130   41.3520 O.2   312  ARG312     -0.2718
     44  CB        41.2770  224.9670   44.1890 C.3   312  ARG312      0.0321
     45  CG        41.5370  225.3940   45.6390 C.3   312  ARG312      0.0489
     46  CD        41.0980  224.3600   46.6570 C.3   312  ARG312      0.2205
     47  NE        42.0260  223.2280   46.7210 N.pl3 312  ARG312     -0.0865
     48  CZ        41.8660  222.1680   47.5070 C.cat 312  ARG312      0.5346
     49  NH1       40.8100  222.0780   48.3080 N.pl3 312  ARG312      0.1354
     50  NH2       42.7620  221.1890   47.4990 N.pl3 312  ARG312      0.1354
     51  N         40.8940  225.1960   41.0410 N.am  313  HIS313     -0.1976
     52  CA        40.8710  224.6470   39.6900 C.3   313  HIS313      0.1656
     53  C         41.7440  225.4850   38.7800 C.2   313  HIS313      0.2291
     54  O         42.4980  224.9270   37.9800 O.2   313  HIS313     -0.2864
     55  CB        39.4440  224.5580   39.1490 C.3   313  HIS313      0.0771
     56  CG        38.6370  223.4340   39.7230 C.ar  313  HIS313      0.0820
     57  ND1       37.3850  223.1240   39.2220 N.ar  313  HIS313     -0.2267
     58  CD2       38.9220  222.5840   40.7390 C.ar  313  HIS313      0.1154
     59  CE1       36.9550  222.0940   39.9320 C.ar  313  HIS313      0.1986
     60  NE2       37.8400  221.7390   40.8650 N.ar  313  HIS313     -0.2212
     61  N         45.3820  224.5150   39.4910 N.3   316  MET316     -0.1245
     62  CA        45.5540  223.2110   38.8290 C.3   316  MET316      0.1570
     63  C         45.7380  223.4220   37.3100 C.2   316  MET316      0.2261
     64  O         46.6870  222.8880   36.7270 O.2   316  MET316     -0.2867
     65  CB        44.3300  222.3140   39.0920 C.3   316  MET316      0.0387
     66  CG        44.1870  221.8700   40.5350 C.3   316  MET316      0.0595
     67  SD        42.5080  221.3310   40.9570 S.3   316  MET316     -0.1393
     68  CE        42.4490  219.7400   40.1230 C.3   316  MET316      0.0692
     69  N         44.9300  218.4390   34.5350 N.3   322  GLU322     -0.1182
     70  CA        43.4860  218.2590   34.2770 C.3   322  GLU322      0.1915
     71  C         42.5420  218.7780   35.3960 C.2   322  GLU322      0.2635
     72  O         42.7760  218.5220   36.5830 O.2   322  GLU322     -0.2714
     73  CB        43.1950  216.7720   33.9690 C.2   322  GLU322      0.0085
     74  CG        41.8230  216.4860   33.3760 C.2   322  GLU322      0.0835
     75  CD        41.5040  215.0180   33.1660 C.2   322  GLU322      0.3877
     76  OE1       41.4150  214.2770   34.1720 O.co2 322  GLU322     -0.2406
     77  OE2       41.3320  214.6090   31.9950 O.co2 322  GLU322     -0.2406
     78  N         41.4740  219.5040   34.9840 N.am  323  THR323     -0.1936
     79  CA        40.4390  220.0950   35.8570 C.3   323  THR323      0.2028
     80  C         39.0310  219.6970   35.3830 C.2   323  THR323      0.2643
     81  O         38.8430  219.4080   34.1970 O.2   323  THR323     -0.2714
     82  CB        40.5450  221.6410   35.8820 C.3   323  THR323      0.1808
     83  OG1       40.3000  222.1590   34.5720 O.3   323  THR323     -0.2208
     84  CG2       41.8830  222.1350   36.3810 C.3   323  THR323      0.0379
     85  N         38.0500  219.7150   36.3050 N.am  324  SER324     -0.1935
     86  CA        36.6480  219.4090   36.0320 C.3   324  SER324      0.2055
     87  C         35.7470  220.3560   36.8740 C.2   324  SER324      0.2644
     88  O         35.4080  220.0480   38.0240 O.2   324  SER324     -0.2714
     89  CB        36.3640  217.9350   36.3030 C.3   324  SER324      0.2130
     90  OG        34.9750  217.6630   36.2950 O.3   324  SER324     -0.2179
     91  N         35.3830  221.5250   36.2750 N.am  325  THR325     -0.1936
     92  CA        34.6050  222.6030   36.9140 C.3   325  THR325      0.2028
     93  C         33.1580  222.6670   36.4290 C.2   325  THR325      0.2642
     94  O         32.9260  222.6940   35.2170 O.2   325  THR325     -0.2714
     95  CB        35.2670  223.9740   36.6370 C.3   325  THR325      0.1808
     96  OG1       36.6800  223.8290   36.4450 O.3   325  THR325     -0.2208
     97  CG2       34.9410  225.0170   37.7050 C.3   325  THR325      0.0379
     98  N         32.2000  222.7770   37.3750 N.am  326  ASN326     -0.1971
     99  CA        30.7630  222.8910   37.0890 C.3   326  ASN326      0.1688
    100  C         30.4250  224.2310   36.3620 C.2   326  ASN326      0.2292
    101  O         30.5880  225.3070   36.9650 O.2   326  ASN326     -0.2864
    102  CB        29.9510  222.7430   38.3740 C.3   326  ASN326      0.1181
    103  CG        28.4510  222.6170   38.1750 C.2   326  ASN326      0.2629
    104  OD1       27.8920  222.9400   37.1330 O.2   326  ASN326     -0.2716
    105  ND2       27.7580  222.1260   39.1710 N.am  326  ASN326     -0.0877
    106  N         33.3710  216.5610   38.2670 N.3   372  LYS372     -0.1231
    107  CA        33.9530  215.9510   39.4820 C.3   372  LYS372      0.1693
    108  C         33.2570  216.3640   40.7720 C.2   372  LYS372      0.2592
    109  O         33.0010  215.5180   41.6370 O.2   372  LYS372     -0.2718
    110  CB        35.4710  216.2360   39.5420 C.3   372  LYS372      0.0285
    111  CG        36.2420  215.5960   40.6890 C.3   372  LYS372      0.0035
    112  CD        37.7290  215.8470   40.4810 C.3   372  LYS372      0.0206
    113  CE        38.5900  215.4210   41.6400 C.3   372  LYS372      0.1093
    114  NZ        40.0220  215.7470   41.3910 N.3   372  LYS372     -0.1314
    115  N         32.9460  217.6620   40.8890 N.am  373  ASP373     -0.1974
    116  CA        32.2630  218.2280   42.0530 C.3   373  ASP373      0.1709
    117  C         30.8240  217.6970   42.1840 C.2   373  ASP373      0.2293
    118  O         30.4000  217.3940   43.2930 O.2   373  ASP373     -0.2864
    119  CB        32.3320  219.7650   42.0250 C.3   373  ASP373      0.1436
    120  CG        31.7570  220.3480   40.7540 C.2   373  ASP373      0.3671
    121  OD1       30.5110  220.4760   40.6750 O.co2 373  ASP373     -0.2456
    122  OD2       32.5510  220.6480   39.8220 O.co2 373  ASP373     -0.2456
    123  N         30.9030  214.1010   43.2720 N.3   376  ALA376     -0.1245
    124  CA        31.1620  214.0980   44.7120 C.3   376  ALA376      0.1562
    125  C         29.8650  214.2670   45.5290 C.2   376  ALA376      0.2260
    126  O         29.8000  213.8060   46.6630 O.2   376  ALA376     -0.2867
    127  CB        32.1800  215.1710   45.0670 C.3   376  ALA376      0.0290
    128  N         33.3080  212.6750   47.8580 N.3   381  LEU381     -0.1245
    129  CA        34.6580  212.8640   47.2890 C.3   381  LEU381      0.1561
    130  C         35.6460  211.6560   47.4610 C.2   381  LEU381      0.2260
    131  O         36.3160  211.3530   46.4690 O.2   381  LEU381     -0.2867
    132  CB        35.3110  214.1750   47.7900 C.3   381  LEU381      0.0270
    133  CG        36.6800  214.5980   47.1780 C.3   381  LEU381      0.0019
    134  CD1       36.6090  214.7740   45.6540 C.3   381  LEU381      0.0001
    135  CD2       37.1930  215.8770   47.8160 C.3   381  LEU381      0.0001
@<TRIPOS>BOND
     1    77    75   ar
     2    75    74    1
     3    75    76   ar
     4    74    73    2
     5    73    70    1
     6    81    80    2
     7    70    69    1
     8    70    71    1
     9    83    82    1
    10    78    71   am
    11    78    79    1
    12    94    93    2
    13    80    79    1
    14    80    85   am
    15    71    72    2
    16    79    82    1
    17    82    84    1
    18    86    89    1
    19    86    85    1
    20    86    87    1
    21    91    87   am
    22    91    92    1
    23    90    89    1
    24   100   101    2
    25   100    99    1
    26    93    92    1
    27    93    98   am
    28    96    95    1
    29    95    92    1
    30    95    97    1
    31    64    63    2
    32    87    88    2
    33    99    98    1
    34    99   102    1
    35   104   103    2
    36    63    62    1
    37    54    53    2
    38   103   102    1
    39   103   105   am
    40   106   107    1
    41    53    52    1
    42    62    65    1
    43    62    61    1
    44    65    66    1
    45    28    27   ar
    46    28    26   ar
    47    55    52    1
    48    55    56    1
    49    57    56   ar
    50    57    59   ar
    51    27    25   ar
    52    18    17    2
    53   107   110    1
    54   107   108    1
    55   110   111    1
    56    52    51    1
    57    56    58   ar
    58   122   120   ar
    59    59    60   ar
    60    68    67    1
    61    26    24   ar
    62    36    35    2
    63   112   111    1
    64   112   113    1
    65    66    67    1
    66    25    24   ar
    67    17    16    1
    68    37    39    1
    69    37    38    1
    70    37    34    1
    71   121   120   ar
    72    58    60   ar
    73   120   119    1
    74   108   115   am
    75   108   109    2
    76   115   116    1
    77    32    31    2
    78    51    42   am
    79    24    23    1
    80    16    15    1
    81    43    42    2
    82   114   113    1
    83    35    34    1
    84    33    34    1
    85    42    41    1
    86    31    30    1
    87   119   116    1
    88   116   117    1
    89   117   118    2
    90    22    21    2
    91    19    20    1
    92    23    20    1
    93    15     9   am
    94    21    20    1
    95    21    29   am
    96     6     5    1
    97    40    41    1
    98    10     9    2
    99    41    44    1
   100    30    29    1
   101   123   124    1
   102     9     8    1
   103     5     2    1
   104    44    45    1
   105     4     3    2
   106   124   127    1
   107   124   125    1
   108     3     2    1
   109     3     7   am
   110     2     1    1
   111     8     7    1
   112     8    11    1
   113   125   126    2
   114    11    12    1
   115    45    46    1
   116   134   133    1
   117   131   130    2
   118    46    47    1
   119    47    48    2
   120    12    13    1
   121    12    14    1
   122   133   132    1
   123   133   135    1
   124   129   130    1
   125   129   132    1
   126   129   128    1
   127    50    48    1
   128    48    49    1
