@<TRIPOS>MOLECULE
tmp/6bl8A00.pdb
 153 145 0 0 0
SMALL
GASTEIGER

@<TRIPOS>ATOM
      1  N         43.2040   47.3940    0.4150 N.3    16  LEU16      -0.1231
      2  CA        43.5580   48.4030    1.4340 C.3    16  LEU16       0.1693
      3  C         44.2130   47.7610    2.6840 C.2    16  LEU16       0.2593
      4  O         45.1890   48.2850    3.2100 O.2    16  LEU16      -0.2718
      5  CB        42.3600   49.3100    1.7910 C.3    16  LEU16       0.0284
      6  CG        41.7790   50.1170    0.6140 C.3    16  LEU16       0.0019
      7  CD1       40.4740   50.7600    0.9870 C.3    16  LEU16       0.0001
      8  CD2       42.7740   51.1310    0.0660 C.3    16  LEU16       0.0001
      9  N         43.7140   46.5910    3.0600 N.am   17  GLY17      -0.1942
     10  CA        44.1840   45.7780    4.1700 C.3    17  GLY17       0.2014
     11  C         43.0890   44.8170    4.5580 C.2    17  GLY17       0.2639
     12  O         42.4870   44.1640    3.7080 O.2    17  GLY17      -0.2714
     13  N         42.7710   44.8110    5.8320 N.am   18  GLY18      -0.1954
     14  CA        41.6910   44.0090    6.3780 C.3    18  GLY18       0.1869
     15  C         42.2400   43.0950    7.4230 C.2    18  GLY18       0.2309
     16  O         43.3860   42.6510    7.3020 O.2    18  GLY18      -0.2863
     17  N         39.4460   44.6910    2.9960 N.3    24  VAL24      -0.1245
     18  CA        38.8510   45.8900    2.4250 C.3    24  VAL24       0.1561
     19  C         39.6160   46.2250    1.1460 C.2    24  VAL24       0.2260
     20  O         40.8530   46.2670    1.1500 O.2    24  VAL24      -0.2867
     21  CB        38.7460   47.1120    3.3760 C.3    24  VAL24       0.0252
     22  CG1       38.0870   48.2990    2.6730 C.3    24  VAL24       0.0019
     23  CG2       37.9780   46.7630    4.6350 C.3    24  VAL24       0.0019
     24  N         34.5560   51.4330   -1.5250 N.3    37  ALA37      -0.1245
     25  CA        35.2550   50.4920   -0.6510 C.3    37  ALA37       0.1562
     26  C         34.3930   49.2060   -0.6390 C.2    37  ALA37       0.2260
     27  O         33.1540   49.2600   -0.5770 O.2    37  ALA37      -0.2867
     28  CB        35.4170   51.0550    0.7560 C.3    37  ALA37       0.0290
     29  N         33.9820   45.4890    1.2140 N.3    39  LYS39      -0.1245
     30  CA        34.2990   44.6300    2.3620 C.3    39  LYS39       0.1561
     31  C         34.0110   43.2110    1.9350 C.2    39  LYS39       0.2260
     32  O         32.9070   42.9250    1.4710 O.2    39  LYS39      -0.2867
     33  CB        33.5130   44.9870    3.6540 C.3    39  LYS39       0.0271
     34  CG        34.4640   45.3310    4.7880 C.3    39  LYS39       0.0035
     35  CD        34.1730   44.6260    6.1050 C.3    39  LYS39       0.0206
     36  CE        35.3950   44.5700    7.0100 C.3    39  LYS39       0.1093
     37  NZ        35.9320   45.9170    7.3980 N.3    39  LYS39      -0.1314
     38  N         29.4680   55.8270    7.9110 N.3    67  VAL67      -0.1245
     39  CA        29.8590   55.2630    6.6070 C.3    67  VAL67       0.1561
     40  C         28.6240   54.7240    5.8630 C.2    67  VAL67       0.2260
     41  O         27.8900   53.8820    6.3910 O.2    67  VAL67      -0.2867
     42  CB        31.0130   54.2230    6.6870 C.3    67  VAL67       0.0252
     43  CG1       31.2710   53.5910    5.3190 C.3    67  VAL67       0.0019
     44  CG2       32.2870   54.8590    7.2120 C.3    67  VAL67       0.0019
     45  N         30.5090   50.1030    0.2090 N.3    83  THR83      -0.1203
     46  CA        30.2840   51.3600    0.9050 C.3    83  THR83       0.1994
     47  C         31.0370   52.4770    0.1670 C.2    83  THR83       0.2618
     48  O         31.8370   52.2040   -0.7390 O.2    83  THR83      -0.2717
     49  CB        30.8200   51.3020    2.3700 C.3    83  THR83       0.1784
     50  OG1       32.2340   51.3960    2.3310 O.3    83  THR83      -0.2211
     51  CG2       30.4000   50.0480    3.1370 C.3    83  THR83       0.0376
     52  N         30.8310   53.7270    0.6120 N.am   84  GLU84      -0.1965
     53  CA        31.5810   54.8820    0.1050 C.3    84  GLU84       0.1733
     54  C         33.0600   54.7180    0.5440 C.2    84  GLU84       0.2616
     55  O         33.3410   54.0510    1.5450 O.2    84  GLU84      -0.2715
     56  CB        31.0160   56.2000    0.6800 C.3    84  GLU84       0.0429
     57  CG        31.0820   56.3090    2.2010 C.3    84  GLU84       0.1163
     58  CD        30.5600   57.6010    2.7930 C.2    84  GLU84       0.3649
     59  OE1       29.7700   57.5340    3.7610 O.co2  84  GLU84      -0.2457
     60  OE2       30.9580   58.6810    2.3040 O.co2  84  GLU84      -0.2457
     61  N         33.9690   55.3190   -0.2070 N.am   85  PHE85      -0.1960
     62  CA        35.3870   55.2740    0.0580 C.3    85  PHE85       0.1771
     63  C         35.8110   56.4880    0.8720 C.2    85  PHE85       0.2619
     64  O         35.4630   57.6200    0.5310 O.2    85  PHE85      -0.2715
     65  CB        36.1670   55.1900   -1.2760 C.3    85  PHE85       0.0574
     66  CG        37.6720   55.1490   -1.1460 C.ar   85  PHE85      -0.0200
     67  CD1       38.3090   54.0550   -0.5650 C.ar   85  PHE85      -0.0042
     68  CD2       38.4580   56.1870   -1.6380 C.ar   85  PHE85      -0.0042
     69  CE1       39.6920   54.0170   -0.4480 C.ar   85  PHE85      -0.0003
     70  CE2       39.8470   56.1440   -1.5300 C.ar   85  PHE85      -0.0003
     71  CZ        40.4550   55.0570   -0.9430 C.ar   85  PHE85      -0.0000
     72  N         36.5610   56.2480    1.9540 N.am   86  MET86      -0.1963
     73  CA        37.1150   57.2890    2.8360 C.3    86  MET86       0.1736
     74  C         38.5790   57.3870    2.5000 C.2    86  MET86       0.2617
     75  O         39.3440   56.4940    2.8520 O.2    86  MET86      -0.2715
     76  CB        36.8890   56.9320    4.3000 C.3    86  MET86       0.0427
     77  CG        35.4190   56.7670    4.6570 C.3    86  MET86       0.0599
     78  SD        34.4400   58.2230    4.2650 S.3    86  MET86      -0.1393
     79  CE        35.2000   59.4890    5.3800 C.3    86  MET86       0.0692
     80  N         38.9460   58.4340    1.7530 N.am   87  THR87      -0.1937
     81  CA        40.2710   58.6530    1.1550 C.3    87  THR87       0.2028
     82  C         41.5010   58.5740    2.0970 C.2    87  THR87       0.2642
     83  O         42.5280   58.0890    1.6330 O.2    87  THR87      -0.2714
     84  CB        40.3110   59.9760    0.3660 C.3    87  THR87       0.1808
     85  OG1       39.9190   61.0390    1.2240 O.3    87  THR87      -0.2208
     86  CG2       39.3740   59.9590   -0.8470 C.3    87  THR87       0.0379
     87  N         41.4220   59.0350    3.3650 N.am   88  TYR88      -0.1959
     88  CA        42.6020   59.0740    4.2530 C.3    88  TYR88       0.1771
     89  C         42.7310   57.9090    5.2530 C.2    88  TYR88       0.2620
     90  O         43.6090   57.9720    6.1320 O.2    88  TYR88      -0.2715
     91  CB        42.7040   60.4240    5.0100 C.3    88  TYR88       0.0574
     92  CG        42.8970   61.5990    4.0870 C.ar   88  TYR88      -0.0198
     93  CD1       41.8180   62.1770    3.4330 C.ar   88  TYR88      -0.0009
     94  CD2       44.1690   62.0950    3.8100 C.ar   88  TYR88      -0.0009
     95  CE1       41.9940   63.2050    2.5080 C.ar   88  TYR88       0.0417
     96  CE2       44.3550   63.1480    2.9090 C.ar   88  TYR88       0.0417
     97  CZ        43.2620   63.6960    2.2580 C.ar   88  TYR88       0.1957
     98  OH        43.4150   64.7260    1.3640 O.3    88  TYR88      -0.2866
     99  N         41.8930   56.8780    5.1310 N.am   89  GLY89      -0.1940
    100  CA        41.9670   55.7330    6.0360 C.3    89  GLY89       0.2014
    101  C         41.4670   56.0100    7.4450 C.2    89  GLY89       0.2638
    102  O         40.7090   56.9590    7.6550 O.2    89  GLY89      -0.2714
    103  N         41.9090   55.2090    8.4250 N.am   90  ASN90      -0.1972
    104  CA        41.4010   55.3240    9.7910 C.3    90  ASN90       0.1688
    105  C         41.9810   56.5170   10.5750 C.2    90  ASN90       0.2292
    106  O         43.0600   57.0230   10.2690 O.2    90  ASN90      -0.2864
    107  CB        41.5040   54.0010   10.5750 C.3    90  ASN90       0.1181
    108  CG        42.8670   53.6210   11.0640 C.2    90  ASN90       0.2629
    109  OD1       43.4350   54.2380   11.9630 O.2    90  ASN90      -0.2716
    110  ND2       43.3980   52.5760   10.5140 N.am   90  ASN90      -0.0877
    111  N         45.6740   56.0650   12.5790 N.3    93  ASP93      -0.1239
    112  CA        46.8240   56.3050   11.7070 C.3    93  ASP93       0.1674
    113  C         46.8970   57.7520   11.2600 C.2    93  ASP93       0.2266
    114  O         47.9690   58.3100   11.1980 O.2    93  ASP93      -0.2867
    115  CB        46.7990   55.3620   10.4800 C.3    93  ASP93       0.1410
    116  CG        46.9090   53.8870   10.8340 C.2    93  ASP93       0.3668
    117  OD1       47.6040   53.5610   11.8270 O.co2  93  ASP93      -0.2456
    118  OD2       46.2610   53.0640   10.1520 O.co2  93  ASP93      -0.2456
    119  N         40.5430   53.6040   15.4850 N.3   135  ARG135     -0.1245
    120  CA        40.8090   52.6810   14.3700 C.3   135  ARG135      0.1563
    121  C         39.5060   52.3660   13.5620 C.2   135  ARG135      0.2260
    122  O         39.5770   51.8910   12.4180 O.2   135  ARG135     -0.2867
    123  CB        41.4300   51.3650   14.8870 C.3   135  ARG135      0.0307
    124  CG        40.4910   50.5610   15.7960 C.3   135  ARG135      0.0489
    125  CD        41.0740   49.2820   16.3970 C.3   135  ARG135      0.2205
    126  NE        40.1600   48.7280   17.4100 N.pl3 135  ARG135     -0.0865
    127  CZ        40.2880   48.9060   18.7240 C.cat 135  ARG135      0.5346
    128  NH1       41.3220   49.5780   19.2140 N.pl3 135  ARG135      0.1354
    129  NH2       39.3880   48.4060   19.5560 N.pl3 135  ARG135      0.1354
    130  N         36.8710   56.7280   10.1920 N.3   138  LEU138     -0.1245
    131  CA        37.5380   56.9490    8.9190 C.3   138  LEU138      0.1561
    132  C         37.5500   58.3830    8.5630 C.2   138  LEU138      0.2260
    133  O         36.6430   59.1160    8.9640 O.2   138  LEU138     -0.2867
    134  CB        36.9170   56.0580    7.8210 C.3   138  LEU138      0.0270
    135  CG        37.1730   54.5650    8.1030 C.3   138  LEU138      0.0019
    136  CD1       35.9250   53.8020    8.1410 C.3   138  LEU138      0.0001
    137  CD2       38.2380   54.0060    7.2290 C.3   138  LEU138      0.0001
    138  N         32.6810   53.8160   11.1720 N.3   148  ALA148     -0.1245
    139  CA        32.4300   52.5510   10.4500 C.3   148  ALA148      0.1562
    140  C         31.3330   51.8370   11.2600 C.2   148  ALA148      0.2260
    141  O         31.2750   51.9830   12.4910 O.2   148  ALA148     -0.2867
    142  CB        33.6850   51.7000   10.3840 C.3   148  ALA148      0.0290
    143  N         29.8750   48.2760   10.7080 N.3   150  PHE150     -0.1241
    144  CA        29.6510   46.8610   10.3910 C.3   150  PHE150      0.1605
    145  C         29.1060   46.0460   11.5690 C.2   150  PHE150      0.2264
    146  O         28.2570   45.1870   11.3680 O.2   150  PHE150     -0.2867
    147  CB        30.9230   46.2140    9.8230 C.3   150  PHE150      0.0534
    148  CG        31.2630   46.6750    8.4260 C.ar  150  PHE150     -0.0203
    149  CD1       30.5470   46.2060    7.3290 C.ar  150  PHE150     -0.0042
    150  CD2       32.3090   47.5690    8.2040 C.ar  150  PHE150     -0.0042
    151  CE1       30.8450   46.6500    6.0350 C.ar  150  PHE150     -0.0003
    152  CE2       32.6240   47.9940    6.9060 C.ar  150  PHE150     -0.0003
    153  CZ        31.8820   47.5360    5.8290 C.ar  150  PHE150     -0.0000
@<TRIPOS>BOND
     1    68    70   ar
     2    68    66   ar
     3    70    71   ar
     4    24    25    1
     5    65    66    1
     6    65    62    1
     7    66    67   ar
     8    71    69   ar
     9    86    84    1
    10    48    47    2
    11    25    26    1
    12    25    28    1
    13    26    27    2
    14    67    69   ar
    15    61    62    1
    16    61    54   am
    17    62    63    1
    18     8     6    1
    19    53    54    1
    20    53    52    1
    21    53    56    1
    22    47    52   am
    23    47    46    1
    24    45    46    1
    25    84    81    1
    26    84    85    1
    27     1     2    1
    28    64    63    2
    29    54    55    2
    30     6     7    1
    31     6     5    1
    32    56    57    1
    33    63    72   am
    34    46    49    1
    35    19    20    2
    36    19    18    1
    37    81    80    1
    38    81    82    1
    39    29    30    1
    40    98    97    1
    41     2     5    1
    42     2     3    1
    43    32    31    2
    44    83    82    2
    45    80    74   am
    46    31    30    1
    47    72    73    1
    48    82    87   am
    49    57    58    1
    50    97    95   ar
    51    97    96   ar
    52    60    58   ar
    53    50    49    1
    54    30    33    1
    55    49    51    1
    56    18    17    1
    57    18    21    1
    58    74    73    1
    59    74    75    2
    60    95    93   ar
    61    22    21    1
    62     3     9   am
    63     3     4    2
    64    58    59   ar
    65    73    76    1
    66    96    94   ar
    67     9    10    1
    68    87    88    1
    69    21    23    1
    70    93    92   ar
    71    33    34    1
    72    12    11    2
    73    94    92   ar
    74    92    91    1
    75    10    11    1
    76    88    91    1
    77    88    89    1
    78    78    77    1
    79    78    79    1
    80    76    77    1
    81    11    13   am
    82    34    35    1
    83    99    89   am
    84    99   100    1
    85    89    90    2
    86    43    42    1
    87   153   151   ar
    88   153   152   ar
    89    13    14    1
    90    40    41    2
    91    40    39    1
    92   151   149   ar
    93   100   101    1
    94    35    36    1
    95    14    15    1
    96    39    42    1
    97    39    38    1
    98    42    44    1
    99   152   150   ar
   100    36    37    1
   101   137   135    1
   102    16    15    2
   103   149   148   ar
   104   101   102    2
   105   101   103   am
   106   134   135    1
   107   134   131    1
   108   135   136    1
   109   150   148   ar
   110   103   104    1
   111   148   147    1
   112   132   131    1
   113   132   133    2
   114   131   130    1
   115   104   105    1
   116   104   107    1
   117   147   144    1
   118   118   116   ar
   119   106   105    2
   120   142   139    1
   121   144   143    1
   122   144   145    1
   123   139   138    1
   124   139   140    1
   125   115   116    1
   126   115   112    1
   127   110   108   am
   128   107   108    1
   129   116   117   ar
   130   108   109    2
   131   114   113    2
   132   113   112    1
   133   140   141    2
   134   146   145    2
   135   112   111    1
   136   122   121    2
   137   121   120    1
   138   120   123    1
   139   120   119    1
   140   123   124    1
   141   124   125    1
   142   125   126    1
   143   126   127    2
   144   127   128    1
   145   127   129    1
