@<TRIPOS>MOLECULE
tmp/6blaB01.pdb
 83 79 0 0 0
SMALL
GASTEIGER

@<TRIPOS>ATOM
      1  N         16.5910   34.9530  175.9590 N.3   153  ALA153     -0.1245
      2  CA        16.5300   34.3800  177.2950 C.3   153  ALA153      0.1562
      3  C         17.0400   35.4520  178.2360 C.2   153  ALA153      0.2260
      4  O         18.1870   35.8950  178.1120 O.2   153  ALA153     -0.2867
      5  CB        17.3680   33.1170  177.4220 C.3   153  ALA153      0.0290
      6  N         19.4420   37.9680  176.6940 N.3   156  SER156     -0.1203
      7  CA        20.4610   37.4850  175.7730 C.3   156  SER156      0.2005
      8  C         19.8250   36.8150  174.5710 C.2   156  SER156      0.2461
      9  O         18.9790   35.9320  174.7450 O.2   156  SER156     -0.2732
     10  CB        21.3790   36.5010  176.4790 C.3   156  SER156      0.2103
     11  OG        22.0070   37.1340  177.5730 O.3   156  SER156     -0.2182
     12  N         20.2060   37.1730  173.3480 N.am  157  PRO157     -0.2717
     13  CA        19.6170   36.5120  172.1830 C.3   157  PRO157      0.1535
     14  C         19.9230   35.0200  172.1530 C.2   157  PRO157      0.2598
     15  O         21.0240   34.5850  172.5140 O.2   157  PRO157     -0.2715
     16  CB        20.2710   37.2330  171.0030 C.3   157  PRO157      0.0310
     17  CG        20.6990   38.5210  171.5350 C.3   157  PRO157      0.0237
     18  CD        21.1020   38.2660  172.9520 C.3   157  PRO157      0.0939
     19  N         18.9460   34.2630  171.6740 N.am  158  VAL158     -0.1978
     20  CA        18.9970   32.8110  171.5210 C.3   158  VAL158      0.1596
     21  C         18.7400   32.4830  170.0570 C.2   158  VAL158      0.2287
     22  O         17.7170   32.8980  169.4950 O.2   158  VAL158     -0.2864
     23  CB        17.9470   32.1080  172.4020 C.3   158  VAL158      0.0276
     24  CG1       18.0400   30.5870  172.2460 C.3   158  VAL158      0.0022
     25  CG2       18.1050   32.5180  173.8460 C.3   158  VAL158      0.0022
     26  N         19.9720   28.9910  168.7370 N.3   160  ALA160     -0.1245
     27  CA        19.8140   27.5490  168.6720 C.3   160  ALA160      0.1562
     28  C         18.4280   27.1550  169.1440 C.2   160  ALA160      0.2260
     29  O         17.8740   27.7550  170.0670 O.2   160  ALA160     -0.2867
     30  CB        20.8710   26.8590  169.5320 C.3   160  ALA160      0.0290
     31  N         10.7110   27.9850  170.1080 N.3   181  LEU181     -0.1231
     32  CA        11.9950   27.8100  170.7800 C.3   181  LEU181      0.1693
     33  C         11.9230   26.5170  171.5830 C.2   181  LEU181      0.2593
     34  O         11.1220   26.4040  172.5170 O.2   181  LEU181     -0.2718
     35  CB        12.3190   29.0010  171.6860 C.3   181  LEU181      0.0284
     36  CG        13.6300   28.8900  172.4670 C.3   181  LEU181      0.0019
     37  CD1       14.7870   28.6070  171.5550 C.3   181  LEU181      0.0001
     38  CD2       13.8720   30.1560  173.2390 C.3   181  LEU181      0.0001
     39  N         12.7330   25.5410  171.1880 N.am  182  SER182     -0.1938
     40  CA        12.8110   24.2570  171.8790 C.3   182  SER182      0.2055
     41  C         13.9050   24.3230  172.9300 C.2   182  SER182      0.2642
     42  O         15.0440   24.7050  172.6330 O.2   182  SER182     -0.2714
     43  CB        13.1000   23.1210  170.8950 C.3   182  SER182      0.2130
     44  OG        12.0610   22.9920  169.9420 O.3   182  SER182     -0.2179
     45  N         13.5510   23.9270  174.1500 N.am  183  LEU183     -0.1977
     46  CA        14.3840   24.0460  175.3360 C.3   183  LEU183      0.1596
     47  C         14.2660   22.7640  176.1420 C.2   183  LEU183      0.2287
     48  O         13.2790   22.0380  176.0370 O.2   183  LEU183     -0.2864
     49  CB        13.9410   25.1670  176.2690 C.3   183  LEU183      0.0297
     50  CG        13.7570   26.5980  175.8290 C.3   183  LEU183      0.0022
     51  CD1       13.3260   27.4110  177.0390 C.3   183  LEU183      0.0001
     52  CD2       15.0520   27.0780  175.2970 C.3   183  LEU183      0.0001
     53  N         16.7030   24.2630  181.0600 N.3   187  GLN187     -0.1245
     54  CA        16.9310   25.5780  180.4620 C.3   187  GLN187      0.1566
     55  C         15.7610   26.5140  180.7350 C.2   187  GLN187      0.2260
     56  O         15.9580   27.6880  181.0630 O.2   187  GLN187     -0.2867
     57  CB        17.1520   25.4450  178.9530 C.3   187  GLN187      0.0367
     58  CG        18.5040   24.9000  178.5470 C.3   187  GLN187      0.0905
     59  CD        18.5760   24.6510  177.0600 C.2   187  GLN187      0.2608
     60  OE1       17.6720   24.0440  176.4820 O.2   187  GLN187     -0.2717
     61  NE2       19.6320   25.1430  176.4240 N.am  187  GLN187     -0.0878
     62  N         16.2260   30.4250  183.7190 N.3   191  HIS191     -0.1241
     63  CA        16.2430   31.8420  183.4120 C.3   191  HIS191      0.1621
     64  C         15.0020   32.4950  183.9930 C.2   191  HIS191      0.2264
     65  O         13.9950   31.8360  184.2590 O.2   191  HIS191     -0.2867
     66  CB        16.3200   32.0840  181.9000 C.3   191  HIS191      0.0745
     67  CG        17.5890   31.5860  181.2790 C.ar  191  HIS191      0.0817
     68  ND1       18.6960   32.3890  181.1000 N.ar  191  HIS191     -0.2268
     69  CD2       17.9340   30.3600  180.8180 C.ar  191  HIS191      0.1154
     70  CE1       19.6650   31.6810  180.5470 C.ar  191  HIS191      0.1986
     71  NE2       19.2260   30.4490  180.3590 N.ar  191  HIS191     -0.2212
     72  N         11.7500   34.5650  179.1770 N.3   194  TYR194     -0.1241
     73  CA        12.0460   34.3960  177.7650 C.3   194  TYR194      0.1605
     74  C         11.1280   35.3290  176.9970 C.2   194  TYR194      0.2264
     75  O          9.9950   35.5650  177.4170 O.2   194  TYR194     -0.2867
     76  CB        11.8030   32.9580  177.3000 C.3   194  TYR194      0.0534
     77  CG        12.8680   31.9560  177.7020 C.ar  194  TYR194     -0.0201
     78  CD1       12.8920   31.3990  178.9780 C.ar  194  TYR194     -0.0009
     79  CD2       13.8570   31.5830  176.8040 C.ar  194  TYR194     -0.0009
     80  CE1       13.8850   30.4800  179.3340 C.ar  194  TYR194      0.0417
     81  CE2       14.8300   30.6730  177.1450 C.ar  194  TYR194      0.0417
     82  CZ        14.8510   30.1400  178.4060 C.ar  194  TYR194      0.1957
     83  OH        15.8360   29.2340  178.7190 O.3   194  TYR194     -0.2866
@<TRIPOS>BOND
     1    27    26    1
     2    27    28    1
     3    27    30    1
     4    28    29    2
     5    22    21    2
     6    44    43    1
     7    21    20    1
     8    31    32    1
     9    32    33    1
    10    32    35    1
    11    43    40    1
    12    16    17    1
    13    16    13    1
    14    39    33   am
    15    39    40    1
    16    20    19    1
    17    20    23    1
    18    17    18    1
    19    37    36    1
    20    33    34    2
    21    19    14   am
    22    35    36    1
    23    40    41    1
    24    14    13    1
    25    14    15    2
    26    13    12    1
    27    24    23    1
    28    23    25    1
    29    36    38    1
    30    42    41    2
    31    41    45   am
    32    18    12    1
    33    12     8   am
    34    45    46    1
    35     8     9    2
    36     8     7    1
    37    52    50    1
    38    46    47    1
    39    46    49    1
    40     7    10    1
    41     7     6    1
    42    50    49    1
    43    50    51    1
    44     1     2    1
    45    48    47    2
    46    61    59   am
    47    10    11    1
    48    60    59    2
    49    79    81   ar
    50    79    77   ar
    51    74    75    2
    52    74    73    1
    53    59    58    1
    54    81    82   ar
    55     2     5    1
    56     2     3    1
    57    76    77    1
    58    76    73    1
    59    77    78   ar
    60    73    72    1
    61     4     3    2
    62    82    83    1
    63    82    80   ar
    64    58    57    1
    65    57    54    1
    66    78    80   ar
    67    71    70   ar
    68    71    69   ar
    69    54    55    1
    70    54    53    1
    71    70    68   ar
    72    55    56    2
    73    69    67   ar
    74    68    67   ar
    75    67    66    1
    76    66    63    1
    77    63    62    1
    78    63    64    1
    79    64    65    2
