@<TRIPOS>MOLECULE
tmp/6blbA00.pdb
 165 161 0 0 0
SMALL
GASTEIGER

@<TRIPOS>ATOM
      1  N         31.9710   23.8150  -11.6600 N.3     2  ILE2       -0.1231
      2  CA        32.1540   23.9760  -10.2010 C.3     2  ILE2        0.1692
      3  C         31.9950   22.7070   -9.3490 C.2     2  ILE2        0.2592
      4  O         32.3260   22.7220   -8.1590 O.2     2  ILE2       -0.2718
      5  CB        31.2170   25.0710   -9.6410 C.3     2  ILE2        0.0266
      6  CG1       29.7430   24.6340   -9.7390 C.3     2  ILE2        0.0019
      7  CG2       31.4770   26.4000  -10.3540 C.3     2  ILE2        0.0020
      8  CD1       28.7620   25.6800   -9.2680 C.3     2  ILE2        0.0001
      9  N         31.4820   21.6310   -9.9470 N.am    3  ARG3       -0.1966
     10  CA        31.3230   20.3680   -9.2330 C.3     3  ARG3        0.1714
     11  C         32.6640   19.6380   -9.2260 C.2     3  ARG3        0.2458
     12  O         33.2520   19.4340  -10.2900 O.2     3  ARG3       -0.2730
     13  CB        30.2540   19.4920   -9.8980 C.3     3  ARG3        0.0347
     14  CG        30.6090   18.9940  -11.2940 C.3     3  ARG3        0.0492
     15  CD        29.4550   18.2070  -11.9010 C.3     3  ARG3        0.2205
     16  NE        29.0860   17.0430  -11.0950 N.pl3   3  ARG3       -0.0865
     17  CZ        29.4460   15.7930  -11.3690 C.cat   3  ARG3        0.5346
     18  NH1       29.0620   14.8060  -10.5770 N.pl3   3  ARG3        0.1354
     19  NH2       30.1770   15.5280  -12.4440 N.pl3   3  ARG3        0.1354
     20  N         33.1620   19.2450   -8.0340 N.am    4  PRO4       -0.2727
     21  CA        34.4570   18.5360   -8.0080 C.3     4  PRO4        0.1402
     22  C         34.3880   17.1950   -8.7470 C.2     4  PRO4        0.2269
     23  O         33.4380   16.4300   -8.5560 O.2     4  PRO4       -0.2865
     24  CB        34.7450   18.3420   -6.5120 C.3     4  PRO4        0.0296
     25  CG        33.4540   18.5800   -5.8090 C.3     4  PRO4        0.0237
     26  CD        32.6270   19.4720   -6.6750 C.3     4  PRO4        0.0939
     27  N         39.6810   18.0390   -5.0170 N.3     9  ASP9       -0.1225
     28  CA        38.8190   19.2220   -4.9790 C.3     9  ASP9        0.1805
     29  C         37.5990   19.0590   -4.0690 C.2     9  ASP9        0.2598
     30  O         36.7430   19.9420   -4.0370 O.2     9  ASP9       -0.2718
     31  CB        38.3550   19.5620   -6.4060 C.3     9  ASP9        0.1424
     32  CG        39.5130   19.7890   -7.3590 C.2     9  ASP9        0.3668
     33  OD1       40.5500   20.3310   -6.9260 O.co2   9  ASP9       -0.2456
     34  OD2       39.3850   19.4260   -8.5460 O.co2   9  ASP9       -0.2456
     35  N         37.5310   17.9430   -3.3370 N.am   10  TYR10      -0.1962
     36  CA        36.4050   17.6380   -2.4520 C.3    10  TYR10       0.1771
     37  C         36.7120   18.2540   -1.0860 C.2    10  TYR10       0.2619
     38  O         37.4380   17.6740   -0.2800 O.2    10  TYR10      -0.2715
     39  CB        36.2240   16.1150   -2.3720 C.3    10  TYR10       0.0574
     40  CG        34.8700   15.6250   -1.9040 C.ar   10  TYR10      -0.0198
     41  CD1       33.7370   15.8160   -2.6850 C.ar   10  TYR10      -0.0009
     42  CD2       34.7340   14.8940   -0.7230 C.ar   10  TYR10      -0.0009
     43  CE1       32.4890   15.3450   -2.2860 C.ar   10  TYR10       0.0417
     44  CE2       33.4940   14.4170   -0.3130 C.ar   10  TYR10       0.0417
     45  CZ        32.3720   14.6470   -1.0990 C.ar   10  TYR10       0.1957
     46  OH        31.1320   14.1760   -0.7050 O.3    10  TYR10      -0.2866
     47  N         36.1840   19.4560   -0.8660 N.am   11  ILE11      -0.1977
     48  CA        36.3930   20.2370    0.3570 C.3    11  ILE11       0.1596
     49  C         35.3220   19.9570    1.4010 C.2    11  ILE11       0.2287
     50  O         34.1800   19.6620    1.0560 O.2    11  ILE11      -0.2864
     51  CB        36.3180   21.7660    0.0240 C.3    11  ILE11       0.0276
     52  CG1       37.4720   22.1590   -0.9080 C.3    11  ILE11       0.0022
     53  CG2       36.3340   22.6330    1.2860 C.3    11  ILE11       0.0022
     54  CD1       37.3820   23.5680   -1.4550 C.3    11  ILE11       0.0001
     55  N         20.1900   15.2870    1.5260 N.3    43  PRO43      -0.2102
     56  CA        20.3460   15.7010    0.1220 C.3    43  PRO43       0.1504
     57  C         21.1580   16.9820   -0.0960 C.2    43  PRO43       0.2576
     58  O         21.1030   17.9030    0.7160 O.2    43  PRO43      -0.2718
     59  CB        18.9030   15.9200   -0.3560 C.3    43  PRO43       0.0282
     60  CG        18.0310   15.1930    0.6230 C.3    43  PRO43       0.0208
     61  CD        18.7660   15.2500    1.9310 C.3    43  PRO43       0.0893
     62  N         21.8850   17.0380   -1.2130 N.am   44  GLY44      -0.1943
     63  CA        22.7020   18.2080   -1.5520 C.3    44  GLY44       0.2014
     64  C         24.1040   18.1870   -0.9870 C.2    44  GLY44       0.2639
     65  O         24.9200   19.1250   -1.2470 O.2    44  GLY44      -0.2714
     66  N         24.4180   17.1130   -0.2500 N.am   45  LEU45      -0.1963
     67  CA        25.7240   16.9860    0.3880 C.3    45  LEU45       0.1728
     68  C         26.8190   16.4460   -0.5210 C.2    45  LEU45       0.2617
     69  O         27.9920   16.4330   -0.1280 O.2    45  LEU45      -0.2715
     70  CB        25.6110   16.1300    1.6630 C.3    45  LEU45       0.0311
     71  CG        24.7960   16.7710    2.7980 C.3    45  LEU45       0.0022
     72  CD1       24.9060   15.9260    4.0460 C.3    45  LEU45       0.0001
     73  CD2       25.2450   18.1850    3.1050 C.3    45  LEU45       0.0001
     74  N         26.4420   16.0070   -1.7220 N.am   46  GLY46      -0.1940
     75  CA        27.4000   15.5100   -2.7010 C.3    46  GLY46       0.2014
     76  C         27.4310   14.0000   -2.8510 C.2    46  GLY46       0.2639
     77  O         28.5050   13.4490   -3.0960 O.2    46  GLY46      -0.2714
     78  N         26.2870   13.3270   -2.6950 N.am   47  LYS47      -0.1963
     79  CA        26.3000   11.8510   -2.8170 C.3    47  LYS47       0.1728
     80  C         26.5260   11.4440   -4.2650 C.2    47  LYS47       0.2617
     81  O         27.3880   10.6350   -4.5330 O.2    47  LYS47      -0.2715
     82  CB        25.0520   11.2090   -2.2270 C.3    47  LYS47       0.0311
     83  CG        24.9880   11.4010   -0.7060 C.3    47  LYS47       0.0038
     84  CD        23.8380   10.6750   -0.0510 C.3    47  LYS47       0.0206
     85  CE        22.4920   11.1290   -0.5740 C.3    47  LYS47       0.1093
     86  NZ        22.2320   12.5820   -0.4070 N.3    47  LYS47      -0.1314
     87  N         25.7680   12.0290   -5.1840 N.am   48  THR48      -0.1937
     88  CA        25.9470   11.7610   -6.6260 C.3    48  THR48       0.2028
     89  C         27.3380   12.2090   -7.0800 C.2    48  THR48       0.2642
     90  O         28.0100   11.5340   -7.8550 O.2    48  THR48      -0.2714
     91  CB        24.8590   12.4560   -7.4470 C.3    48  THR48       0.1808
     92  OG1       23.5920   11.9790   -7.0090 O.3    48  THR48      -0.2208
     93  CG2       25.0040   12.1700   -8.9360 C.3    48  THR48       0.0379
     94  N         27.7740   13.3330   -6.5500 N.am   49  THR49      -0.1950
     95  CA        29.0880   13.8830   -6.8580 C.3    49  THR49       0.1897
     96  C         30.1730   12.9160   -6.4160 C.2    49  THR49       0.2313
     97  O         31.0970   12.6360   -7.1660 O.2    49  THR49      -0.2863
     98  CB        29.2600   15.2530   -6.1750 C.3    49  THR49       0.1794
     99  OG1       28.2750   16.1430   -6.6960 O.3    49  THR49      -0.2208
    100  CG2       30.6330   15.8410   -6.4110 C.3    49  THR49       0.0378
    101  N         21.0410    5.4030   -6.5790 N.3    92  ASP92      -0.1239
    102  CA        20.6240    6.4560   -5.6720 C.3    92  ASP92       0.1674
    103  C         19.2930    6.0230   -5.0660 C.2    92  ASP92       0.2266
    104  O         18.6060    5.1970   -5.6380 O.2    92  ASP92      -0.2867
    105  CB        20.4840    7.7850   -6.4270 C.3    92  ASP92       0.1410
    106  CG        20.3660    9.0000   -5.4950 C.2    92  ASP92       0.3668
    107  OD1       20.7300    8.9050   -4.2980 O.co2  92  ASP92      -0.2456
    108  OD2       19.9180   10.0690   -5.9840 O.co2  92  ASP92      -0.2456
    109  N         27.7380   20.5290    6.2300 N.3   158  TYR158     -0.1241
    110  CA        29.0270   21.2030    6.2220 C.3   158  TYR158      0.1605
    111  C         29.0230   22.3660    7.1850 C.2   158  TYR158      0.2264
    112  O         27.9970   23.0190    7.3690 O.2   158  TYR158     -0.2867
    113  CB        29.3120   21.7320    4.8290 C.3   158  TYR158      0.0534
    114  CG        29.6370   20.6810    3.7980 C.ar  158  TYR158     -0.0201
    115  CD1       28.7000   19.7200    3.4220 C.ar  158  TYR158     -0.0009
    116  CD2       30.8680   20.6830    3.1550 C.ar  158  TYR158     -0.0009
    117  CE1       28.9930   18.7720    2.4530 C.ar  158  TYR158      0.0417
    118  CE2       31.1830   19.7280    2.1970 C.ar  158  TYR158      0.0417
    119  CZ        30.2420   18.7760    1.8440 C.ar  158  TYR158      0.1957
    120  OH        30.5480   17.8290    0.8870 O.3   158  TYR158     -0.2866
    121  N         34.3080   26.7600   -0.1450 N.3   166  ILE166     -0.1245
    122  CA        33.7040   26.2620   -1.3590 C.3   166  ILE166      0.1561
    123  C         33.1700   27.4350   -2.2170 C.2   166  ILE166      0.2260
    124  O         33.4180   27.4830   -3.4200 O.2   166  ILE166     -0.2867
    125  CB        32.5860   25.2490   -1.0400 C.3   166  ILE166      0.0252
    126  CG1       33.2130   23.9150   -0.5830 C.3   166  ILE166      0.0019
    127  CG2       31.6700   25.0410   -2.2580 C.3   166  ILE166      0.0019
    128  CD1       32.2080   22.9370    0.0060 C.3   166  ILE166      0.0001
    129  N         36.0310   29.2700   -3.7660 N.3   169  ARG169     -0.1245
    130  CA        36.6210   28.4650   -4.8660 C.3   169  ARG169      0.1563
    131  C         35.7700   28.6120   -6.1200 C.2   169  ARG169      0.2260
    132  O         36.2940   28.9140   -7.2030 O.2   169  ARG169     -0.2867
    133  CB        36.7430   26.9800   -4.4890 C.3   169  ARG169      0.0307
    134  CG        37.1300   26.0430   -5.6320 C.3   169  ARG169      0.0489
    135  CD        37.1820   24.5740   -5.2040 C.3   169  ARG169      0.2205
    136  NE        37.5130   23.6920   -6.3400 N.pl3 169  ARG169     -0.0865
    137  CZ        36.6320   23.1160   -7.1730 C.cat 169  ARG169      0.5346
    138  NH1       37.0750   22.3570   -8.1640 N.pl3 169  ARG169      0.1354
    139  NH2       35.3150   23.2820   -7.0340 N.pl3 169  ARG169      0.1354
    140  N         26.6270   22.2560    0.0010 N.3   194  PRO194     -0.2102
    141  CA        27.3650   22.8490   -1.1040 C.3   194  PRO194      0.1504
    142  C         26.4890   23.1030   -2.3370 C.2   194  PRO194      0.2575
    143  O         26.7360   24.0600   -3.0470 O.2   194  PRO194     -0.2718
    144  CB        28.4640   21.8150   -1.4180 C.3   194  PRO194      0.0282
    145  CG        28.5860   20.9940   -0.1900 C.3   194  PRO194      0.0208
    146  CD        27.2570   21.0110    0.4800 C.3   194  PRO194      0.0893
    147  N         25.5010   22.2320   -2.5780 N.am  195  ARG195     -0.1980
    148  CA        24.5230   22.4110   -3.6730 C.3   195  ARG195      0.1597
    149  C         23.8640   23.7850   -3.5790 C.2   195  ARG195      0.2287
    150  O         23.8000   24.5220   -4.5560 O.2   195  ARG195     -0.2864
    151  CB        23.4030   21.3520   -3.5600 C.3   195  ARG195      0.0334
    152  CG        22.1700   21.5000   -4.4760 C.3   195  ARG195      0.0492
    153  CD        22.1670   20.5710   -5.6940 C.3   195  ARG195      0.2205
    154  NE        23.1120   20.9400   -6.7480 N.pl3 195  ARG195     -0.0865
    155  CZ        23.3220   20.2310   -7.8610 C.cat 195  ARG195      0.5346
    156  NH1       22.6800   19.0830   -8.0780 N.pl3 195  ARG195      0.1354
    157  NH2       24.2000   20.6600   -8.7580 N.pl3 195  ARG195      0.1354
    158  N         26.3980   26.8570   -3.7790 N.3   198  ASN198     -0.1240
    159  CA        26.7190   27.1210   -5.1710 C.3   198  ASN198      0.1653
    160  C         25.5690   27.7770   -5.9320 C.2   198  ASN198      0.2266
    161  O         25.8010   28.6970   -6.7080 O.2   198  ASN198     -0.2867
    162  CB        27.1830   25.8470   -5.8940 C.3   198  ASN198      0.1155
    163  CG        28.6630   25.5800   -5.6980 C.2   198  ASN198      0.2627
    164  OD1       29.4790   26.4890   -5.8560 O.2   198  ASN198     -0.2716
    165  ND2       29.0290   24.3210   -5.4040 N.am  198  ASN198     -0.0877
@<TRIPOS>BOND
     1    19    17    1
     2    15    14    1
     3    15    16    1
     4     1     2    1
     5    17    16    2
     6    17    18    1
     7    14    13    1
     8     7     5    1
     9    12    11    2
    10     2     5    1
    11     2     3    1
    12     9     3   am
    13     9    10    1
    14    13    10    1
    15     6     5    1
    16     6     8    1
    17     3     4    2
    18    10    11    1
    19    11    20   am
    20    93    91    1
    21   157   155    1
    22    22    23    2
    23    22    21    1
    24    34    32   ar
    25   138   137    1
    26   156   155    1
    27    20    21    1
    28    20    26    1
    29    21    24    1
    30   155   154    2
    31    90    89    2
    32    91    92    1
    33    91    88    1
    34    32    33   ar
    35    32    31    1
    36   132   131    2
    37   137   139    1
    38   137   136    2
    39    97    96    2
    40    89    88    1
    41    89    94   am
    42    95    94    1
    43    95    96    1
    44    95    98    1
    45   154   153    1
    46   161   160    2
    47    99    98    1
    48    26    25    1
    49    88    87    1
    50   101   102    1
    51    24    25    1
    52   105   102    1
    53   105   106    1
    54   100    98    1
    55    31    28    1
    56   136   135    1
    57   131   130    1
    58   108   106   ar
    59   160   159    1
    60   162   163    1
    61   162   159    1
    62   164   163    2
    63   163   165   am
    64   153   152    1
    65   102   103    1
    66   104   103    2
    67   134   135    1
    68   134   133    1
    69   106   107   ar
    70    87    80   am
    71   159   158    1
    72    27    28    1
    73    28    29    1
    74   130   133    1
    75   130   129    1
    76   150   149    2
    77    81    80    2
    78   152   151    1
    79    80    79    1
    80    29    30    2
    81    29    35   am
    82   148   149    1
    83   148   151    1
    84   148   147    1
    85   124   123    2
    86    35    36    1
    87    77    76    2
    88   143   142    2
    89    76    75    1
    90    76    78   am
    91    79    78    1
    92    79    82    1
    93    75    74    1
    94    41    43   ar
    95    41    40   ar
    96   147   142   am
    97    36    39    1
    98    36    37    1
    99    39    40    1
   100   142   141    1
   101    43    45   ar
   102   127   125    1
   103    82    83    1
   104   123   122    1
   105    40    42   ar
   106    74    68   am
   107    63    62    1
   108    63    64    1
   109    54    52    1
   110   144   141    1
   111   144   145    1
   112   122   125    1
   113   122   121    1
   114    65    64    2
   115    62    57   am
   116   141   140    1
   117    45    46    1
   118    45    44   ar
   119    37    47   am
   120    37    38    2
   121   125   126    1
   122    64    66   am
   123    52    51    1
   124    47    48    1
   125    42    44   ar
   126    83    84    1
   127   126   128    1
   128    85    86    1
   129    85    84    1
   130    68    69    2
   131    68    67    1
   132    59    56    1
   133    59    60    1
   134    66    67    1
   135   145   146    1
   136    57    56    1
   137    57    58    2
   138   140   146    1
   139    51    48    1
   140    51    53    1
   141    56    55    1
   142    48    49    1
   143    67    70    1
   144    60    61    1
   145   120   119    1
   146    50    49    2
   147    55    61    1
   148    70    71    1
   149   119   118   ar
   150   119   117   ar
   151   118   116   ar
   152   117   115   ar
   153    71    73    1
   154    71    72    1
   155   116   114   ar
   156   115   114   ar
   157   114   113    1
   158   113   110    1
   159   110   109    1
   160   110   111    1
   161   111   112    2
