@<TRIPOS>MOLECULE
tmp/6bldA01.pdb
 178 167 0 0 0
SMALL
GASTEIGER

@<TRIPOS>ATOM
      1  N         10.4560    3.8800   32.1670 N.3    82  LEU82      -0.1245
      2  CA        10.8850    5.2470   31.9060 C.3    82  LEU82       0.1561
      3  C         11.6440    5.8150   33.1000 C.2    82  LEU82       0.2260
      4  O         11.3230    5.5250   34.2570 O.2    82  LEU82      -0.2867
      5  CB         9.6830    6.1320   31.5720 C.3    82  LEU82       0.0270
      6  CG         9.0460    5.8810   30.2010 C.3    82  LEU82       0.0019
      7  CD1        8.1230    7.0260   29.8080 C.3    82  LEU82       0.0001
      8  CD2       10.1090    5.6570   29.1340 C.3    82  LEU82       0.0001
      9  N          6.0880    9.2670   35.1350 N.3    86  VAL86      -0.1245
     10  CA         5.0720    9.6850   34.1710 C.3    86  VAL86       0.1561
     11  C          3.7140    9.1940   34.6640 C.2    86  VAL86       0.2260
     12  O          3.6250    8.0750   35.1900 O.2    86  VAL86      -0.2867
     13  CB         5.3960    9.1460   32.7670 C.3    86  VAL86       0.0252
     14  CG1        4.2930    9.4850   31.7730 C.3    86  VAL86       0.0019
     15  CG2        6.7390    9.6850   32.2890 C.3    86  VAL86       0.0019
     16  N         -0.9540    7.9020   30.9680 N.3    90  LEU90      -0.1231
     17  CA        -0.1100    8.1130   29.7970 C.3    90  LEU90       0.1693
     18  C          0.7770    6.9020   29.5290 C.2    90  LEU90       0.2591
     19  O          1.0360    6.5580   28.3690 O.2    90  LEU90      -0.2718
     20  CB         0.7390    9.3710   29.9820 C.3    90  LEU90       0.0284
     21  CG        -0.0400   10.6840   30.0620 C.3    90  LEU90       0.0019
     22  CD1        0.8560   11.8280   30.5160 C.3    90  LEU90       0.0001
     23  CD2       -0.6870   10.9990   28.7230 C.3    90  LEU90       0.0001
     24  N          1.2490    6.2430   30.5890 N.am   91  LEU91      -0.1980
     25  CA         2.0590    5.0420   30.4140 C.3    91  LEU91       0.1596
     26  C          1.2220    3.8900   29.8710 C.2    91  LEU91       0.2287
     27  O          1.6250    3.2100   28.9200 O.2    91  LEU91      -0.2864
     28  CB         2.7130    4.6520   31.7390 C.3    91  LEU91       0.0297
     29  CG         3.8200    5.5740   32.2550 C.3    91  LEU91       0.0022
     30  CD1        4.3090    5.1070   33.6190 C.3    91  LEU91       0.0001
     31  CD2        4.9710    5.6480   31.2620 C.3    91  LEU91       0.0001
     32  N          0.6940    3.8400   26.0870 N.3    94  SER94      -0.1202
     33  CA         1.8550    3.9940   25.2140 C.3    94  SER94       0.2020
     34  C          2.9150    2.9060   25.3490 C.2    94  SER94       0.2618
     35  O          3.6340    2.6630   24.3750 O.2    94  SER94      -0.2717
     36  CB         2.5220    5.3540   25.4640 C.3    94  SER94       0.2103
     37  OG         3.0140    5.4400   26.7890 O.3    94  SER94      -0.2182
     38  N          3.0470    2.2400   26.4990 N.am   95  GLN95      -0.1979
     39  CA         4.2120    1.3900   26.7310 C.3    95  GLN95       0.1601
     40  C          4.0850    0.0320   26.0480 C.2    95  GLN95       0.2287
     41  O          5.0650   -0.4710   25.4860 O.2    95  GLN95      -0.2864
     42  CB         4.4390    1.2130   28.2330 C.3    95  GLN95       0.0394
     43  CG         4.7440    2.5090   28.9770 C.3    95  GLN95       0.0908
     44  CD         5.9600    3.2340   28.4280 C.2    95  GLN95       0.2608
     45  OE1        7.0980    2.9110   28.7710 O.2    95  GLN95      -0.2717
     46  NE2        5.7240    4.2220   27.5710 N.am   95  GLN95      -0.0878
     47  N          6.7280   -3.1410   25.9200 N.3    98  LEU98      -0.1245
     48  CA         8.0130   -2.6030   26.3560 C.3    98  LEU98       0.1561
     49  C          8.1120   -2.6050   27.8770 C.2    98  LEU98       0.2260
     50  O          9.1560   -2.9540   28.4410 O.2    98  LEU98      -0.2867
     51  CB         8.2120   -1.1920   25.8030 C.3    98  LEU98       0.0270
     52  CG         9.4570   -0.4460   26.2910 C.3    98  LEU98       0.0019
     53  CD1       10.7060   -0.9900   25.6140 C.3    98  LEU98       0.0001
     54  CD2        9.3200    1.0480   26.0450 C.3    98  LEU98       0.0001
     55  N          5.6920   12.8150   21.9590 N.3   182  LEU182     -0.1231
     56  CA         5.6160   12.0080   23.1710 C.3   182  LEU182      0.1693
     57  C          6.9560   11.8560   23.8770 C.2   182  LEU182      0.2591
     58  O          6.9900   11.3200   24.9890 O.2   182  LEU182     -0.2718
     59  CB         5.0440   10.6280   22.8400 C.3   182  LEU182      0.0284
     60  CG         3.6030   10.6620   22.3290 C.3   182  LEU182      0.0019
     61  CD1        3.0580    9.2600   22.1140 C.3   182  LEU182      0.0001
     62  CD2        2.7210   11.4430   23.2900 C.3   182  LEU182      0.0001
     63  N          8.0520   12.3090   23.2710 N.am  183  VAL183     -0.1980
     64  CA         9.3570   12.2970   23.9140 C.3   183  VAL183      0.1595
     65  C          9.9170   13.7020   24.0910 C.2   183  VAL183      0.2287
     66  O         11.0710   13.8610   24.4910 O.2   183  VAL183     -0.2864
     67  CB        10.3530   11.4060   23.1440 C.3   183  VAL183      0.0276
     68  CG1        9.8000    9.9930   22.9990 C.3   183  VAL183      0.0022
     69  CG2       10.6610   12.0120   21.7820 C.3   183  VAL183      0.0022
     70  N          8.4660   16.2340   26.0560 N.3   185  TRP185     -0.1241
     71  CA         7.7040   16.8960   27.1090 C.3   185  TRP185      0.1605
     72  C          8.5440   17.8580   27.9400 C.2   185  TRP185      0.2264
     73  O          7.9760   18.6420   28.7060 O.2   185  TRP185     -0.2867
     74  CB         7.0490   15.8550   28.0220 C.3   185  TRP185      0.0550
     75  CG         8.0120   15.0560   28.8570 C.ar  185  TRP185      0.0003
     76  CD1        8.5920   15.4370   30.0340 C.ar  185  TRP185      0.0946
     77  CD2        8.4900   13.7320   28.5860 C.ar  185  TRP185      0.0152
     78  NE1        9.4060   14.4370   30.5050 N.ar  185  TRP185     -0.2442
     79  CE2        9.3600   13.3790   29.6360 C.ar  185  TRP185      0.0810
     80  CE3        8.2680   12.8140   27.5550 C.ar  185  TRP185      0.0012
     81  CZ2       10.0090   12.1460   29.6850 C.ar  185  TRP185      0.0191
     82  CZ3        8.9140   11.5900   27.6060 C.ar  185  TRP185      0.0001
     83  CH2        9.7740   11.2680   28.6630 C.ar  185  TRP185      0.0015
     84  N          0.8300   15.8720   25.8060 N.3   200  LEU200     -0.1245
     85  CA         1.0520   14.4350   25.6880 C.3   200  LEU200      0.1561
     86  C         -0.2570   13.6930   25.4450 C.2   200  LEU200      0.2260
     87  O         -0.3170   12.7860   24.6070 O.2   200  LEU200     -0.2867
     88  CB         1.7480   13.9060   26.9420 C.3   200  LEU200      0.0270
     89  CG         3.2030   14.3390   27.1470 C.3   200  LEU200      0.0019
     90  CD1        3.7220   13.8720   28.4980 C.3   200  LEU200      0.0001
     91  CD2        4.0880   13.8220   26.0240 C.3   200  LEU200      0.0001
     92  N         -1.2250   11.5310   22.1720 N.3   204  GLN204     -0.1245
     93  CA        -1.6060   10.1460   22.4240 C.3   204  GLN204      0.1566
     94  C         -3.0230    9.8760   21.9360 C.2   204  GLN204      0.2260
     95  O         -3.3010    8.8140   21.3660 O.2   204  GLN204     -0.2867
     96  CB        -1.4870    9.8300   23.9130 C.3   204  GLN204      0.0367
     97  CG        -0.1030    9.4030   24.3490 C.3   204  GLN204      0.0905
     98  CD        -0.0980    8.8120   25.7420 C.2   204  GLN204      0.2608
     99  OE1       -1.1520    8.6260   26.3510 O.2   204  GLN204     -0.2717
    100  NE2        1.0890    8.5120   26.2560 N.am  204  GLN204     -0.0878
    101  N          1.1250    3.0570   19.5430 N.3   250  VAL250     -0.1231
    102  CA         1.9150    4.1630   20.0720 C.3   250  VAL250      0.1692
    103  C          3.3640    3.7360   20.2570 C.2   250  VAL250      0.2591
    104  O          4.2930    4.4340   19.8360 O.2   250  VAL250     -0.2718
    105  CB         1.3090    4.6760   21.3900 C.3   250  VAL250      0.0266
    106  CG1        2.1790    5.7840   21.9760 C.3   250  VAL250      0.0020
    107  CG2       -0.1140    5.1660   21.1620 C.3   250  VAL250      0.0020
    108  N          3.5790    2.5860   20.8950 N.am  251  LEU251     -0.1980
    109  CA         4.9350    2.0710   21.0580 C.3   251  LEU251      0.1596
    110  C          5.6440    1.9510   19.7140 C.2   251  LEU251      0.2287
    111  O          6.7900    2.3960   19.5640 O.2   251  LEU251     -0.2864
    112  CB         4.8860    0.7170   21.7640 C.3   251  LEU251      0.0297
    113  CG         6.1850   -0.0890   21.8110 C.3   251  LEU251      0.0022
    114  CD1        7.3140    0.7000   22.4670 C.3   251  LEU251      0.0001
    115  CD2        5.9820   -1.4400   22.4870 C.3   251  LEU251      0.0001
    116  N          6.3410    5.5310   18.1860 N.3   254  VAL254     -0.1231
    117  CA         7.3730    6.3140   18.8590 C.3   254  VAL254      0.1692
    118  C          8.7460    5.6920   18.6370 C.2   254  VAL254      0.2591
    119  O          9.6920    6.3710   18.2210 O.2   254  VAL254     -0.2718
    120  CB         7.0550    6.4540   20.3590 C.3   254  VAL254      0.0266
    121  CG1        8.2150    7.1220   21.0790 C.3   254  VAL254      0.0020
    122  CG2        5.7730    7.2500   20.5580 C.3   254  VAL254      0.0020
    123  N          8.8800    4.3930   18.9170 N.am  255  ALA255     -0.1980
    124  CA        10.1740    3.7370   18.7570 C.3   255  ALA255      0.1597
    125  C         10.5840    3.6450   17.2930 C.2   255  ALA255      0.2287
    126  O         11.7750    3.7370   16.9780 O.2   255  ALA255     -0.2864
    127  CB        10.1410    2.3460   19.3880 C.3   255  ALA255      0.0319
    128  N         11.1030    8.0570   16.2680 N.3   258  ASP258     -0.1225
    129  CA        11.9700    9.0040   16.9640 C.3   258  ASP258      0.1805
    130  C         13.4280    8.5590   16.9490 C.2   258  ASP258      0.2598
    131  O         14.3260    9.3800   16.7340 O.2   258  ASP258     -0.2718
    132  CB        11.4870    9.1930   18.4020 C.3   258  ASP258      0.1424
    133  CG        10.0660    9.7190   18.4780 C.2   258  ASP258      0.3668
    134  OD1        9.4630    9.9850   17.4150 O.co2 258  ASP258     -0.2456
    135  OD2        9.5530    9.8700   19.6070 O.co2 258  ASP258     -0.2456
    136  N         13.6830    7.2700   17.1770 N.am  259  THR259     -0.1953
    137  CA        15.0590    6.7970   17.3060 C.3   259  THR259      0.1897
    138  C         15.8290    6.9530   15.9990 C.2   259  THR259      0.2313
    139  O         16.9180    7.5390   15.9740 O.2   259  THR259     -0.2863
    140  CB        15.0690    5.3380   17.7590 C.3   259  THR259      0.1794
    141  OG1       14.3030    4.5510   16.8400 O.3   259  THR259     -0.2208
    142  CG2       14.4710    5.2100   19.1500 C.3   259  THR259      0.0378
    143  N         18.3090    6.7160   22.3610 N.3   303  VAL303     -0.1245
    144  CA        17.6890    6.3660   23.6330 C.3   303  VAL303      0.1561
    145  C         18.7630    6.4890   24.7060 C.2   303  VAL303      0.2260
    146  O         19.7050    5.6940   24.7500 O.2   303  VAL303     -0.2867
    147  CB        17.0850    4.9580   23.6020 C.3   303  VAL303      0.0252
    148  CG1       16.3480    4.6730   24.9010 C.3   303  VAL303      0.0019
    149  CG2       16.1540    4.8080   22.4110 C.3   303  VAL303      0.0019
    150  N         16.7560    3.9780   30.0660 N.3   306  PHE306     -0.1241
    151  CA        15.6670    3.0520   30.3240 C.3   306  PHE306      0.1605
    152  C         15.9070    2.4810   31.7120 C.2   306  PHE306      0.2264
    153  O         17.0540    2.3140   32.1330 O.2   306  PHE306     -0.2867
    154  CB        15.5850    1.9300   29.2800 C.3   306  PHE306      0.0534
    155  CG        14.6140    2.2030   28.1640 C.ar  306  PHE306     -0.0203
    156  CD1       13.3820    2.7880   28.4210 C.ar  306  PHE306     -0.0042
    157  CD2       14.9330    1.8720   26.8570 C.ar  306  PHE306     -0.0042
    158  CE1       12.4880    3.0380   27.3890 C.ar  306  PHE306     -0.0003
    159  CE2       14.0440    2.1190   25.8240 C.ar  306  PHE306     -0.0003
    160  CZ        12.8210    2.7040   26.0910 C.ar  306  PHE306     -0.0000
    161  N         15.2730   11.4510   28.2060 N.3   403  PHE403     -0.1227
    162  CA        14.9090   10.1860   27.5770 C.3   403  PHE403      0.1736
    163  C         15.5650   10.0180   26.2140 C.2   403  PHE403      0.2595
    164  O         16.2840    9.0360   26.0010 O.2   403  PHE403     -0.2718
    165  CB        13.3810   10.0780   27.4610 C.3   403  PHE403      0.0547
    166  CG        12.8990    8.7610   26.9070 C.ar  403  PHE403     -0.0202
    167  CD1       13.6110    7.5920   27.1280 C.ar  403  PHE403     -0.0042
    168  CD2       11.7300    8.6950   26.1650 C.ar  403  PHE403     -0.0042
    169  CE1       13.1690    6.3840   26.6180 C.ar  403  PHE403     -0.0003
    170  CE2       11.2790    7.4890   25.6540 C.ar  403  PHE403     -0.0003
    171  CZ        12.0010    6.3310   25.8810 C.ar  403  PHE403     -0.0000
    172  N         15.3430   10.9430   25.2840 N.am  404  VAL404     -0.1980
    173  CA        15.8190   10.8160   23.9120 C.3   404  VAL404      0.1595
    174  C         16.8260   11.9230   23.6310 C.2   404  VAL404      0.2287
    175  O         16.5770   13.0920   23.9480 O.2   404  VAL404     -0.2864
    176  CB        14.6550   10.8610   22.9030 C.3   404  VAL404      0.0276
    177  CG1       15.1810   10.9860   21.4790 C.3   404  VAL404      0.0022
    178  CG2       13.7880    9.6160   23.0400 C.3   404  VAL404      0.0022
@<TRIPOS>BOND
     1   139   138    2
     2   138   137    1
     3   128   129    1
     4   131   130    2
     5   141   140    1
     6   130   129    1
     7   130   136   am
     8   129   132    1
     9   126   125    2
    10   136   137    1
    11   125   124    1
    12   137   140    1
    13   134   133   ar
    14   140   142    1
    15   116   117    1
    16   119   118    2
    17   132   133    1
    18   133   135   ar
    19   118   117    1
    20   118   123   am
    21   124   123    1
    22   124   127    1
    23   117   120    1
    24   101   102    1
    25   111   110    2
    26   110   109    1
    27   104   103    2
    28   102   103    1
    29   102   105    1
    30   103   108   am
    31   120   122    1
    32   120   121    1
    33   108   109    1
    34   109   112    1
    35   107   105    1
    36    95    94    2
    37   105   106    1
    38   177   176    1
    39   112   113    1
    40    69    67    1
    41   113   114    1
    42   113   115    1
    43    94    93    1
    44    55    56    1
    45    61    60    1
    46    92    93    1
    47    60    59    1
    48    60    62    1
    49   143   144    1
    50   149   147    1
    51    93    96    1
    52    59    56    1
    53   176   178    1
    54   176   173    1
    55    68    67    1
    56    67    64    1
    57    56    57    1
    58    63    57   am
    59    63    64    1
    60   147   144    1
    61   147   148    1
    62   174   173    1
    63   174   175    2
    64   144   145    1
    65    57    58    2
    66   173   172    1
    67    96    97    1
    68    64    65    1
    69    65    66    2
    70    97    98    1
    71    35    34    2
    72    87    86    2
    73   145   146    2
    74    33    34    1
    75    33    36    1
    76    33    32    1
    77   172   163   am
    78    34    38   am
    79    86    85    1
    80    36    37    1
    81    41    40    2
    82    53    52    1
    83   170   171   ar
    84   170   168   ar
    85    85    84    1
    86    85    88    1
    87    98   100   am
    88    98    99    2
    89    51    52    1
    90    51    48    1
    91   159   160   ar
    92   159   157   ar
    93   171   169   ar
    94    47    48    1
    95   164   163    2
    96    91    89    1
    97    54    52    1
    98    40    39    1
    99    70    71    1
   100   160   158   ar
   101   168   166   ar
   102   163   162    1
   103    48    49    1
   104    38    39    1
   105   169   167   ar
   106    39    42    1
   107   157   155   ar
   108   166   167   ar
   109   166   165    1
   110    88    89    1
   111    71    72    1
   112    71    74    1
   113    89    90    1
   114   158   156   ar
   115   165   162    1
   116    80    82   ar
   117    80    77   ar
   118    46    44   am
   119   162   161    1
   120    82    83   ar
   121    49    50    2
   122    72    73    2
   123    74    75    1
   124   155   156   ar
   125   155   154    1
   126    42    43    1
   127    19    18    2
   128    44    45    2
   129    44    43    1
   130    77    75   ar
   131    77    79   ar
   132    83    81   ar
   133    23    21    1
   134    75    76   ar
   135    27    26    2
   136     8     6    1
   137   154   151    1
   138    18    17    1
   139    18    24   am
   140    79    81   ar
   141    79    78   ar
   142    17    20    1
   143    17    16    1
   144     7     6    1
   145    26    25    1
   146    20    21    1
   147    76    78   ar
   148    21    22    1
   149   150   151    1
   150     6     5    1
   151   151   152    1
   152    25    24    1
   153    25    28    1
   154    31    29    1
   155     5     2    1
   156   152   153    2
   157    28    29    1
   158    14    13    1
   159     2     1    1
   160     2     3    1
   161    29    30    1
   162    15    13    1
   163    13    10    1
   164     3     4    2
   165    10    11    1
   166    10     9    1
   167    11    12    2
