@<TRIPOS>MOLECULE
tmp/6bleA00.pdb
 183 176 0 0 0
SMALL
GASTEIGER

@<TRIPOS>ATOM
      1  N          1.8540    0.7210   29.9820 N.3    13  ILE13      -0.1231
      2  CA         2.0520    0.4260   28.5630 C.3    13  ILE13       0.1692
      3  C          2.8100    1.5340   27.8110 C.2    13  ILE13       0.2593
      4  O          3.1020    1.3840   26.6190 O.2    13  ILE13      -0.2718
      5  CB         0.7210    0.1130   27.8270 C.3    13  ILE13       0.0266
      6  CG1       -0.3050    1.2420   28.0070 C.3    13  ILE13       0.0019
      7  CG2        0.1460   -1.2230   28.2760 C.3    13  ILE13       0.0020
      8  CD1       -1.5950    1.0430   27.2430 C.3    13  ILE13       0.0001
      9  N          3.1120    2.6370   28.4830 N.am   14  GLY14      -0.1942
     10  CA         3.9300    3.6870   27.8870 C.3    14  GLY14       0.2014
     11  C          4.2890    4.7300   28.9170 C.2    14  GLY14       0.2639
     12  O          3.6700    4.7760   29.9850 O.2    14  GLY14      -0.2714
     13  N          5.3080    5.5330   28.6110 N.am   15  LYS15      -0.1963
     14  CA         5.6410    6.7220   29.3820 C.3    15  LYS15       0.1728
     15  C          4.9780    7.9240   28.6940 C.2    15  LYS15       0.2616
     16  O          3.8050    8.1870   28.9180 O.2    15  LYS15      -0.2715
     17  CB         7.1710    6.9040   29.5170 C.3    15  LYS15       0.0311
     18  CG         7.8460    5.9540   30.4940 C.3    15  LYS15       0.0038
     19  CD         7.3280    6.1520   31.9120 C.3    15  LYS15       0.0206
     20  CE         8.2830    5.6040   32.9690 C.3    15  LYS15       0.1093
     21  NZ         8.5570    4.1550   32.7920 N.3    15  LYS15      -0.1314
     22  N          5.6970    8.6230   27.8300 N.am   16  GLY16      -0.1955
     23  CA         5.1630    9.8320   27.1910 C.3    16  GLY16       0.1869
     24  C          5.7960   11.0860   27.7380 C.2    16  GLY16       0.2309
     25  O          6.5950   11.0310   28.6580 O.2    16  GLY16      -0.2863
     26  N          4.5300   13.5190   29.4290 N.3    18  TYR18      -0.1241
     27  CA         4.1550   13.7290   30.8330 C.3    18  TYR18       0.1605
     28  C          3.4130   12.5180   31.3290 C.2    18  TYR18       0.2264
     29  O          2.5690   11.9930   30.6190 O.2    18  TYR18      -0.2867
     30  CB         3.2480   14.9500   30.9940 C.3    18  TYR18       0.0534
     31  CG         3.9280   16.2450   30.6630 C.ar   18  TYR18      -0.0201
     32  CD1        4.6130   16.9710   31.6490 C.ar   18  TYR18      -0.0009
     33  CD2        3.9050   16.7480   29.3650 C.ar   18  TYR18      -0.0009
     34  CE1        5.2550   18.1640   31.3410 C.ar   18  TYR18       0.0417
     35  CE2        4.5360   17.9360   29.0550 C.ar   18  TYR18       0.0417
     36  CZ         5.2090   18.6340   30.0430 C.ar   18  TYR18       0.1957
     37  OH         5.8270   19.8010   29.7180 O.3    18  TYR18      -0.2866
     38  N          1.1900    5.9230   30.8810 N.3    21  VAL21      -0.1245
     39  CA        -0.0030    5.3360   30.2890 C.3    21  VAL21       0.1561
     40  C         -0.1620    3.9200   30.8300 C.2    21  VAL21       0.2260
     41  O          0.7940    3.1280   30.7940 O.2    21  VAL21      -0.2867
     42  CB         0.0990    5.2830   28.7640 C.3    21  VAL21       0.0252
     43  CG1       -1.2020    4.7900   28.1540 C.3    21  VAL21       0.0019
     44  CG2        0.4530    6.6680   28.2110 C.3    21  VAL21       0.0019
     45  N         -6.8610    2.7860   27.3760 N.3    34  ALA34      -0.1245
     46  CA        -5.5480    3.2490   27.7560 C.3    34  ALA34       0.1562
     47  C         -5.7510    4.4630   28.6340 C.2    34  ALA34       0.2260
     48  O         -6.4880    5.3710   28.2620 O.2    34  ALA34      -0.2867
     49  CB        -4.7400    3.5960   26.5120 C.3    34  ALA34       0.0290
     50  N         -3.9940    7.5920   30.6440 N.3    36  LYS36      -0.1245
     51  CA        -2.8740    8.4610   30.9820 C.3    36  LYS36       0.1561
     52  C         -3.0700    8.9130   32.4130 C.2    36  LYS36       0.2260
     53  O         -4.1540    9.3710   32.7700 O.2    36  LYS36      -0.2867
     54  CB        -2.8040    9.6760   30.0600 C.3    36  LYS36       0.0271
     55  CG        -1.6120   10.5900   30.3230 C.3    36  LYS36       0.0035
     56  CD        -1.4560   11.6300   29.2210 C.3    36  LYS36       0.0206
     57  CE        -0.5750   12.7920   29.6560 C.3    36  LYS36       0.1093
     58  NZ        -0.3550   13.8030   28.5790 N.3    36  LYS36      -0.1314
     59  N         -4.3700   20.7960   26.9240 N.3    53  GLU53      -0.1245
     60  CA        -4.2850   19.5000   26.2300 C.3    53  GLU53       0.1567
     61  C         -5.6850   18.8590   26.1240 C.2    53  GLU53       0.2260
     62  O         -6.0750   18.3880   25.0500 O.2    53  GLU53      -0.2867
     63  CB        -3.2720   18.5700   26.9320 C.3    53  GLU53       0.0388
     64  CG        -3.0130   17.2340   26.2340 C.3    53  GLU53       0.1160
     65  CD        -2.3050   16.2080   27.1060 C.2    53  GLU53       0.3649
     66  OE1       -1.6590   16.5750   28.1180 O.co2  53  GLU53      -0.2457
     67  OE2       -2.3980   15.0090   26.7780 O.co2  53  GLU53      -0.2457
     68  N         -5.6960    9.2190   18.1330 N.3    66  VAL66      -0.1245
     69  CA        -6.2310    8.5260   19.3090 C.3    66  VAL66       0.1561
     70  C         -7.3390    9.3700   19.9710 C.2    66  VAL66       0.2260
     71  O         -7.1800   10.5680   20.1720 O.2    66  VAL66      -0.2867
     72  CB        -5.1110    8.1900   20.3300 C.3    66  VAL66       0.0252
     73  CG1       -5.6760    7.4820   21.5450 C.3    66  VAL66       0.0019
     74  CG2       -4.0530    7.2870   19.7090 C.3    66  VAL66       0.0019
     75  N         -8.3810    7.0130   27.2580 N.3    84  PHE84      -0.1227
     76  CA        -8.3060    7.0100   25.7980 C.3    84  PHE84       0.1736
     77  C         -8.7160    5.6470   25.2670 C.2    84  PHE84       0.2595
     78  O         -8.6620    4.6450   25.9850 O.2    84  PHE84      -0.2718
     79  CB        -6.8890    7.2690   25.3380 C.3    84  PHE84       0.0547
     80  CG        -6.3880    8.6590   25.5830 C.ar   84  PHE84      -0.0202
     81  CD1       -5.7520    8.9870   26.7760 C.ar   84  PHE84      -0.0042
     82  CD2       -6.4580    9.6240   24.5770 C.ar   84  PHE84      -0.0042
     83  CE1       -5.2570   10.2610   26.9830 C.ar   84  PHE84      -0.0003
     84  CE2       -5.9540   10.8860   24.7770 C.ar   84  PHE84      -0.0003
     85  CZ        -5.3570   11.2110   25.9810 C.ar   84  PHE84      -0.0000
     86  N         -9.1000    5.6080   23.9980 N.am   85  GLU85      -0.1965
     87  CA        -9.2370    4.3380   23.2900 C.3    85  GLU85       0.1733
     88  C         -7.8810    3.6140   23.2740 C.2    85  GLU85       0.2616
     89  O         -6.8140    4.2410   23.1690 O.2    85  GLU85      -0.2715
     90  CB        -9.7460    4.5270   21.8550 C.3    85  GLU85       0.0429
     91  CG        -8.6900    4.9880   20.8530 C.3    85  GLU85       0.1163
     92  CD        -9.2240    5.1740   19.4360 C.2    85  GLU85       0.3649
     93  OE1       -9.9340    4.2730   18.9450 O.co2  85  GLU85      -0.2457
     94  OE2       -8.9320    6.2200   18.8150 O.co2  85  GLU85      -0.2457
     95  N         -7.9470    2.2900   23.3850 N.am   86  LEU86      -0.1963
     96  CA        -6.7740    1.4410   23.3920 C.3    86  LEU86       0.1728
     97  C         -6.5280    1.0420   21.9590 C.2    86  LEU86       0.2616
     98  O         -7.4530    0.6570   21.2680 O.2    86  LEU86      -0.2715
     99  CB        -7.0220    0.1930   24.2480 C.3    86  LEU86       0.0311
    100  CG        -5.9310   -0.8690   24.2700 C.3    86  LEU86       0.0022
    101  CD1       -4.6620   -0.2890   24.8610 C.3    86  LEU86       0.0001
    102  CD2       -6.3970   -2.0750   25.0590 C.3    86  LEU86       0.0001
    103  N         -5.2770    1.1260   21.5300 N.am   87  VAL87      -0.1963
    104  CA        -4.8620    0.7230   20.1850 C.3    87  VAL87       0.1727
    105  C         -3.9490   -0.5120   20.3670 C.2    87  VAL87       0.2616
    106  O         -2.7850   -0.3750   20.7540 O.2    87  VAL87      -0.2715
    107  CB        -4.1710    1.9160   19.4700 C.3    87  VAL87       0.0290
    108  CG1       -3.9040    1.6050   18.0080 C.3    87  VAL87       0.0023
    109  CG2       -5.0210    3.1700   19.5940 C.3    87  VAL87       0.0023
    110  N         -4.5170   -1.6980   20.1060 N.am   88  ASN88      -0.1958
    111  CA        -3.9720   -3.0400   20.4820 C.3    88  ASN88       0.1819
    112  C         -2.4910   -3.2830   20.3900 C.2    88  ASN88       0.2621
    113  O         -1.8670   -3.7280   21.3500 O.2    88  ASN88      -0.2715
    114  CB        -4.5710   -4.1460   19.5840 C.3    88  ASN88       0.1195
    115  CG        -5.9990   -4.4050   19.8810 C.2    88  ASN88       0.2630
    116  OD1       -6.6800   -3.5380   20.4140 O.2    88  ASN88      -0.2716
    117  ND2       -6.4730   -5.5990   19.5560 N.am   88  ASN88      -0.0877
    118  N         -1.9400   -3.0550   19.2060 N.am   89  GLN89      -0.1963
    119  CA        -0.5790   -3.5150   18.9270 C.3    89  GLN89       0.1733
    120  C          0.4990   -2.5740   19.4050 C.2    89  GLN89       0.2617
    121  O          1.6760   -2.9340   19.3740 O.2    89  GLN89      -0.2715
    122  CB        -0.4090   -3.8300   17.4480 C.3    89  GLN89       0.0408
    123  CG        -1.4970   -4.7530   16.9240 C.3    89  GLN89       0.0908
    124  CD        -1.2080   -5.2060   15.5140 C.2    89  GLN89       0.2608
    125  OE1       -0.1750   -5.8230   15.2650 O.2    89  GLN89      -0.2717
    126  NE2       -2.0980   -4.8850   14.5840 N.am   89  GLN89      -0.0878
    127  N          0.1190   -1.3780   19.8660 N.am   90  GLY90      -0.1941
    128  CA         1.0810   -0.4390   20.4200 C.3    90  GLY90       0.1998
    129  C          1.9480    0.2270   19.3590 C.2    90  GLY90       0.2480
    130  O          1.6060    0.1920   18.1640 O.2    90  GLY90      -0.2729
    131  N          3.0580    0.8510   19.7970 N.am   91  PRO91      -0.2726
    132  CA         3.9360    1.6150   18.8960 C.3    91  PRO91       0.1402
    133  C          4.4060    0.8310   17.6770 C.2    91  PRO91       0.2269
    134  O          4.7090   -0.3760   17.7760 O.2    91  PRO91      -0.2865
    135  CB         5.1140    1.9920   19.7920 C.3    91  PRO91       0.0296
    136  CG         4.5540    2.0080   21.1730 C.3    91  PRO91       0.0237
    137  CD         3.5330    0.9180   21.1980 C.3    91  PRO91       0.0939
    138  N          7.5340    6.0010   17.9350 N.3   133  SER133     -0.1202
    139  CA         7.0110    5.4610   19.1740 C.3   133  SER133      0.2020
    140  C          5.6760    6.0960   19.6400 C.2   133  SER133      0.2618
    141  O          5.0190    5.5390   20.5150 O.2   133  SER133     -0.2717
    142  CB         8.0820    5.4490   20.2620 C.3   133  SER133      0.2103
    143  OG         8.5860    6.7280   20.5450 O.3   133  SER133     -0.2182
    144  N          5.2630    7.2080   19.0160 N.am  134  ASN134     -0.1974
    145  CA         3.9740    7.8480   19.2820 C.3   134  ASN134      0.1688
    146  C          2.9230    7.5060   18.2340 C.2   134  ASN134      0.2292
    147  O          1.8400    8.1090   18.2300 O.2   134  ASN134     -0.2864
    148  CB         4.1420    9.3850   19.4020 C.3   134  ASN134      0.1181
    149  CG         4.6920    9.8100   20.7480 C.2   134  ASN134      0.2629
    150  OD1        4.6130    9.0560   21.7130 O.2   134  ASN134     -0.2716
    151  ND2        5.2660   11.0100   20.8170 N.am  134  ASN134     -0.0877
    152  N          0.6150    4.5340   16.9460 N.3   136  LEU136     -0.1245
    153  CA         0.1000    3.2570   17.4560 C.3   136  LEU136      0.1561
    154  C         -0.5890    2.4530   16.3660 C.2   136  LEU136      0.2260
    155  O         -1.4050    2.9980   15.6360 O.2   136  LEU136     -0.2867
    156  CB        -0.8780    3.5030   18.6250 C.3   136  LEU136      0.0270
    157  CG        -0.3190    4.3250   19.7770 C.3   136  LEU136      0.0019
    158  CD1       -1.4130    4.7370   20.7470 C.3   136  LEU136      0.0001
    159  CD2        0.7930    3.5900   20.4950 C.3   136  LEU136      0.0001
    160  N         -0.6430    9.5990   18.7700 N.3   146  ALA146     -0.1231
    161  CA        -0.8820    9.7530   20.1970 C.3   146  ALA146      0.1694
    162  C          0.0960   10.7760   20.7860 C.2   146  ALA146      0.2592
    163  O          1.0740   11.1740   20.1500 O.2   146  ALA146     -0.2718
    164  CB        -0.7010    8.4110   20.8960 C.3   146  ALA146      0.0304
    165  N         -0.1760   11.1370   22.0270 N.am  147  ASP147     -0.1960
    166  CA         0.6490   12.0100   22.8750 C.3   147  ASP147      0.1840
    167  C          0.6400   13.4730   22.4440 C.2   147  ASP147      0.2622
    168  O          1.5310   13.9470   21.7000 O.2   147  ASP147     -0.2715
    169  CB         2.0960   11.5100   23.1120 C.3   147  ASP147      0.1450
    170  CG         2.6970   12.0890   24.4100 C.2   147  ASP147      0.3671
    171  OD1        2.1400   13.0840   24.9450 O.co2 147  ASP147     -0.2456
    172  OD2        3.7000   11.5480   24.9160 O.co2 147  ASP147     -0.2456
    173  N         -0.3680   14.1770   22.9410 N.am  148  PHE148     -0.1974
    174  CA        -0.5160   15.6100   22.7120 C.3   148  PHE148      0.1639
    175  C          0.0460   16.4650   23.8530 C.2   148  PHE148      0.2290
    176  O         -0.2740   17.6480   23.9620 O.2   148  PHE148     -0.2864
    177  CB        -1.9930   15.9170   22.3640 C.3   148  PHE148      0.0560
    178  CG        -2.3700   15.4240   20.9920 C.ar  148  PHE148     -0.0200
    179  CD1       -2.5860   14.0620   20.7560 C.ar  148  PHE148     -0.0042
    180  CD2       -2.4450   16.3050   19.9070 C.ar  148  PHE148     -0.0042
    181  CE1       -2.8790   13.5970   19.4770 C.ar  148  PHE148     -0.0003
    182  CE2       -2.7610   15.8440   18.6350 C.ar  148  PHE148     -0.0003
    183  CZ        -2.9650   14.4880   18.4180 C.ar  148  PHE148     -0.0000
@<TRIPOS>BOND
     1   126   124   am
     2   125   124    2
     3   124   123    1
     4   155   154    2
     5   154   153    1
     6   123   122    1
     7   152   153    1
     8   122   119    1
     9   153   156    1
    10   133   134    2
    11   133   132    1
    12   138   139    1
    13   108   107    1
    14    68    69    1
    15   130   129    2
    16   147   146    2
    17   146   145    1
    18   183   182   ar
    19   183   181   ar
    20   156   157    1
    21   182   180   ar
    22   160   161    1
    23    94    92   ar
    24   132   135    1
    25   132   131    1
    26   119   118    1
    27   119   120    1
    28    93    92   ar
    29   144   145    1
    30   144   140   am
    31   139   140    1
    32   139   142    1
    33   118   112   am
    34   145   148    1
    35    69    70    1
    36    69    72    1
    37   129   131   am
    38   129   128    1
    39   121   120    2
    40   148   149    1
    41   120   127   am
    42    92    91    1
    43   107   109    1
    44   107   104    1
    45   181   179   ar
    46   117   115   am
    47   114   115    1
    48   114   111    1
    49   140   141    2
    50    74    72    1
    51   157   159    1
    52   157   158    1
    53   135   136    1
    54   131   137    1
    55   127   128    1
    56   115   116    2
    57   180   178   ar
    58    70    71    2
    59   110   105   am
    60   110   111    1
    61   163   162    2
    62   104   105    1
    63   104   103    1
    64   161   162    1
    65   161   164    1
    66   142   143    1
    67    72    73    1
    68   105   106    2
    69   112   111    1
    70   112   113    2
    71   149   151   am
    72   149   150    2
    73   179   178   ar
    74   162   165   am
    75    91    90    1
    76   178   177    1
    77   136   137    1
    78    98    97    2
    79   103    97   am
    80   168   167    2
    81    90    87    1
    82    97    96    1
    83   165   166    1
    84   177   174    1
    85   167   166    1
    86   167   173   am
    87   174   173    1
    88   174   175    1
    89   166   169    1
    90   169   170    1
    91    89    88    2
    92    88    87    1
    93    88    95   am
    94    87    86    1
    95    95    96    1
    96    96    99    1
    97   175   176    2
    98    86    77   am
    99    99   100    1
   100   100   101    1
   101   100   102    1
   102   170   172   ar
   103   170   171   ar
   104    82    84   ar
   105    82    80   ar
   106    84    85   ar
   107    62    61    2
   108    77    76    1
   109    77    78    2
   110    79    80    1
   111    79    76    1
   112    80    81   ar
   113    76    75    1
   114    85    83   ar
   115    61    60    1
   116    60    59    1
   117    60    63    1
   118    64    63    1
   119    64    65    1
   120    49    46    1
   121     4     3    2
   122    81    83   ar
   123    67    65   ar
   124    65    66   ar
   125    23    24    1
   126    23    22    1
   127     8     6    1
   128    45    46    1
   129    24    25    2
   130    46    47    1
   131     3     9   am
   132     3     2    1
   133     5     6    1
   134     5     7    1
   135     5     2    1
   136    22    15   am
   137    10     9    1
   138    10    11    1
   139    43    42    1
   140    44    42    1
   141    48    47    2
   142     2     1    1
   143    58    57    1
   144    13    11   am
   145    13    14    1
   146    15    16    2
   147    15    14    1
   148    42    39    1
   149    11    12    2
   150    35    33   ar
   151    35    36   ar
   152    56    57    1
   153    56    55    1
   154    33    31   ar
   155    14    17    1
   156    26    27    1
   157    17    18    1
   158    37    36    1
   159    36    34   ar
   160    54    55    1
   161    54    51    1
   162    39    40    1
   163    39    38    1
   164    18    19    1
   165    29    28    2
   166    50    51    1
   167    31    30    1
   168    31    32   ar
   169    41    40    2
   170    27    30    1
   171    27    28    1
   172    51    52    1
   173    34    32   ar
   174    19    20    1
   175    52    53    2
   176    21    20    1
