@<TRIPOS>MOLECULE
tmp/6blfB00.pdb
 224 213 0 0 0
SMALL
GASTEIGER

@<TRIPOS>ATOM
      1  N          7.7960   35.6980   16.1120 N.3    87  TYR87      -0.1227
      2  CA         6.8900   34.6080   16.4390 C.3    87  TYR87       0.1736
      3  C          7.3220   33.7130   17.5840 C.2    87  TYR87       0.2595
      4  O          6.4800   33.4160   18.4090 O.2    87  TYR87      -0.2718
      5  CB         6.5920   33.7440   15.1980 C.3    87  TYR87       0.0548
      6  CG         5.6240   32.6060   15.4580 C.ar   87  TYR87      -0.0200
      7  CD1        4.2460   32.8030   15.3840 C.ar   87  TYR87      -0.0009
      8  CD2        6.0850   31.3250   15.7700 C.ar   87  TYR87      -0.0009
      9  CE1        3.3500   31.7570   15.6190 C.ar   87  TYR87       0.0417
     10  CE2        5.1990   30.2730   16.0110 C.ar   87  TYR87       0.0417
     11  CZ         3.8310   30.4960   15.9450 C.ar   87  TYR87       0.1957
     12  OH         2.9520   29.4640   16.1880 O.3    87  TYR87      -0.2866
     13  N          8.5870   33.2350   17.6070 N.am   88  HIS88      -0.1975
     14  CA         9.0590   32.2930   18.6290 C.3    88  HIS88       0.1656
     15  C          9.4790   32.9550   19.9180 C.2    88  HIS88       0.2291
     16  O         10.6260   32.8610   20.3440 O.2    88  HIS88      -0.2864
     17  CB        10.1640   31.4090   18.0430 C.3    88  HIS88       0.0771
     18  CG         9.6280   30.4010   17.0680 C.ar   88  HIS88       0.0820
     19  ND1        9.7910   30.5590   15.7090 N.ar   88  HIS88      -0.2267
     20  CD2        8.9110   29.2800   17.2980 C.ar   88  HIS88       0.1154
     21  CE1        9.1770   29.5300   15.1430 C.ar   88  HIS88       0.1986
     22  NE2        8.6340   28.7240   16.0600 N.ar   88  HIS88      -0.2212
     23  N         15.8030   28.7090   11.6950 N.3   136  ASN136     -0.1225
     24  CA        15.5170   27.2710   11.6470 C.3   136  ASN136      0.1785
     25  C         16.7910   26.3940   11.8390 C.2   136  ASN136      0.2597
     26  O         17.8730   26.9430   12.0520 O.2   136  ASN136     -0.2718
     27  CB        14.7780   26.9180   10.3290 C.3   136  ASN136      0.1169
     28  CG        15.5860   27.1120    9.0570 C.2   136  ASN136      0.2627
     29  OD1       16.7090   27.6130    9.0740 O.2   136  ASN136     -0.2716
     30  ND2       15.0200   26.7240    7.9150 N.am  136  ASN136     -0.0877
     31  N         16.6450   25.0480   11.7580 N.am  137  ASN137     -0.1974
     32  CA        17.7340   24.0690   11.8770 C.3   137  ASN137      0.1688
     33  C         18.7750   24.2130   10.7750 C.2   137  ASN137      0.2292
     34  O         19.9620   24.2160   11.0920 O.2   137  ASN137     -0.2864
     35  CB        17.2090   22.6470   11.9590 C.3   137  ASN137      0.1181
     36  CG        16.5130   22.3360   13.2640 C.2   137  ASN137      0.2629
     37  OD1       16.7810   22.9320   14.2940 O.2   137  ASN137     -0.2716
     38  ND2       15.5990   21.3980   13.2490 N.am  137  ASN137     -0.0877
     39  N         15.4340   21.7340   18.6150 N.3   159  GLU159     -0.1245
     40  CA        14.6180   20.9600   19.5800 C.3   159  GLU159      0.1567
     41  C         15.4540   20.3880   20.7110 C.2   159  GLU159      0.2260
     42  O         15.0150   20.4070   21.8570 O.2   159  GLU159     -0.2867
     43  CB        13.7600   19.8860   18.8970 C.3   159  GLU159      0.0388
     44  CG        12.7710   20.4500   17.8760 C.3   159  GLU159      0.1160
     45  CD        13.3210   21.0350   16.5830 C.2   159  GLU159      0.3649
     46  OE1       14.4390   20.6590   16.1600 O.co2 159  GLU159     -0.2457
     47  OE2       12.6230   21.8890   15.9920 O.co2 159  GLU159     -0.2457
     48  N          9.2810   15.9020   19.3150 N.3   199  ALA199     -0.1231
     49  CA         8.0870   15.7380   18.4830 C.3   199  ALA199      0.1694
     50  C          7.6970   17.0400   17.7610 C.2   199  ALA199      0.2593
     51  O          6.9850   16.9690   16.7570 O.2   199  ALA199     -0.2718
     52  CB         6.9200   15.2230   19.3130 C.3   199  ALA199      0.0304
     53  N          8.1960   18.2150   18.2240 N.am  200  THR200     -0.1939
     54  CA         7.8790   19.5100   17.5820 C.3   200  THR200      0.2028
     55  C          8.6960   19.7450   16.3060 C.2   200  THR200      0.2642
     56  O          8.4600   20.7500   15.6240 O.2   200  THR200     -0.2714
     57  CB         8.0320   20.6930   18.5400 C.3   200  THR200      0.1808
     58  OG1        9.3920   20.7840   18.9170 O.3   200  THR200     -0.2208
     59  CG2        7.1250   20.6170   19.7520 C.3   200  THR200      0.0379
     60  N          9.6750   18.8520   15.9890 N.am  201  ASP201     -0.1957
     61  CA        10.4490   18.9770   14.7500 C.3   201  ASP201      0.1840
     62  C          9.5340   18.3820   13.6430 C.2   201  ASP201      0.2621
     63  O          9.0910   17.2430   13.7910 O.2   201  ASP201     -0.2715
     64  CB        11.7760   18.1730   14.8070 C.3   201  ASP201      0.1450
     65  CG        12.6220   18.2200   13.5230 C.2   201  ASP201      0.3671
     66  OD1       13.7210   17.6470   13.5190 O.co2 201  ASP201     -0.2456
     67  OD2       12.1760   18.8380   12.5250 O.co2 201  ASP201     -0.2456
     68  N          9.2510   19.1400   12.5560 N.am  202  LEU202     -0.1977
     69  CA         8.3910   18.6600   11.4550 C.3   202  LEU202      0.1596
     70  C          8.8790   17.3350   10.8500 C.2   202  LEU202      0.2287
     71  O          8.0530   16.4830   10.5070 O.2   202  LEU202     -0.2864
     72  CB         8.1800   19.7320   10.3580 C.3   202  LEU202      0.0297
     73  CG         7.2810   19.3510    9.1420 C.3   202  LEU202      0.0022
     74  CD1        5.8520   19.0440    9.5590 C.3   202  LEU202      0.0001
     75  CD2        7.2940   20.4270    8.1010 C.3   202  LEU202      0.0001
     76  N          7.4670   14.5880   12.9250 N.3   205  HIS205     -0.1241
     77  CA         6.0410   14.3980   12.6180 C.3   205  HIS205      0.1621
     78  C          5.8730   13.6100   11.2860 C.2   205  HIS205      0.2264
     79  O          5.0940   12.6540   11.2350 O.2   205  HIS205     -0.2867
     80  CB         5.2980   15.7560   12.5950 C.3   205  HIS205      0.0745
     81  CG         3.9050   15.6470   12.0740 C.ar  205  HIS205      0.0817
     82  ND1        2.9140   15.0130   12.8050 N.ar  205  HIS205     -0.2268
     83  CD2        3.3980   16.0330   10.8770 C.ar  205  HIS205      0.1154
     84  CE1        1.8270   15.0590   12.0450 C.ar  205  HIS205      0.1986
     85  NE2        2.0710   15.6660   10.8740 N.ar  205  HIS205     -0.2212
     86  N          2.0290   18.3480   18.5590 N.3   237  THR237     -0.1218
     87  CA         1.9630   19.0980   17.2870 C.3   237  THR237      0.1862
     88  C          0.6500   19.9010   17.1790 C.2   237  THR237      0.2287
     89  O          0.6890   20.9820   16.6220 O.2   237  THR237     -0.2866
     90  CB         2.2760   18.2460   16.0610 C.3   237  THR237      0.1770
     91  OG1        1.3220   17.1970   15.9240 O.3   237  THR237     -0.2211
     92  CG2        3.7000   17.7060   16.0950 C.3   237  THR237      0.0375
     93  N          1.2600   23.0950   19.2090 N.3   240  ASP240     -0.1225
     94  CA         2.2220   23.9510   18.4890 C.3   240  ASP240      0.1805
     95  C          1.5570   24.7600   17.3380 C.2   240  ASP240      0.2597
     96  O          1.9190   25.9130   17.1120 O.2   240  ASP240     -0.2718
     97  CB         3.3800   23.1060   17.9370 C.3   240  ASP240      0.1424
     98  CG         4.7530   23.7640   17.9200 C.2   240  ASP240      0.3668
     99  OD1        4.8350   25.0030   18.1410 O.co2 240  ASP240     -0.2456
    100  OD2        5.7550   23.0430   17.6750 O.co2 240  ASP240     -0.2456
    101  N          0.5760   24.1670   16.6520 N.am  241  LEU241     -0.1979
    102  CA        -0.0950   24.8460   15.5200 C.3   241  LEU241      0.1596
    103  C         -1.4830   25.3680   15.8810 C.2   241  LEU241      0.2287
    104  O         -2.2630   25.7300   14.9850 O.2   241  LEU241     -0.2864
    105  CB        -0.2120   23.8630   14.3280 C.3   241  LEU241      0.0297
    106  CG         1.0830   23.1710   13.8620 C.3   241  LEU241      0.0022
    107  CD1        0.8380   22.3510   12.6080 C.3   241  LEU241      0.0001
    108  CD2        2.2230   24.1800   13.6220 C.3   241  LEU241      0.0001
    109  N         -3.9360   28.2200   14.3460 N.3   244  GLN244     -0.1245
    110  CA        -4.7200   27.9190   13.1280 C.3   244  GLN244      0.1566
    111  C         -6.1640   27.5220   13.4290 C.2   244  GLN244      0.2260
    112  O         -7.0010   27.5520   12.5300 O.2   244  GLN244     -0.2867
    113  CB        -4.0280   26.8230   12.2640 C.3   244  GLN244      0.0367
    114  CG        -2.5850   27.1570   11.8100 C.3   244  GLN244      0.0905
    115  CD        -2.3870   28.5920   11.3290 C.2   244  GLN244      0.2608
    116  OE1       -3.2110   29.1540   10.5940 O.2   244  GLN244     -0.2717
    117  NE2       -1.2870   29.2210   11.7410 N.am  244  GLN244     -0.0878
    118  N         -0.7320   35.8300   12.7190 N.3   254  ILE254     -0.1245
    119  CA         0.3550   34.8400   12.9000 C.3   254  ILE254      0.1561
    120  C          1.1410   34.6340   11.5650 C.2   254  ILE254      0.2260
    121  O          2.3440   34.3820   11.6030 O.2   254  ILE254     -0.2867
    122  CB        -0.1970   33.5520   13.5880 C.3   254  ILE254      0.0252
    123  CG1       -0.1100   33.7150   15.1280 C.3   254  ILE254      0.0019
    124  CG2        0.5000   32.2570   13.1620 C.3   254  ILE254      0.0019
    125  CD1       -1.0020   34.8710   15.7740 C.3   254  ILE254      0.0001
    126  N          5.1480   35.1160   11.4550 N.3   258  ILE258     -0.1231
    127  CA         6.0580   34.0770   10.9830 C.3   258  ILE258      0.1692
    128  C          6.8270   34.5120    9.7290 C.2   258  ILE258      0.2592
    129  O          7.9850   34.1480    9.6120 O.2   258  ILE258     -0.2718
    130  CB         5.3930   32.6660   10.8350 C.3   258  ILE258      0.0266
    131  CG1        6.4580   31.5190   10.8790 C.3   258  ILE258      0.0019
    132  CG2        4.4880   32.5520    9.5910 C.3   258  ILE258      0.0020
    133  CD1        7.3710   31.4630   12.2010 C.3   258  ILE258      0.0001
    134  N          6.2140   35.2850    8.8090 N.am  259  TYR259     -0.1976
    135  CA         6.9230   35.7160    7.5990 C.3   259  TYR259      0.1639
    136  C          7.8930   36.8290    7.9090 C.2   259  TYR259      0.2290
    137  O          8.9500   36.8360    7.3170 O.2   259  TYR259     -0.2864
    138  CB         5.9810   36.0110    6.4080 C.3   259  TYR259      0.0560
    139  CG         5.3520   34.7180    5.9330 C.ar  259  TYR259     -0.0198
    140  CD1        4.0060   34.4540    6.1600 C.ar  259  TYR259     -0.0009
    141  CD2        6.1250   33.7110    5.3590 C.ar  259  TYR259     -0.0009
    142  CE1        3.4340   33.2340    5.8040 C.ar  259  TYR259      0.0417
    143  CE2        5.5620   32.4810    4.9960 C.ar  259  TYR259      0.0417
    144  CZ         4.2150   32.2500    5.2180 C.ar  259  TYR259      0.1957
    145  OH         3.6400   31.0480    4.8740 O.3   259  TYR259     -0.2866
    146  N         10.7380   34.6620    9.2360 N.3   262  PHE262     -0.1241
    147  CA        11.3300   33.9120    8.1210 C.3   262  PHE262      0.1605
    148  C         12.1230   34.8360    7.1650 C.2   262  PHE262      0.2264
    149  O         13.2510   34.5110    6.8100 O.2   262  PHE262     -0.2867
    150  CB        10.2400   33.1640    7.3210 C.3   262  PHE262      0.0534
    151  CG         9.6920   31.8660    7.8770 C.ar  262  PHE262     -0.0203
    152  CD1       10.1760   31.3350    9.0710 C.ar  262  PHE262     -0.0042
    153  CD2        8.6670   31.1920    7.2250 C.ar  262  PHE262     -0.0042
    154  CE1        9.6580   30.1430    9.5880 C.ar  262  PHE262     -0.0003
    155  CE2        8.1520   29.9950    7.7430 C.ar  262  PHE262     -0.0003
    156  CZ         8.6640   29.4730    8.9140 C.ar  262  PHE262     -0.0000
    157  N         15.5010   29.5560    1.3490 N.3   277  MET277     -0.1245
    158  CA        14.3750   28.7670    0.8320 C.3   277  MET277      0.1570
    159  C         13.4020   29.8160    0.2550 C.2   277  MET277      0.2261
    160  O         13.4390   30.9700    0.6870 O.2   277  MET277     -0.2867
    161  CB        13.6120   28.0560    1.9730 C.3   277  MET277      0.0387
    162  CG        14.4250   27.1100    2.8300 C.3   277  MET277      0.0595
    163  SD        13.5800   26.7510    4.4140 S.3   277  MET277     -0.1393
    164  CE        12.1450   25.8450    3.8320 C.3   277  MET277      0.0692
    165  N         10.1760   30.2650    0.7900 N.3   279  MET279     -0.1230
    166  CA         9.3510   30.7800    1.8940 C.3   279  MET279      0.1702
    167  C         10.0650   31.7540    2.8440 C.2   279  MET279      0.2592
    168  O          9.4050   32.4110    3.6560 O.2   279  MET279     -0.2718
    169  CB         8.7080   29.6270    2.6820 C.3   279  MET279      0.0401
    170  CG         9.6260   28.9220    3.6440 C.3   279  MET279      0.0596
    171  SD         8.6400   27.8500    4.7110 S.3   279  MET279     -0.1393
    172  CE         8.0590   26.6120    3.4980 C.3   279  MET279      0.0692
    173  N         11.4080   31.8440    2.7460 N.am  280  MET280     -0.1979
    174  CA        12.1990   32.7600    3.5720 C.3   280  MET280      0.1605
    175  C         12.7310   33.9250    2.7250 C.2   280  MET280      0.2287
    176  O         13.3270   34.8580    3.2700 O.2   280  MET280     -0.2864
    177  CB        13.3400   32.0110    4.2700 C.3   280  MET280      0.0413
    178  CG        12.8720   30.7740    5.0040 C.3   280  MET280      0.0598
    179  SD        13.6170   30.7240    6.6210 S.3   280  MET280     -0.1393
    180  CE        12.8030   29.3090    7.3010 C.3   280  MET280      0.0692
    181  N          1.6970   29.9580    0.2430 N.3   290  LEU290     -0.1231
    182  CA         2.4850   29.3000    1.2830 C.3   290  LEU290      0.1693
    183  C          1.5670   28.9150    2.4460 C.2   290  LEU290      0.2591
    184  O          1.6820   27.8040    2.9750 O.2   290  LEU290     -0.2718
    185  CB         3.6600   30.1840    1.7320 C.3   290  LEU290      0.0284
    186  CG         4.7690   30.4120    0.6950 C.3   290  LEU290      0.0019
    187  CD1        5.6890   31.4840    1.1420 C.3   290  LEU290      0.0001
    188  CD2        5.5440   29.1520    0.4060 C.3   290  LEU290      0.0001
    189  N          0.6170   29.8090    2.7940 N.am  291  GLN291     -0.1979
    190  CA        -0.3760   29.5480    3.8450 C.3   291  GLN291      0.1601
    191  C         -1.3050   28.3990    3.4160 C.2   291  GLN291      0.2287
    192  O         -1.5540   27.4930    4.2210 O.2   291  GLN291     -0.2864
    193  CB        -1.1660   30.8050    4.2280 C.3   291  GLN291      0.0394
    194  CG        -0.3660   31.7980    5.0620 C.3   291  GLN291      0.0908
    195  CD        -0.1040   31.2800    6.4650 C.2   291  GLN291      0.2608
    196  OE1       -1.0160   31.1490    7.2800 O.2   291  GLN291     -0.2717
    197  NE2        1.1460   30.9600    6.7730 N.am  291  GLN291     -0.0878
    198  N          0.7790   25.0860    3.6310 N.3   294  PHE294     -0.1241
    199  CA         0.9890   24.7070    5.0340 C.3   294  PHE294      0.1605
    200  C         -0.3460   24.2030    5.6210 C.2   294  PHE294      0.2264
    201  O         -0.3570   23.1760    6.2790 O.2   294  PHE294     -0.2867
    202  CB         1.5260   25.8960    5.8430 C.3   294  PHE294      0.0534
    203  CG         1.5240   25.6960    7.3400 C.ar  294  PHE294     -0.0203
    204  CD1        2.4740   24.8850    7.9520 C.ar  294  PHE294     -0.0042
    205  CD2        0.5890   26.3410    8.1420 C.ar  294  PHE294     -0.0042
    206  CE1        2.4760   24.7080    9.3390 C.ar  294  PHE294     -0.0003
    207  CE2        0.5940   26.1620    9.5280 C.ar  294  PHE294     -0.0003
    208  CZ         1.5310   25.3400   10.1100 C.ar  294  PHE294     -0.0000
    209  N          0.1140   20.3820    6.1390 N.3   298  ILE298     -0.1245
    210  CA         0.6130   20.2470    7.5060 C.3   298  ILE298      0.1561
    211  C         -0.5010   20.3390    8.5640 C.2   298  ILE298      0.2260
    212  O         -0.7640   19.3500    9.2550 O.2   298  ILE298     -0.2867
    213  CB         1.7880   21.2230    7.8390 C.3   298  ILE298      0.0252
    214  CG1        2.9230   21.1750    6.7790 C.3   298  ILE298      0.0019
    215  CG2        2.3240   20.9900    9.2970 C.3   298  ILE298      0.0019
    216  CD1        3.5840   19.7850    6.5560 C.3   298  ILE298      0.0001
    217  N         -3.2090   16.9470   10.6830 N.3   302  ILE302     -0.1245
    218  CA        -3.0100   16.8430   12.1380 C.3   302  ILE302      0.1561
    219  C         -4.3700   16.9690   12.8490 C.2   302  ILE302      0.2260
    220  O         -4.6840   16.1550   13.7090 O.2   302  ILE302     -0.2867
    221  CB        -1.9820   17.9270   12.6440 C.3   302  ILE302      0.0252
    222  CG1       -0.5390   17.4600   12.3420 C.3   302  ILE302      0.0019
    223  CG2       -2.1530   18.2030   14.1720 C.3   302  ILE302      0.0019
    224  CD1        0.6300   18.5060   12.5500 C.3   302  ILE302      0.0001
@<TRIPOS>BOND
     1   181   182    1
     2   159   160    2
     3   159   158    1
     4   188   186    1
     5   186   187    1
     6   186   185    1
     7   165   166    1
     8   158   157    1
     9   158   161    1
    10   182   185    1
    11   182   183    1
    12   166   169    1
    13   166   167    1
    14   161   162    1
    15   183   189   am
    16   183   184    2
    17   169   170    1
    18   175   176    2
    19   175   174    1
    20   173   167   am
    21   173   174    1
    22   189   190    1
    23   162   163    1
    24   167   168    2
    25   191   190    1
    26   191   192    2
    27   172   171    1
    28   174   177    1
    29   198   199    1
    30   170   171    1
    31   164   163    1
    32   190   193    1
    33   193   194    1
    34   177   178    1
    35   145   144    1
    36   143   144   ar
    37   143   141   ar
    38   178   179    1
    39   199   200    1
    40   199   202    1
    41   194   195    1
    42   144   142   ar
    43   141   139   ar
    44   200   201    2
    45   142   140   ar
    46   202   203    1
    47   139   140   ar
    48   139   138    1
    49   209   210    1
    50   138   135    1
    51   195   197   am
    52   195   196    2
    53   216   214    1
    54   179   180    1
    55   214   213    1
    56   149   148    2
    57   148   147    1
    58   153   155   ar
    59   153   151   ar
    60   137   136    2
    61   150   151    1
    62   150   147    1
    63   203   204   ar
    64   203   205   ar
    65   210   213    1
    66   210   211    1
    67   135   136    1
    68   135   134    1
    69   155   156   ar
    70   213   215    1
    71   151   152   ar
    72    30    28   am
    73   204   206   ar
    74    75    73    1
    75   147   146    1
    76   205   207   ar
    77   211   212    2
    78   134   128   am
    79   156   154   ar
    80    28    29    2
    81    28    27    1
    82   152   154   ar
    83    73    74    1
    84    73    72    1
    85   206   208   ar
    86   207   208   ar
    87   132   130    1
    88   129   128    2
    89   128   127    1
    90    27    24    1
    91    72    69    1
    92    71    70    2
    93   116   115    2
    94   217   218    1
    95    33    34    2
    96    33    32    1
    97   130   131    1
    98   130   127    1
    99    70    69    1
   100    85    83   ar
   101    85    84   ar
   102    83    81   ar
   103   131   133    1
   104   127   126    1
   105    79    78    2
   106    78    77    1
   107   115   117   am
   108   115   114    1
   109    69    68    1
   110   120   121    2
   111   120   119    1
   112    24    23    1
   113    24    25    1
   114    31    25   am
   115    31    32    1
   116   114   113    1
   117    25    26    2
   118    32    35    1
   119    35    36    1
   120    84    82   ar
   121    81    80    1
   122    81    82   ar
   123   218   221    1
   124   218   219    1
   125   113   110    1
   126   222   224    1
   127   222   221    1
   128    67    65   ar
   129   112   111    2
   130    68    62   am
   131    80    77    1
   132   107   106    1
   133    77    76    1
   134   221   223    1
   135   118   119    1
   136   219   220    2
   137   119   122    1
   138   110   111    1
   139   110   109    1
   140   124   122    1
   141    38    36   am
   142    36    37    2
   143    66    65   ar
   144    65    64    1
   145   122   123    1
   146   108   106    1
   147    62    63    2
   148    62    61    1
   149   106   105    1
   150   105   102    1
   151    61    64    1
   152    61    60    1
   153   104   103    2
   154   123   125    1
   155    21    19   ar
   156    21    22   ar
   157     5     6    1
   158     5     2    1
   159     7     6   ar
   160     7     9   ar
   161     6     8   ar
   162   102   103    1
   163   102   101    1
   164     9    11   ar
   165    56    55    2
   166    19    18   ar
   167     8    10   ar
   168    91    90    1
   169    11    10   ar
   170    11    12    1
   171    60    55   am
   172    47    45   ar
   173    22    20   ar
   174    90    92    1
   175    90    87    1
   176     1     2    1
   177    46    45   ar
   178    55    54    1
   179     2     3    1
   180    45    44    1
   181    89    88    2
   182   101    95   am
   183    51    50    2
   184    18    20   ar
   185    18    17    1
   186    96    95    2
   187    88    87    1
   188    87    86    1
   189    95    94    1
   190    54    53    1
   191    54    57    1
   192     3    13   am
   193     3     4    2
   194    13    14    1
   195   100    98   ar
   196    50    53   am
   197    50    49    1
   198    44    43    1
   199    98    97    1
   200    98    99   ar
   201    97    94    1
   202    17    14    1
   203    49    52    1
   204    49    48    1
   205    94    93    1
   206    57    58    1
   207    57    59    1
   208    39    40    1
   209    14    15    1
   210    43    40    1
   211    40    41    1
   212    15    16    2
   213    41    42    2
