@<TRIPOS>MOLECULE
tmp/6bljA00.pdb
 144 135 0 0 0
SMALL
GASTEIGER

@<TRIPOS>ATOM
      1  N          8.6140   61.6530   -6.9290 N.3   278  THR278     -0.1218
      2  CA         7.6810   62.7520   -7.1470 C.3   278  THR278      0.1862
      3  C          7.9720   63.8260   -6.1030 C.2   278  THR278      0.2287
      4  O          8.3030   63.4980   -4.9620 O.2   278  THR278     -0.2866
      5  CB         6.2090   62.2750   -7.0520 C.3   278  THR278      0.1770
      6  OG1        5.3270   63.4060   -6.9590 O.3   278  THR278     -0.2211
      7  CG2        5.9650   61.3610   -5.8250 C.3   278  THR278      0.0375
      8  N         12.2140   56.8140  -11.1900 N.3   309  ARG309     -0.1245
      9  CA        11.4080   55.6340  -10.9070 C.3   309  ARG309      0.1563
     10  C         12.0380   54.4030  -11.5350 C.2   309  ARG309      0.2260
     11  O         12.2970   54.3800  -12.7400 O.2   309  ARG309     -0.2867
     12  CB         9.9790   55.8270  -11.4120 C.3   309  ARG309      0.0307
     13  CG         9.2990   57.0000  -10.7270 C.3   309  ARG309      0.0489
     14  CD         7.8460   56.9980  -10.9770 C.3   309  ARG309      0.2205
     15  NE         7.2170   58.1550  -10.3730 N.pl3 309  ARG309     -0.0865
     16  CZ         5.9080   58.2610  -10.2130 C.cat 309  ARG309      0.5346
     17  NH1        5.1150   57.2590  -10.6100 N.pl3 309  ARG309      0.1354
     18  NH2        5.4040   59.3630   -9.6750 N.pl3 309  ARG309      0.1354
     19  N         10.6780   51.4930  -12.0300 N.3   311  GLU311     -0.1245
     20  CA         9.7300   50.8040  -12.9260 C.3   311  GLU311      0.1567
     21  C         10.0060   49.3000  -12.9900 C.2   311  GLU311      0.2260
     22  O          9.8780   48.6650  -14.0420 O.2   311  GLU311     -0.2867
     23  CB         9.7590   51.4100  -14.3360 C.3   311  GLU311      0.0388
     24  CG         9.3520   52.8870  -14.3800 C.3   311  GLU311      0.1160
     25  CD         7.9070   53.0730  -13.9910 C.2   311  GLU311      0.3649
     26  OE1        7.1000   52.2080  -14.3910 O.co2 311  GLU311     -0.2457
     27  OE2        7.5830   54.0690  -13.2960 O.co2 311  GLU311     -0.2457
     28  N          7.5910   57.8840  -23.1130 N.3   323  PHE323     -0.1227
     29  CA         6.3080   57.7900  -22.4070 C.3   323  PHE323      0.1736
     30  C          6.4820   57.2290  -20.9940 C.2   323  PHE323      0.2595
     31  O          5.8630   57.7170  -20.0400 O.2   323  PHE323     -0.2718
     32  CB         5.3560   56.9170  -23.2270 C.3   323  PHE323      0.0547
     33  CG         4.0180   56.6880  -22.5950 C.ar  323  PHE323     -0.0202
     34  CD1        3.8440   55.6620  -21.6760 C.ar  323  PHE323     -0.0042
     35  CD2        2.9180   57.4570  -22.9600 C.ar  323  PHE323     -0.0042
     36  CE1        2.5920   55.4250  -21.1000 C.ar  323  PHE323     -0.0003
     37  CE2        1.6580   57.2170  -22.3970 C.ar  323  PHE323     -0.0003
     38  CZ         1.4980   56.2090  -21.4660 C.ar  323  PHE323     -0.0000
     39  N          7.2810   56.1790  -20.8480 N.am  324  ARG324     -0.1966
     40  CA         7.5840   55.5910  -19.5460 C.3   324  ARG324      0.1729
     41  C          9.0940   55.4820  -19.4370 C.2   324  ARG324      0.2616
     42  O          9.7070   54.6430  -20.1130 O.2   324  ARG324     -0.2715
     43  CB         6.9300   54.2130  -19.3890 C.3   324  ARG324      0.0348
     44  CG         7.2150   53.5630  -18.0390 C.3   324  ARG324      0.0492
     45  CD         6.6550   52.1430  -17.9690 C.3   324  ARG324      0.2205
     46  NE         5.2160   52.1150  -18.2030 N.pl3 324  ARG324     -0.0865
     47  CZ         4.3000   52.3590  -17.2710 C.cat 324  ARG324      0.5346
     48  NH1        4.6720   52.6320  -16.0240 N.pl3 324  ARG324      0.1354
     49  NH2        3.0090   52.3200  -17.5830 N.pl3 324  ARG324      0.1354
     50  N          9.6840   56.2990  -18.5640 N.am  325  VAL325     -0.1977
     51  CA        11.1250   56.4010  -18.4110 C.3   325  VAL325      0.1596
     52  C         11.4650   56.3210  -16.9220 C.2   325  VAL325      0.2287
     53  O         10.5810   56.2690  -16.0710 O.2   325  VAL325     -0.2864
     54  CB        11.6720   57.6960  -19.0420 C.3   325  VAL325      0.0276
     55  CG1       11.5960   57.6190  -20.5690 C.3   325  VAL325      0.0022
     56  CG2       10.8720   58.9120  -18.5370 C.3   325  VAL325      0.0022
     57  N         12.2180   61.9490  -15.3750 N.3   328  PHE328     -0.1241
     58  CA        11.3650   62.9290  -16.0430 C.3   328  PHE328      0.1605
     59  C         11.0870   64.0910  -15.0910 C.2   328  PHE328      0.2264
     60  O         11.1500   63.9440  -13.8620 O.2   328  PHE328     -0.2867
     61  CB        10.0540   62.2740  -16.5240 C.3   328  PHE328      0.0534
     62  CG         9.2280   61.6580  -15.4050 C.ar  328  PHE328     -0.0203
     63  CD1        9.4940   60.3740  -14.9580 C.ar  328  PHE328     -0.0042
     64  CD2        8.1930   62.3650  -14.8080 C.ar  328  PHE328     -0.0042
     65  CE1        8.7320   59.7860  -13.9350 C.ar  328  PHE328     -0.0003
     66  CE2        7.4360   61.7940  -13.7800 C.ar  328  PHE328     -0.0003
     67  CZ         7.7130   60.4900  -13.3480 C.ar  328  PHE328     -0.0000
     68  N          8.4420   66.9090  -13.5250 N.3   330  LYS330     -0.1245
     69  CA         7.0140   66.9470  -13.2490 C.3   330  LYS330      0.1561
     70  C          6.6750   68.1730  -12.4050 C.2   330  LYS330      0.2260
     71  O          7.3490   68.4670  -11.4080 O.2   330  LYS330     -0.2867
     72  CB         6.5400   65.6540  -12.5530 C.3   330  LYS330      0.0271
     73  CG         5.0200   65.6560  -12.2530 C.3   330  LYS330      0.0035
     74  CD         4.4760   64.2730  -11.8550 C.3   330  LYS330      0.0206
     75  CE         5.1090   63.6880  -10.5840 C.3   330  LYS330      0.1093
     76  NZ         5.0720   64.6210   -9.4190 N.3   330  LYS330     -0.1314
     77  N         -9.3750   58.8070   -6.0080 N.3   383  LYS383     -0.1245
     78  CA        -8.3990   59.1890   -7.0240 C.3   383  LYS383      0.1561
     79  C         -9.0940   59.3760   -8.3650 C.2   383  LYS383      0.2260
     80  O         -9.8420   58.4960   -8.8120 O.2   383  LYS383     -0.2867
     81  CB        -7.2830   58.1380   -7.1340 C.3   383  LYS383      0.0271
     82  CG        -6.1530   58.4630   -8.1150 C.3   383  LYS383      0.0035
     83  CD        -4.8970   57.6700   -7.7660 C.3   383  LYS383      0.0206
     84  CE        -4.6440   56.5650   -8.7600 C.3   383  LYS383      0.1093
     85  NZ        -4.0540   57.0500  -10.0480 N.3   383  LYS383     -0.1314
     86  N         -3.1010   57.6010  -19.1180 N.3   401  GLU401     -0.1231
     87  CA        -3.0370   58.5250  -17.9960 C.3   401  GLU401      0.1699
     88  C         -1.8980   59.5310  -18.1640 C.2   401  GLU401      0.2592
     89  O         -0.7640   59.1760  -18.5060 O.2   401  GLU401     -0.2718
     90  CB        -2.8860   57.7410  -16.6820 C.3   401  GLU401      0.0402
     91  CG        -1.5380   57.0810  -16.4450 C.3   401  GLU401      0.1161
     92  CD        -1.3280   55.7850  -17.2210 C.2   401  GLU401      0.3649
     93  OE1       -2.2110   55.3980  -18.0190 O.co2 401  GLU401     -0.2457
     94  OE2       -0.2620   55.1500  -17.0270 O.co2 401  GLU401     -0.2457
     95  N         -2.2260   60.8050  -17.9450 N.am  402  LEU402     -0.1966
     96  CA        -1.2720   61.9070  -17.8520 C.3   402  LEU402      0.1728
     97  C         -1.2250   62.5180  -16.4590 C.2   402  LEU402      0.2616
     98  O         -0.2210   63.1560  -16.1080 O.2   402  LEU402     -0.2715
     99  CB        -1.6420   63.0460  -18.8240 C.3   402  LEU402      0.0311
    100  CG        -1.3270   62.9350  -20.3070 C.3   402  LEU402      0.0022
    101  CD1       -1.4770   64.3040  -20.9870 C.3   402  LEU402      0.0001
    102  CD2        0.0680   62.4140  -20.4500 C.3   402  LEU402      0.0001
    103  N         -2.3050   62.3730  -15.6930 N.am  403  VAL403     -0.1963
    104  CA        -2.5190   63.0530  -14.4160 C.3   403  VAL403      0.1727
    105  C         -3.1820   62.0780  -13.4580 C.2   403  VAL403      0.2616
    106  O         -4.0850   61.3320  -13.8470 O.2   403  VAL403     -0.2715
    107  CB        -3.4020   64.3070  -14.5910 C.3   403  VAL403      0.0290
    108  CG1       -3.9470   64.7930  -13.2350 C.3   403  VAL403      0.0023
    109  CG2       -2.6300   65.4170  -15.2970 C.3   403  VAL403      0.0023
    110  N         -2.7260   62.0720  -12.2080 N.am  404  SER404     -0.1950
    111  CA        -3.4620   61.4710  -11.1090 C.3   404  SER404      0.1924
    112  C         -3.6660   62.5210  -10.0190 C.2   404  SER404      0.2314
    113  O         -2.7690   63.3290   -9.7360 O.2   404  SER404     -0.2863
    114  CB        -2.7190   60.2450  -10.5610 C.3   404  SER404      0.2116
    115  OG        -1.4820   60.6560  -10.0240 O.3   404  SER404     -0.2180
    116  N         -0.9060   65.6780  -10.1430 N.3   432  THR432     -0.1218
    117  CA        -0.0930   66.0890  -11.2750 C.3   432  THR432      0.1862
    118  C         -0.6680   67.3420  -11.9190 C.2   432  THR432      0.2287
    119  O         -1.8810   67.4690  -12.0770 O.2   432  THR432     -0.2866
    120  CB        -0.0630   65.0080  -12.3530 C.3   432  THR432      0.1770
    121  OG1       -0.0100   63.7070  -11.7580 O.3   432  THR432     -0.2211
    122  CG2        1.1180   65.2530  -13.3150 C.3   432  THR432      0.0375
    123  N          3.6490   66.0190  -16.1770 N.3   435  ALA435     -0.1245
    124  CA         4.9040   65.2970  -16.3040 C.3   435  ALA435      0.1562
    125  C          5.3530   65.4490  -17.7560 C.2   435  ALA435      0.2260
    126  O          4.6450   65.0140  -18.6710 O.2   435  ALA435     -0.2867
    127  CB         4.7130   63.8290  -15.9180 C.3   435  ALA435      0.0290
    128  N          7.8030   64.6710  -20.1080 N.3   437  SER437     -0.1202
    129  CA         8.1640   63.7630  -21.2050 C.3   437  SER437      0.2020
    130  C          6.9290   63.0700  -21.7870 C.2   437  SER437      0.2618
    131  O          6.7840   62.9760  -23.0140 O.2   437  SER437     -0.2717
    132  CB         9.2290   62.7510  -20.7510 C.3   437  SER437      0.2103
    133  OG         8.7100   61.6480  -20.0090 O.3   437  SER437     -0.2182
    134  N          6.0000   62.6270  -20.9310 N.am  438  ARG438     -0.1979
    135  CA         4.7700   62.0180  -21.4390 C.3   438  ARG438      0.1597
    136  C          3.8250   63.0610  -22.0510 C.2   438  ARG438      0.2287
    137  O          3.1000   62.7560  -23.0080 O.2   438  ARG438     -0.2864
    138  CB         4.0620   61.2330  -20.3280 C.3   438  ARG438      0.0334
    139  CG         2.8610   60.3830  -20.7990 C.3   438  ARG438      0.0492
    140  CD         2.2790   59.5320  -19.6740 C.3   438  ARG438      0.2205
    141  NE         3.2350   58.5210  -19.2110 N.pl3 438  ARG438     -0.0865
    142  CZ         2.9310   57.5510  -18.3560 C.cat 438  ARG438      0.5346
    143  NH1        1.6830   57.4490  -17.8830 N.pl3 438  ARG438      0.1354
    144  NH2        3.8590   56.6610  -18.0080 N.pl3 438  ARG438      0.1354
@<TRIPOS>BOND
     1    32    33    1
     2    32    29    1
     3    28    29    1
     4   131   130    2
     5   137   136    2
     6    35    33   ar
     7    35    37   ar
     8    33    34   ar
     9    29    30    1
    10    37    38   ar
    11   136   135    1
    12   130   129    1
    13   130   134   am
    14    34    36   ar
    15    38    36   ar
    16   135   134    1
    17   135   138    1
    18   129   132    1
    19   129   128    1
    20    30    39   am
    21    30    31    2
    22   101   100    1
    23    39    40    1
    24   139   138    1
    25   139   140    1
    26   132   133    1
    27    55    54    1
    28   102   100    1
    29   100    99    1
    30    42    41    2
    31   140   141    1
    32    40    41    1
    33    40    43    1
    34    41    50   am
    35    43    44    1
    36   141   142    2
    37    86    87    1
    38    54    56    1
    39    54    51    1
    40    99    96    1
    41   126   125    2
    42    50    51    1
    43    89    88    2
    44    51    52    1
    45   142   144    1
    46   142   143    1
    47    46    45    1
    48    46    47    2
    49    88    87    1
    50    88    95   am
    51    44    45    1
    52    93    92   ar
    53    87    90    1
    54    95    96    1
    55    96    97    1
    56   125   124    1
    57    49    47    1
    58    47    48    1
    59    92    94   ar
    60    92    91    1
    61    52    53    2
    62    90    91    1
    63    61    58    1
    64    61    62    1
    65    97    98    2
    66    97   103   am
    67   124   123    1
    68   124   127    1
    69    58    57    1
    70    58    59    1
    71   103   104    1
    72    62    63   ar
    73    62    64   ar
    74   109   107    1
    75    59    60    2
    76    63    65   ar
    77    64    66   ar
    78   107   104    1
    79   107   108    1
    80   104   105    1
    81    26    25   ar
    82    24    23    1
    83    24    25    1
    84    23    20    1
    85    22    21    2
    86    25    27   ar
    87    65    67   ar
    88   106   105    2
    89    66    67   ar
    90    68    69    1
    91   105   110   am
    92   122   120    1
    93    69    72    1
    94    69    70    1
    95    21    20    1
    96    20    19    1
    97    11    10    2
    98    72    73    1
    99    70    71    2
   100   120   121    1
   101   120   117    1
   102    73    74    1
   103   110   111    1
   104   119   118    2
   105   118   117    1
   106    74    75    1
   107    10     9    1
   108    12     9    1
   109    12    13    1
   110   117   116    1
   111     8     9    1
   112   111   114    1
   113   111   112    1
   114    14    13    1
   115    14    15    1
   116    17    16    1
   117    75    76    1
   118   114   115    1
   119    15    16    2
   120    16    18    1
   121    85    84    1
   122   112   113    2
   123    80    79    2
   124    84    83    1
   125    79    78    1
   126    82    83    1
   127    82    81    1
   128     2     5    1
   129     2     1    1
   130     2     3    1
   131    81    78    1
   132     5     6    1
   133     5     7    1
   134    78    77    1
   135     3     4    2
