@<TRIPOS>MOLECULE
tmp/6blkA00.pdb
 194 187 0 0 0
SMALL
GASTEIGER

@<TRIPOS>ATOM
      1  N         23.8010    5.5240  -22.4180 N.3    53  ASN53      -0.1240
      2  CA        24.4550    4.3760  -23.0280 C.3    53  ASN53       0.1653
      3  C         24.8950    4.6780  -24.4570 C.2    53  ASN53       0.2266
      4  O         25.9580    4.2160  -24.8950 O.2    53  ASN53      -0.2867
      5  CB        23.5440    3.1520  -23.0110 C.3    53  ASN53       0.1155
      6  CG        23.4080    2.5320  -21.6230 C.2    53  ASN53       0.2627
      7  OD1       23.9430    3.0250  -20.6280 O.2    53  ASN53      -0.2716
      8  ND2       22.6780    1.4440  -21.5600 N.am   53  ASN53      -0.0877
      9  N         27.8310    7.1270  -24.2460 N.3    56  ASP56      -0.1225
     10  CA        29.0340    6.4470  -23.7870 C.3    56  ASP56       0.1805
     11  C         29.7310    5.7260  -24.9380 C.2    56  ASP56       0.2598
     12  O         30.9620    5.7880  -25.0530 O.2    56  ASP56      -0.2718
     13  CB        28.7040    5.4690  -22.6670 C.3    56  ASP56       0.1424
     14  CG        29.9370    4.8750  -22.0530 C.2    56  ASP56       0.3668
     15  OD1       30.7160    5.6640  -21.4760 O.co2  56  ASP56      -0.2456
     16  OD2       30.1120    3.6400  -22.1680 O.co2  56  ASP56      -0.2456
     17  N         28.9660    5.0550  -25.8160 N.am   57  ASN57      -0.1960
     18  CA        29.5580    4.3990  -26.9830 C.3    57  ASN57       0.1819
     19  C         30.1700    5.4200  -27.9140 C.2    57  ASN57       0.2621
     20  O         31.2750    5.2160  -28.4400 O.2    57  ASN57      -0.2715
     21  CB        28.5220    3.5680  -27.7550 C.3    57  ASN57       0.1195
     22  CG        28.0200    2.3890  -26.9730 C.2    57  ASN57       0.2630
     23  OD1       28.6810    1.9090  -26.0430 O.2    57  ASN57      -0.2716
     24  ND2       26.8310    1.9100  -27.3400 N.am   57  ASN57      -0.0877
     25  N         29.4760    6.5350  -28.1150 N.am   58  ALA58      -0.1977
     26  CA        29.9840    7.5440  -29.0220 C.3    58  ALA58       0.1597
     27  C         31.3250    8.0420  -28.5210 C.2    58  ALA58       0.2287
     28  O         32.2550    8.2440  -29.3100 O.2    58  ALA58      -0.2864
     29  CB        28.9770    8.6970  -29.1520 C.3    58  ALA58       0.0319
     30  N         33.4290    6.3780  -26.4220 N.3    60  LYS60      -0.1231
     31  CA        34.4400    5.3220  -26.3260 C.3    60  LYS60       0.1693
     32  C         35.2140    5.2080  -27.6200 C.2    60  LYS60       0.2592
     33  O         36.4590    5.0980  -27.6180 O.2    60  LYS60      -0.2718
     34  CB        33.7970    3.9670  -25.9820 C.3    60  LYS60       0.0285
     35  CG        33.4870    3.7990  -24.5130 C.3    60  LYS60       0.0035
     36  CD        32.5930    2.5750  -24.2680 C.3    60  LYS60       0.0206
     37  CE        33.3050    1.2830  -24.5530 C.3    60  LYS60       0.1093
     38  NZ        32.4540    0.0430  -24.3280 N.3    60  LYS60      -0.1314
     39  N         34.4940    5.2280  -28.7370 N.am   61  TRP61      -0.1976
     40  CA        35.0770    5.0040  -30.0470 C.3    61  TRP61       0.1640
     41  C         35.3130    6.3050  -30.8210 C.2    61  TRP61       0.2290
     42  O         35.5960    6.2550  -32.0180 O.2    61  TRP61      -0.2864
     43  CB        34.2200    4.0050  -30.8250 C.3    61  TRP61       0.0576
     44  CG        34.4060    2.6040  -30.2690 C.ar   61  TRP61       0.0006
     45  CD1       35.4810    1.7880  -30.4650 C.ar   61  TRP61       0.0946
     46  CD2       33.5060    1.8730  -29.4110 C.ar   61  TRP61       0.0152
     47  NE1       35.3130    0.6020  -29.7810 N.ar   61  TRP61      -0.2442
     48  CE2       34.1020    0.6250  -29.1370 C.ar   61  TRP61       0.0810
     49  CE3       32.2500    2.1580  -28.8600 C.ar   61  TRP61       0.0012
     50  CZ2       33.5010   -0.3250  -28.3210 C.ar   61  TRP61       0.0191
     51  CZ3       31.6500    1.2070  -28.0540 C.ar   61  TRP61       0.0001
     52  CH2       32.2730   -0.0190  -27.7940 C.ar   61  TRP61       0.0015
     53  N         29.1300   10.1160  -34.1100 N.3    86  ASP86      -0.1239
     54  CA        30.5560   10.2370  -33.7910 C.3    86  ASP86       0.1674
     55  C         31.3790   10.1590  -35.0670 C.2    86  ASP86       0.2266
     56  O         30.8640   10.0150  -36.1780 O.2    86  ASP86      -0.2867
     57  CB        30.9990    9.1710  -32.7850 C.3    86  ASP86       0.1410
     58  CG        30.7700    7.7800  -33.3000 C.2    86  ASP86       0.3668
     59  OD1       31.3300    7.4250  -34.3690 O.co2  86  ASP86      -0.2456
     60  OD2       29.9750    7.0530  -32.6600 O.co2  86  ASP86      -0.2456
     61  N         34.8740    4.5460  -36.2290 N.3    89  PRO89      -0.2102
     62  CA        34.9480    3.7250  -37.4400 C.3    89  PRO89       0.1504
     63  C         33.6190    3.4540  -38.1090 C.2    89  PRO89       0.2576
     64  O         33.6050    3.0680  -39.2910 O.2    89  PRO89      -0.2718
     65  CB        35.5630    2.4160  -36.9290 C.3    89  PRO89       0.0282
     66  CG        35.1440    2.3750  -35.5050 C.3    89  PRO89       0.0208
     67  CD        35.2380    3.7770  -35.0280 C.3    89  PRO89       0.0893
     68  N         32.5110    3.6240  -37.4050 N.am   90  GLY90      -0.1943
     69  CA        31.2220    3.2680  -37.9460 C.3    90  GLY90       0.2014
     70  C         30.9660    1.7750  -37.8430 C.2    90  GLY90       0.2638
     71  O         31.8720    0.9610  -37.7190 O.2    90  GLY90      -0.2714
     72  N         29.6940    1.4200  -37.8920 N.am   91  ILE91      -0.1977
     73  CA        29.2670    0.0200  -37.8870 C.3    91  ILE91       0.1596
     74  C         28.8430   -0.3320  -39.3090 C.2    91  ILE91       0.2287
     75  O         27.9230    0.3030  -39.8390 O.2    91  ILE91      -0.2864
     76  CB        28.1260   -0.2200  -36.8890 C.3    91  ILE91       0.0276
     77  CG1       28.6470   -0.0020  -35.4580 C.3    91  ILE91       0.0022
     78  CG2       27.5540   -1.6420  -37.0600 C.3    91  ILE91       0.0022
     79  CD1       27.5710    0.0230  -34.3800 C.3    91  ILE91       0.0001
     80  N         22.0790   -3.7500  -31.0790 N.3   100  PHE100     -0.1227
     81  CA        21.0020   -3.7640  -30.1200 C.3   100  PHE100      0.1736
     82  C         20.7730   -5.1840  -29.5860 C.2   100  PHE100      0.2595
     83  O         19.9870   -5.3290  -28.6610 O.2   100  PHE100     -0.2718
     84  CB        19.6860   -3.1530  -30.6590 C.3   100  PHE100      0.0547
     85  CG        19.8500   -1.7930  -31.2810 C.ar  100  PHE100     -0.0202
     86  CD1       20.2270   -0.7150  -30.5060 C.ar  100  PHE100     -0.0042
     87  CD2       19.6830   -1.6000  -32.6400 C.ar  100  PHE100     -0.0042
     88  CE1       20.4080    0.5370  -31.0610 C.ar  100  PHE100     -0.0003
     89  CE2       19.8540   -0.3480  -33.2030 C.ar  100  PHE100     -0.0003
     90  CZ        20.2280    0.7240  -32.4030 C.ar  100  PHE100     -0.0000
     91  N         21.4660   -6.2130  -30.0810 N.am  101  GLU101     -0.1979
     92  CA        21.4130   -7.5450  -29.4710 C.3   101  GLU101      0.1602
     93  C         22.5000   -7.6940  -28.4140 C.2   101  GLU101      0.2287
     94  O         23.6360   -7.2600  -28.6160 O.2   101  GLU101     -0.2864
     95  CB        21.5880   -8.6410  -30.5140 C.3   101  GLU101      0.0415
     96  CG        20.3930   -8.8630  -31.4040 C.3   101  GLU101      0.1163
     97  CD        19.5230  -10.0110  -30.9310 C.2   101  GLU101      0.3649
     98  OE1       20.0750  -11.0790  -30.5640 O.co2 101  GLU101     -0.2457
     99  OE2       18.2850   -9.8360  -30.9210 O.co2 101  GLU101     -0.2457
    100  N         26.7440   -8.4080  -28.8240 N.3   104  PHE104     -0.1227
    101  CA        27.3390   -7.9870  -30.0870 C.3   104  PHE104      0.1736
    102  C         28.6410   -7.2330  -29.8550 C.2   104  PHE104      0.2595
    103  O         28.7640   -6.4500  -28.9130 O.2   104  PHE104     -0.2718
    104  CB        26.3720   -7.1040  -30.8720 C.3   104  PHE104      0.0547
    105  CG        27.0210   -6.4180  -32.0470 C.ar  104  PHE104     -0.0202
    106  CD1       27.5220   -7.1640  -33.1000 C.ar  104  PHE104     -0.0042
    107  CD2       27.1480   -5.0430  -32.0880 C.ar  104  PHE104     -0.0042
    108  CE1       28.1240   -6.5540  -34.1750 C.ar  104  PHE104     -0.0003
    109  CE2       27.7400   -4.4350  -33.1590 C.ar  104  PHE104     -0.0003
    110  CZ        28.2330   -5.1920  -34.2040 C.ar  104  PHE104     -0.0000
    111  N         29.6360   -7.5260  -30.7020 N.am  105  ARG105     -0.1966
    112  CA        30.9250   -6.8440  -30.6950 C.3   105  ARG105      0.1729
    113  C         31.3510   -6.6640  -32.1450 C.2   105  ARG105      0.2616
    114  O         31.5130   -7.6560  -32.8650 O.2   105  ARG105     -0.2715
    115  CB        31.9480   -7.6770  -29.9110 C.3   105  ARG105      0.0348
    116  CG        33.0530   -6.9070  -29.2420 C.3   105  ARG105      0.0492
    117  CD        33.7910   -7.8120  -28.2740 C.3   105  ARG105      0.2205
    118  NE        34.9110   -7.1140  -27.6470 N.pl3 105  ARG105     -0.0865
    119  CZ        34.8960   -6.5280  -26.4550 C.cat 105  ARG105      0.5346
    120  NH1       33.8090   -6.5240  -25.6940 N.pl3 105  ARG105      0.1354
    121  NH2       35.9940   -5.9380  -26.0110 N.pl3 105  ARG105      0.1354
    122  N         31.5380   -5.4140  -32.5750 N.am  106  SER106     -0.1950
    123  CA        31.9550   -5.1230  -33.9430 C.3   106  SER106      0.1924
    124  C         33.4470   -5.3950  -34.1610 C.2   106  SER106      0.2314
    125  O         34.2930   -4.9430  -33.3880 O.2   106  SER106     -0.2863
    126  CB        31.6540   -3.6610  -34.2680 C.3   106  SER106      0.2116
    127  OG        32.0150   -3.3520  -35.6040 O.3   106  SER106     -0.2180
    128  N         35.4960   -2.0220  -34.6750 N.3   109  ALA109     -0.1245
    129  CA        35.7530   -1.1410  -33.5520 C.3   109  ALA109      0.1562
    130  C         36.7670   -1.7990  -32.6330 C.2   109  ALA109      0.2260
    131  O         36.7310   -3.0160  -32.4330 O.2   109  ALA109     -0.2867
    132  CB        34.4570   -0.8390  -32.7930 C.3   109  ALA109      0.0290
    133  N         37.3400   -2.9750  -26.3340 N.3   112  MET112     -0.1245
    134  CA        37.3240   -2.1910  -25.1190 C.3   112  MET112      0.1570
    135  C         36.5260   -2.9050  -24.0520 C.2   112  MET112      0.2261
    136  O         35.6300   -3.6980  -24.3650 O.2   112  MET112     -0.2867
    137  CB        36.7360   -0.7950  -25.3440 C.3   112  MET112      0.0387
    138  CG        37.5290    0.0440  -26.3390 C.3   112  MET112      0.0595
    139  SD        36.8010    1.6640  -26.5670 S.3   112  MET112     -0.1393
    140  CE        37.2570    2.4640  -25.0160 C.3   112  MET112      0.0692
    141  N         33.7540   -3.9330  -21.5400 N.3   114  GLY114     -0.1210
    142  CA        32.3200   -3.8100  -21.6940 C.3   114  GLY114      0.1956
    143  C         31.8110   -5.1200  -22.2300 C.2   114  GLY114      0.2613
    144  O         32.4270   -5.6920  -23.1280 O.2   114  GLY114     -0.2717
    145  N         30.6760   -5.6110  -21.7330 N.am  115  SER115     -0.1938
    146  CA        30.2540   -6.9490  -22.1200 C.3   115  SER115      0.2055
    147  C         29.0880   -6.9610  -23.0980 C.2   115  SER115      0.2644
    148  O         28.5220   -8.0260  -23.3530 O.2   115  SER115     -0.2714
    149  CB        29.9280   -7.7710  -20.8770 C.3   115  SER115      0.2130
    150  OG        31.1400   -8.2290  -20.3080 O.3   115  SER115     -0.2179
    151  N         28.7400   -5.8190  -23.6750 N.am  116  GLY116     -0.1939
    152  CA        27.7910   -5.8120  -24.7790 C.3   116  GLY116      0.2014
    153  C         26.3470   -5.8260  -24.3550 C.2   116  GLY116      0.2639
    154  O         25.5420   -6.5330  -24.9600 O.2   116  GLY116     -0.2714
    155  N         26.0050   -5.0740  -23.3180 N.am  117  LEU117     -0.1963
    156  CA        24.6420   -4.9850  -22.8470 C.3   117  LEU117      0.1728
    157  C         24.0120   -3.6160  -23.0410 C.2   117  LEU117      0.2617
    158  O         22.7840   -3.5280  -23.0050 O.2   117  LEU117     -0.2715
    159  CB        24.5960   -5.3470  -21.3620 C.3   117  LEU117      0.0311
    160  CG        25.1290   -6.7600  -21.0460 C.3   117  LEU117      0.0022
    161  CD1       25.4380   -6.9010  -19.5780 C.3   117  LEU117      0.0001
    162  CD2       24.1310   -7.8160  -21.4570 C.3   117  LEU117      0.0001
    163  N         24.8080   -2.5700  -23.2950 N.am  118  GLY118     -0.1940
    164  CA        24.2980   -1.2030  -23.2710 C.3   118  GLY118      0.2014
    165  C         23.2310   -0.9470  -24.3170 C.2   118  GLY118      0.2639
    166  O         22.2240   -0.2840  -24.0410 O.2   118  GLY118     -0.2714
    167  N         23.4380   -1.4220  -25.5320 N.am  119  LEU119     -0.1963
    168  CA        22.4950   -1.0990  -26.5950 C.3   119  LEU119      0.1728
    169  C         21.2530   -1.9720  -26.5360 C.2   119  LEU119      0.2616
    170  O         20.1810   -1.5300  -26.9310 O.2   119  LEU119     -0.2715
    171  CB        23.1550   -1.2250  -27.9480 C.3   119  LEU119      0.0311
    172  CG        24.0980   -0.0630  -28.2880 C.3   119  LEU119      0.0022
    173  CD1       24.8190   -0.3480  -29.5930 C.3   119  LEU119      0.0001
    174  CD2       23.4090    1.2560  -28.4040 C.3   119  LEU119      0.0001
    175  N         21.3600   -3.2020  -26.0480 N.am  120  ALA120     -0.1977
    176  CA        20.1400   -3.9650  -25.7480 C.3   120  ALA120      0.1597
    177  C         19.2330   -3.2240  -24.7630 C.2   120  ALA120      0.2287
    178  O         18.0010   -3.2470  -24.8990 O.2   120  ALA120     -0.2864
    179  CB        20.5120   -5.3440  -25.2050 C.3   120  ALA120      0.0319
    180  N         29.5300    6.4460  -36.5970 N.3   147  THR147     -0.1218
    181  CA        28.2230    5.8350  -36.3550 C.3   147  THR147      0.1862
    182  C         27.1860    6.8930  -36.0340 C.2   147  THR147      0.2287
    183  O         27.4530    7.8650  -35.3230 O.2   147  THR147     -0.2866
    184  CB        28.2860    4.8430  -35.1910 C.3   147  THR147      0.1770
    185  OG1       29.2790    3.8600  -35.4570 O.3   147  THR147     -0.2211
    186  CG2       26.9600    4.0940  -35.0010 C.3   147  THR147      0.0375
    187  N         23.3780    6.7700  -34.3390 N.3   149  ILE149     -0.1245
    188  CA        22.2470    6.0790  -33.7360 C.3   149  ILE149      0.1561
    189  C         21.0650    7.0240  -33.7980 C.2   149  ILE149      0.2260
    190  O         21.1380    8.1420  -33.2730 O.2   149  ILE149     -0.2867
    191  CB        22.5310    5.6810  -32.2930 C.3   149  ILE149      0.0252
    192  CG1       23.7670    4.7660  -32.2170 C.3   149  ILE149      0.0019
    193  CG2       21.3110    5.0220  -31.7010 C.3   149  ILE149      0.0019
    194  CD1       23.5770    3.3810  -32.7850 C.3   149  ILE149      0.0001
@<TRIPOS>BOND
     1    75    74    2
     2    74    73    1
     3    64    63    2
     4    63    62    1
     5    63    68   am
     6    69    70    1
     7    69    68    1
     8    72    73    1
     9    72    70   am
    10    73    76    1
    11    70    71    2
    12    62    65    1
    13    62    61    1
    14    78    76    1
    15    65    66    1
    16    76    77    1
    17   180   181    1
    18   181   182    1
    19   181   184    1
    20    61    67    1
    21    56    55    2
    22   182   183    2
    23   127   126    1
    24    66    67    1
    25    77    79    1
    26   185   184    1
    27   184   186    1
    28    55    54    1
    29   128   129    1
    30    59    58   ar
    31   187   188    1
    32   126   123    1
    33   110   108   ar
    34   110   109   ar
    35   108   106   ar
    36   124   123    1
    37   124   125    2
    38    53    54    1
    39   123   122    1
    40   189   188    1
    41   189   190    2
    42    54    57    1
    43   188   191    1
    44   129   132    1
    45   129   130    1
    46    58    57    1
    47    58    60   ar
    48    89    87   ar
    49    89    90   ar
    50   109   107   ar
    51   106   105   ar
    52   114   113    2
    53   194   192    1
    54    87    85   ar
    55   130   131    2
    56   122   113   am
    57    90    88   ar
    58   191   192    1
    59   191   193    1
    60   113   112    1
    61   107   105   ar
    62   105   104    1
    63    42    41    2
    64    96    97    1
    65    96    95    1
    66    85    84    1
    67    85    86   ar
    68    80    81    1
    69    88    86   ar
    70    97    99   ar
    71    97    98   ar
    72   104   101    1
    73    43    44    1
    74    43    40    1
    75    41    40    1
    76   111   112    1
    77   111   102   am
    78   112   115    1
    79    84    81    1
    80    95    92    1
    81    45    44   ar
    82    45    47   ar
    83    44    46   ar
    84    81    82    1
    85   101   102    1
    86   101   100    1
    87    91    82   am
    88    91    92    1
    89    40    39    1
    90   115   116    1
    91   102   103    2
    92    47    48   ar
    93   173   172    1
    94    82    83    2
    95    92    93    1
    96    46    48   ar
    97    46    49   ar
    98    28    27    2
    99   116   117    1
   100    29    26    1
   101    48    50   ar
   102    26    27    1
   103    26    25    1
   104    49    51   ar
   105    39    32   am
   106    94    93    2
   107    20    19    2
   108   174   172    1
   109    50    52   ar
   110   172   171    1
   111   117   118    1
   112    25    19   am
   113    51    52   ar
   114   171   168    1
   115    19    18    1
   116    21    18    1
   117    21    22    1
   118   118   119    2
   119    32    33    2
   120    32    31    1
   121    24    22   am
   122    18    17    1
   123    22    23    2
   124   170   169    2
   125   168   169    1
   126   168   167    1
   127   139   138    1
   128   139   140    1
   129   169   175   am
   130   119   121    1
   131   119   120    1
   132    30    31    1
   133   138   137    1
   134   133   134    1
   135    31    34    1
   136   175   176    1
   137    34    35    1
   138    17    11   am
   139   176   179    1
   140   176   177    1
   141   167   165   am
   142   137   134    1
   143   134   135    1
   144    12    11    2
   145   154   153    2
   146    11    10    1
   147   178   177    2
   148     4     3    2
   149   152   153    1
   150   152   151    1
   151    37    38    1
   152    37    36    1
   153    35    36    1
   154     3     2    1
   155   136   135    2
   156   153   155   am
   157   165   166    2
   158   165   164    1
   159     9    10    1
   160    10    13    1
   161   151   147   am
   162   148   147    2
   163   155   156    1
   164   163   164    1
   165   163   157   am
   166   144   143    2
   167   147   146    1
   168   157   158    2
   169   157   156    1
   170     2     5    1
   171     2     1    1
   172     5     6    1
   173   156   159    1
   174    13    14    1
   175   143   145   am
   176   143   142    1
   177    16    14   ar
   178   146   145    1
   179   146   149    1
   180    14    15   ar
   181   142   141    1
   182     6     8   am
   183     6     7    2
   184   162   160    1
   185   159   160    1
   186   160   161    1
   187   149   150    1
