@<TRIPOS>MOLECULE
tmp/6blnA00.pdb
 213 204 0 0 0
SMALL
GASTEIGER

@<TRIPOS>ATOM
      1  N         -6.7730  -50.6440  -14.8140 N.3    14  LEU14      -0.1231
      2  CA        -5.9370  -49.5590  -14.3100 C.3    14  LEU14       0.1693
      3  C         -4.6770  -50.0450  -13.6210 C.2    14  LEU14       0.2593
      4  O         -3.9410  -49.2350  -13.0460 O.2    14  LEU14      -0.2718
      5  CB        -6.7030  -48.6960  -13.3040 C.3    14  LEU14       0.0284
      6  CG        -7.8490  -47.8660  -13.8600 C.3    14  LEU14       0.0019
      7  CD1       -8.5330  -47.1210  -12.7260 C.3    14  LEU14       0.0001
      8  CD2       -7.3890  -46.8880  -14.9640 C.3    14  LEU14       0.0001
      9  N         -4.4230  -51.3200  -13.6270 N.am   15  GLY15      -0.1942
     10  CA        -3.2200  -51.8510  -13.0300 C.3    15  GLY15       0.2014
     11  C         -3.5170  -52.5910  -11.7440 C.2    15  GLY15       0.2640
     12  O         -4.6590  -52.9070  -11.4140 O.2    15  GLY15      -0.2714
     13  N         -2.4480  -52.8630  -11.0050 N.am   16  THR16      -0.1936
     14  CA        -2.5260  -53.7110   -9.8310 C.3    16  THR16       0.2028
     15  C         -1.8410  -53.0210   -8.6680 C.2    16  THR16       0.2643
     16  O         -0.7860  -52.4030   -8.8360 O.2    16  THR16      -0.2714
     17  CB        -1.8350  -55.0620  -10.0960 C.3    16  THR16       0.1808
     18  OG1       -2.5100  -55.7390  -11.1600 O.3    16  THR16      -0.2208
     19  CG2       -1.8490  -55.9520   -8.8490 C.3    16  THR16       0.0379
     20  N         -2.4510  -53.1220   -7.4950 N.am   17  GLY17      -0.1939
     21  CA        -1.8630  -52.5880   -6.2900 C.3    17  GLY17       0.2014
     22  C         -1.7760  -53.6030   -5.1730 C.2    17  GLY17       0.2639
     23  O         -1.8390  -54.8120   -5.4000 O.2    17  GLY17      -0.2714
     24  N         -1.6560  -53.0860   -3.9500 N.am   18  GLN18      -0.1963
     25  CA        -1.4720  -53.9400   -2.7840 C.3    18  GLN18       0.1733
     26  C         -2.6420  -54.8970   -2.5690 C.2    18  GLN18       0.2616
     27  O         -2.4580  -55.9440   -1.9390 O.2    18  GLN18      -0.2715
     28  CB        -1.2310  -53.0580   -1.5500 C.3    18  GLN18       0.0408
     29  CG        -0.7620  -53.7990   -0.2950 C.3    18  GLN18       0.0908
     30  CD         0.5100  -54.5960   -0.5190 C.2    18  GLN18       0.2608
     31  OE1        1.4400  -54.1320   -1.1690 O.2    18  GLN18      -0.2717
     32  NE2        0.5320  -55.8260   -0.0120 N.am   18  GLN18      -0.0878
     33  N         -3.8340  -54.5790   -3.0830 N.am   19  PHE19      -0.1960
     34  CA        -4.9920  -55.4610   -2.9600 C.3    19  PHE19       0.1771
     35  C         -5.3670  -56.1280   -4.2760 C.2    19  PHE19       0.2620
     36  O         -6.4840  -56.6510   -4.3950 O.2    19  PHE19      -0.2715
     37  CB        -6.2130  -54.6960   -2.4340 C.3    19  PHE19       0.0574
     38  CG        -6.0880  -54.1960   -1.0190 C.ar   19  PHE19      -0.0200
     39  CD1       -5.6820  -55.0350    0.0030 C.ar   19  PHE19      -0.0042
     40  CD2       -6.4080  -52.8860   -0.7150 C.ar   19  PHE19      -0.0042
     41  CE1       -5.5820  -54.5680    1.2820 C.ar   19  PHE19      -0.0003
     42  CE2       -6.3090  -52.4100    0.5670 C.ar   19  PHE19      -0.0003
     43  CZ        -5.8960  -53.2490    1.5750 C.ar   19  PHE19      -0.0000
     44  N         -4.4960  -56.0910   -5.2760 N.am   20  GLY20      -0.1954
     45  CA        -4.8080  -56.7220   -6.5370 C.3    20  GLY20       0.1869
     46  C         -5.2770  -55.7620   -7.6120 C.2    20  GLY20       0.2309
     47  O         -4.8070  -54.6260   -7.7060 O.2    20  GLY20      -0.2863
     48  N         -7.2540  -53.2640  -10.1110 N.3    22  VAL22      -0.1245
     49  CA        -8.0850  -52.0670  -10.0430 C.3    22  VAL22       0.1561
     50  C         -8.5880  -51.7890  -11.4510 C.2    22  VAL22       0.2260
     51  O         -7.8130  -51.8550  -12.4120 O.2    22  VAL22      -0.2867
     52  CB        -7.2940  -50.8590   -9.5050 C.3    22  VAL22       0.0252
     53  CG1       -8.1880  -49.6710   -9.3470 C.3    22  VAL22       0.0019
     54  CG2       -6.6120  -51.2060   -8.1820 C.3    22  VAL22       0.0019
     55  N        -13.1650  -45.6410  -10.0460 N.3    34  ALA34      -0.1245
     56  CA       -12.1930  -46.7170   -9.9330 C.3    34  ALA34       0.1562
     57  C        -12.7470  -47.7720   -8.9990 C.2    34  ALA34       0.2260
     58  O        -13.4210  -47.4480   -8.0220 O.2    34  ALA34      -0.2867
     59  CB       -10.8620  -46.1960   -9.3960 C.3    34  ALA34       0.0290
     60  N        -11.5460  -51.1310   -6.9410 N.3    36  LYS36      -0.1245
     61  CA       -10.5920  -52.1240   -6.4770 C.3    36  LYS36       0.1561
     62  C        -11.3310  -53.4370   -6.2770 C.2    36  LYS36       0.2260
     63  O        -12.3590  -53.4810   -5.5920 O.2    36  LYS36      -0.2867
     64  CB        -9.9920  -51.7170   -5.1410 C.3    36  LYS36       0.0271
     65  CG        -9.1350  -50.4960   -5.1420 C.3    36  LYS36       0.0035
     66  CD        -8.4300  -50.4400   -3.8080 C.3    36  LYS36       0.0206
     67  CE        -8.1510  -49.0370   -3.3580 C.3    36  LYS36       0.1093
     68  NZ        -7.1380  -48.4060   -4.2060 N.3    36  LYS36      -0.1314
     69  N        -14.4240  -45.7570   -5.8390 N.3    80  THR80      -0.1203
     70  CA       -13.9660  -44.4060   -5.5260 C.3    80  THR80       0.1994
     71  C        -14.0380  -43.5200   -6.7640 C.2    80  THR80       0.2618
     72  O        -14.1480  -43.9880   -7.9000 O.2    80  THR80      -0.2717
     73  CB       -12.5120  -44.4380   -5.0240 C.3    80  THR80       0.1784
     74  OG1      -11.7210  -45.1230   -5.9910 O.3    80  THR80      -0.2211
     75  CG2      -12.3930  -45.1470   -3.6550 C.3    80  THR80       0.0376
     76  N        -13.9450  -42.2160   -6.5230 N.am   81  GLU81      -0.1965
     77  CA       -13.8100  -41.1960   -7.5530 C.3    81  GLU81       0.1733
     78  C        -12.6330  -41.4690   -8.4970 C.2    81  GLU81       0.2616
     79  O        -11.4750  -41.5280   -8.0770 O.2    81  GLU81      -0.2715
     80  CB       -13.6180  -39.8750   -6.8080 C.3    81  GLU81       0.0429
     81  CG       -13.2940  -38.6320   -7.6260 C.3    81  GLU81       0.1163
     82  CD       -13.1080  -37.3780   -6.7620 C.2    81  GLU81       0.3649
     83  OE1      -12.9610  -36.2870   -7.3420 O.co2  81  GLU81      -0.2457
     84  OE2      -13.0860  -37.4670   -5.5240 O.co2  81  GLU81      -0.2457
     85  N        -12.9280  -41.5990   -9.7840 N.am   82  TYR82      -0.1960
     86  CA       -11.8950  -41.7750  -10.7960 C.3    82  TYR82       0.1771
     87  C        -11.1620  -40.4670  -11.0370 C.2    82  TYR82       0.2619
     88  O        -11.7570  -39.3850  -11.0510 O.2    82  TYR82      -0.2715
     89  CB       -12.5160  -42.2210  -12.1260 C.3    82  TYR82       0.0574
     90  CG       -11.5130  -42.4510  -13.2350 C.ar   82  TYR82      -0.0198
     91  CD1      -10.5950  -43.4890  -13.1680 C.ar   82  TYR82      -0.0009
     92  CD2      -11.4970  -41.6430  -14.3660 C.ar   82  TYR82      -0.0009
     93  CE1       -9.6900  -43.7020  -14.1740 C.ar   82  TYR82       0.0417
     94  CE2      -10.5940  -41.8610  -15.3820 C.ar   82  TYR82       0.0417
     95  CZ        -9.7070  -42.8960  -15.2840 C.ar   82  TYR82       0.1957
     96  OH        -8.7920  -43.1390  -16.2820 O.3    82  TYR82      -0.2866
     97  N         -9.8590  -40.5820  -11.2200 N.am   83  MET83      -0.1963
     98  CA        -8.9420  -39.4640  -11.3820 C.3    83  MET83       0.1736
     99  C         -8.1880  -39.7000  -12.6870 C.2    83  MET83       0.2616
    100  O         -7.3240  -40.5820  -12.7700 O.2    83  MET83      -0.2715
    101  CB        -8.0110  -39.3800  -10.1600 C.3    83  MET83       0.0427
    102  CG        -8.8260  -39.1490   -8.8780 C.3    83  MET83       0.0599
    103  SD        -9.5470  -37.5190   -8.6890 S.3    83  MET83      -0.1393
    104  CE        -8.0630  -36.5980   -8.2690 C.3    83  MET83       0.0692
    105  N         -8.5210  -38.9290  -13.7270 N.am   84  ALA84      -0.1963
    106  CA        -8.1160  -39.3140  -15.0750 C.3    84  ALA84       0.1728
    107  C         -6.6270  -39.2100  -15.3370 C.2    84  ALA84       0.2616
    108  O         -6.1380  -39.8740  -16.2680 O.2    84  ALA84      -0.2715
    109  CB        -8.8590  -38.4650  -16.1000 C.3    84  ALA84       0.0334
    110  N         -5.8890  -38.4050  -14.5670 N.am   85  ASN85      -0.1958
    111  CA        -4.4530  -38.2890  -14.7890 C.3    85  ASN85       0.1819
    112  C         -3.6330  -39.2460  -13.9300 C.2    85  ASN85       0.2621
    113  O         -2.3990  -39.1860  -13.9810 O.2    85  ASN85      -0.2715
    114  CB        -4.0000  -36.8420  -14.6330 C.3    85  ASN85       0.1195
    115  CG        -4.0980  -36.0640  -15.9030 C.2    85  ASN85       0.2630
    116  OD1       -3.5720  -36.4960  -16.9200 O.2    85  ASN85      -0.2716
    117  ND2       -4.7470  -34.9160  -15.8650 N.am   85  ASN85      -0.0877
    118  N         -4.2730  -40.1370  -13.1850 N.am   86  GLY86      -0.1954
    119  CA        -3.5930  -41.1780  -12.4590 C.3    86  GLY86       0.1869
    120  C         -2.8080  -40.6700  -11.2580 C.2    86  GLY86       0.2309
    121  O         -3.0280  -39.5650  -10.7550 O.2    86  GLY86      -0.2863
    122  N         -3.6110  -41.2680    7.7220 N.3   124  HIS124     -0.1241
    123  CA        -3.4230  -41.8540    6.4060 C.3   124  HIS124      0.1621
    124  C         -2.6080  -43.1380    6.4880 C.2   124  HIS124      0.2264
    125  O         -3.0600  -44.2030    6.0470 O.2   124  HIS124     -0.2867
    126  CB        -2.7510  -40.8700    5.4610 C.3   124  HIS124      0.0745
    127  CG        -2.7810  -41.3370    4.0490 C.ar  124  HIS124      0.0817
    128  ND1       -2.2130  -42.5210    3.6460 N.ar  124  HIS124     -0.2268
    129  CD2       -3.3470  -40.7900    2.9430 C.ar  124  HIS124      0.1154
    130  CE1       -2.4480  -42.7010    2.3570 C.ar  124  HIS124      0.1986
    131  NE2       -3.1170  -41.6560    1.9040 N.ar  124  HIS124     -0.2212
    132  N          0.0450  -44.0800    4.8340 N.3   126  ASP126     -0.1239
    133  CA         0.8840  -44.3420    3.6560 C.3   126  ASP126      0.1674
    134  C          0.7800  -43.1670    2.6980 C.2   126  ASP126      0.2266
    135  O          0.5430  -43.3160    1.5010 O.2   126  ASP126     -0.2867
    136  CB         0.5160  -45.6790    3.0150 C.3   126  ASP126      0.1410
    137  CG         1.5640  -46.1960    2.0510 C.2   126  ASP126      0.3668
    138  OD1        2.5850  -45.5460    1.8140 O.co2 126  ASP126     -0.2456
    139  OD2        1.3380  -47.3110    1.5050 O.co2 126  ASP126     -0.2456
    140  N          2.7460  -41.5950   -4.7910 N.3   130  ARG130     -0.1231
    141  CA         2.1060  -42.7360   -5.4270 C.3   130  ARG130      0.1694
    142  C          0.6840  -42.9310   -4.9410 C.2   130  ARG130      0.2592
    143  O         -0.1040  -43.5610   -5.6560 O.2   130  ARG130     -0.2718
    144  CB         2.9120  -44.0230   -5.2030 C.3   130  ARG130      0.0321
    145  CG         3.0000  -44.4280   -3.7660 C.3   130  ARG130      0.0489
    146  CD         3.7750  -45.7480   -3.5180 C.3   130  ARG130      0.2205
    147  NE         3.9180  -45.8980   -2.0740 N.pl3 130  ARG130     -0.0865
    148  CZ         4.8330  -45.2720   -1.3370 C.cat 130  ARG130      0.5346
    149  NH1        4.7890  -45.3680   -0.0190 N.pl3 130  ARG130      0.1354
    150  NH2        5.7990  -44.5530   -1.9040 N.pl3 130  ARG130      0.1354
    151  N          0.3360  -42.4340   -3.7540 N.am  131  ASN131     -0.1974
    152  CA        -1.0070  -42.5580   -3.1850 C.3   131  ASN131      0.1688
    153  C         -1.7510  -41.2290   -3.1970 C.2   131  ASN131      0.2292
    154  O         -2.6590  -40.9920   -2.3860 O.2   131  ASN131     -0.2864
    155  CB        -0.9440  -43.1680   -1.7940 C.3   131  ASN131      0.1181
    156  CG        -0.4450  -44.5790   -1.8280 C.2   131  ASN131      0.2629
    157  OD1       -0.7500  -45.3510   -2.7330 O.2   131  ASN131     -0.2716
    158  ND2        0.2900  -44.9490   -0.8210 N.am  131  ASN131     -0.0877
    159  N         -3.6860  -38.8110   -6.3140 N.3   133  LEU133     -0.1245
    160  CA        -4.2110  -38.9360   -7.6640 C.3   133  LEU133      0.1561
    161  C         -4.4890  -37.5530   -8.2230 C.2   133  LEU133      0.2260
    162  O         -4.6720  -36.5950   -7.4760 O.2   133  LEU133     -0.2867
    163  CB        -5.4850  -39.7870   -7.6970 C.3   133  LEU133      0.0270
    164  CG        -5.3270  -41.2480   -7.3260 C.3   133  LEU133      0.0019
    165  CD1       -6.6590  -41.9220   -7.1270 C.3   133  LEU133      0.0001
    166  CD2       -4.5950  -42.0090   -8.4130 C.3   133  LEU133      0.0001
    167  N         -5.4360  -40.2300   -1.6790 N.3   143  SER143     -0.1202
    168  CA        -6.0820  -41.5040   -1.9470 C.3   143  SER143      0.2020
    169  C         -5.6270  -42.5800   -0.9700 C.2   143  SER143      0.2618
    170  O         -4.5240  -42.5350   -0.4300 O.2   143  SER143     -0.2717
    171  CB        -5.6830  -41.9390   -3.3680 C.3   143  SER143      0.2103
    172  OG        -6.2580  -43.1580   -3.7910 O.3   143  SER143     -0.2182
    173  N         -6.4930  -43.5680   -0.7540 N.am  144  ASP144     -0.1973
    174  CA        -6.1450  -44.7860   -0.0270 C.3   144  ASP144      0.1709
    175  C         -5.7670  -44.5310    1.4260 C.2   144  ASP144      0.2293
    176  O         -5.0450  -45.3150    2.0380 O.2   144  ASP144     -0.2864
    177  CB        -5.0610  -45.5670   -0.7670 C.3   144  ASP144      0.1436
    178  CG        -5.4850  -45.9240   -2.1580 C.2   144  ASP144      0.3671
    179  OD1       -6.4850  -46.6480   -2.2710 O.co2 144  ASP144     -0.2456
    180  OD2       -4.8600  -45.4290   -3.1220 O.co2 144  ASP144     -0.2456
    181  N         -6.0480  -47.3230    4.4890 N.3   147  LEU147     -0.1231
    182  CA        -6.1370  -48.7060    4.0200 C.3   147  LEU147      0.1693
    183  C         -4.9440  -49.5680    4.4040 C.2   147  LEU147      0.2592
    184  O         -5.0900  -50.8000    4.4550 O.2   147  LEU147     -0.2718
    185  CB        -6.3170  -48.7580    2.5070 C.3   147  LEU147      0.0284
    186  CG        -7.6650  -48.2630    2.0360 C.3   147  LEU147      0.0019
    187  CD1       -7.7110  -48.3120    0.5190 C.3   147  LEU147      0.0001
    188  CD2       -8.8020  -49.1020    2.6120 C.3   147  LEU147      0.0001
    189  N         -3.7900  -48.9630    4.6900 N.am  148  SER148     -0.1952
    190  CA        -2.6240  -49.7460    5.0750 C.3   148  SER148      0.1924
    191  C         -2.9320  -50.6480    6.2600 C.2   148  SER148      0.2314
    192  O         -2.3540  -51.7330    6.3770 O.2   148  SER148     -0.2863
    193  CB        -1.4810  -48.8100    5.4300 C.3   148  SER148      0.2116
    194  OG        -1.8260  -48.1130    6.5980 O.3   148  SER148     -0.2180
    195  N         -3.8710  -54.3780    5.2420 N.3   151  VAL151     -0.1245
    196  CA        -3.0300  -55.1500    4.3460 C.3   151  VAL151      0.1561
    197  C         -2.5550  -56.4040    5.0610 C.2   151  VAL151      0.2260
    198  O         -2.0630  -56.3450    6.1960 O.2   151  VAL151     -0.2867
    199  CB        -1.8430  -54.3000    3.8730 C.3   151  VAL151      0.0252
    200  CG1       -0.8280  -55.1640    3.1150 C.3   151  VAL151      0.0019
    201  CG2       -2.3510  -53.1680    2.9800 C.3   151  VAL151      0.0019
    202  N          4.8100  -55.8140    3.4560 N.3   156  TYR156     -0.1241
    203  CA         4.2990  -54.4530    3.5770 C.3   156  TYR156      0.1605
    204  C          4.1000  -54.0140    5.0230 C.2   156  TYR156      0.2264
    205  O          4.3370  -52.8430    5.3480 O.2   156  TYR156     -0.2867
    206  CB         2.9650  -54.3340    2.8320 C.3   156  TYR156      0.0534
    207  CG         2.3330  -52.9580    2.9160 C.ar  156  TYR156     -0.0201
    208  CD1        1.4280  -52.6430    3.9210 C.ar  156  TYR156     -0.0009
    209  CD2        2.6430  -51.9770    1.9810 C.ar  156  TYR156     -0.0009
    210  CE1        0.8570  -51.3910    4.0030 C.ar  156  TYR156      0.0417
    211  CE2        2.0610  -50.7130    2.0460 C.ar  156  TYR156      0.0417
    212  CZ         1.1690  -50.4360    3.0580 C.ar  156  TYR156      0.1957
    213  OH         0.5620  -49.2110    3.1880 O.3   156  TYR156     -0.2866
@<TRIPOS>BOND
     1   116   115    2
     2    96    95    1
     3   108   107    2
     4   109   106    1
     5   115   117   am
     6   115   114    1
     7    94    95   ar
     8    94    92   ar
     9   107   106    1
    10   107   110   am
    11    95    93   ar
    12   106   105    1
    13     8     6    1
    14     1     2    1
    15   111   114    1
    16   111   110    1
    17   111   112    1
    18    92    90   ar
    19     2     3    1
    20     2     5    1
    21    93    91   ar
    22   113   112    2
    23   112   118   am
    24     6     5    1
    25     6     7    1
    26   105    99   am
    27     9     3   am
    28     9    10    1
    29     3     4    2
    30    90    91   ar
    31    90    89    1
    32   118   119    1
    33    10    11    1
    34   100    99    2
    35    99    98    1
    36   119   120    1
    37    51    50    2
    38    89    86    1
    39    11    12    2
    40    11    13   am
    41    50    49    1
    42    98    97    1
    43    98   101    1
    44   120   121    2
    45    97    87   am
    46    18    17    1
    47    88    87    2
    48    87    86    1
    49    13    14    1
    50    86    85    1
    51   101   102    1
    52    48    49    1
    53    17    14    1
    54    17    19    1
    55    55    56    1
    56    49    52    1
    57    56    59    1
    58    56    57    1
    59    14    15    1
    60    85    78   am
    61    52    53    1
    62    52    54    1
    63    57    58    2
    64   102   103    1
    65    16    15    2
    66   103   104    1
    67    15    20   am
    68    78    79    2
    69    78    77    1
    70   166   164    1
    71   161   160    1
    72   161   162    2
    73    72    71    2
    74    47    46    2
    75   163   160    1
    76   163   164    1
    77   160   159    1
    78    81    80    1
    79    81    82    1
    80    46    45    1
    81    77    80    1
    82    77    76    1
    83    20    21    1
    84    83    82   ar
    85   164   165    1
    86    60    61    1
    87    71    76   am
    88    71    70    1
    89    82    84   ar
    90    45    44    1
    91    61    62    1
    92    61    64    1
    93    21    22    1
    94    62    63    2
    95    74    73    1
    96    69    70    1
    97   143   142    2
    98    70    73    1
    99   141   144    1
   100   141   142    1
   101   141   140    1
   102    23    22    2
   103    44    35   am
   104   144   145    1
   105    22    24   am
   106    65    64    1
   107    65    66    1
   108    73    75    1
   109   142   151   am
   110    36    35    2
   111    35    34    1
   112    68    67    1
   113    24    25    1
   114    66    67    1
   115   172   171    1
   116   145   146    1
   117   151   152    1
   118   146   147    1
   119   171   168    1
   120   153   152    1
   121   153   154    2
   122   152   155    1
   123   180   178   ar
   124    33    34    1
   125    33    26   am
   126    34    37    1
   127    25    26    1
   128    25    28    1
   129   157   156    2
   130    26    27    2
   131    37    38    1
   132   179   178   ar
   133   178   177    1
   134   147   148    2
   135   168   167    1
   136   168   169    1
   137   150   148    1
   138   156   155    1
   139   156   158   am
   140    28    29    1
   141   148   149    1
   142    31    30    2
   143    38    40   ar
   144    38    39   ar
   145   169   173   am
   146   169   170    2
   147   177   174    1
   148   173   174    1
   149    40    42   ar
   150    30    29    1
   151    30    32   am
   152   174   175    1
   153    39    41   ar
   154   187   186    1
   155    42    43   ar
   156    41    43   ar
   157   175   176    2
   158   135   134    2
   159   139   137   ar
   160   138   137   ar
   161   131   130   ar
   162   131   129   ar
   163   209   211   ar
   164   209   207   ar
   165   186   185    1
   166   186   188    1
   167   211   212   ar
   168   137   136    1
   169   130   128   ar
   170   185   182    1
   171   134   133    1
   172   206   207    1
   173   206   203    1
   174   207   208   ar
   175   129   127   ar
   176   201   199    1
   177   136   133    1
   178   212   213    1
   179   212   210   ar
   180   200   199    1
   181   202   203    1
   182   203   204    1
   183   128   127   ar
   184   133   132    1
   185   199   196    1
   186   208   210   ar
   187   182   183    1
   188   182   181    1
   189   127   126    1
   190   196   197    1
   191   196   195    1
   192   183   184    2
   193   183   189   am
   194   189   190    1
   195   204   205    2
   196   197   198    2
   197   190   193    1
   198   190   191    1
   199   193   194    1
   200   126   123    1
   201   125   124    2
   202   191   192    2
   203   123   124    1
   204   123   122    1
