@<TRIPOS>MOLECULE
tmp/6bm6A00.pdb
 168 163 0 0 0
SMALL
GASTEIGER

@<TRIPOS>ATOM
      1  N         -8.1770   25.7270  -12.5030 N.3    46  ASP46      -0.1239
      2  CA        -9.4060   25.2750  -11.8730 C.3    46  ASP46       0.1674
      3  C         -9.1210   25.3260  -10.3820 C.2    46  ASP46       0.2266
      4  O         -8.3330   24.5180   -9.8750 O.2    46  ASP46      -0.2867
      5  CB        -9.7810   23.8660  -12.3400 C.3    46  ASP46       0.1410
      6  CG       -10.9890   23.2920  -11.6030 C.2    46  ASP46       0.3668
      7  OD1      -11.5420   23.9600  -10.7100 O.co2  46  ASP46      -0.2456
      8  OD2      -11.3930   22.1480  -11.9120 O.co2  46  ASP46      -0.2456
      9  N        -10.0720   22.0730   -7.0160 N.3    49  PRO49      -0.2116
     10  CA        -9.1790   21.0760   -6.3940 C.3    49  PRO49       0.1372
     11  C         -8.1340   21.6740   -5.4560 C.2    49  PRO49       0.2244
     12  O         -7.6280   20.9520   -4.5890 O.2    49  PRO49      -0.2868
     13  CB        -8.5320   20.3720   -7.6030 C.3    49  PRO49       0.0268
     14  CG        -9.5300   20.5510   -8.7180 C.3    49  PRO49       0.0207
     15  CD       -10.0660   21.9500   -8.4950 C.3    49  PRO49       0.0892
     16  N          0.9500   14.5290  -25.1610 N.3   161  PHE161     -0.1241
     17  CA         1.5080   15.6940  -24.4930 C.3   161  PHE161      0.1605
     18  C          2.1050   15.2930  -23.1430 C.2   161  PHE161      0.2264
     19  O          1.7660   14.2610  -22.5400 O.2   161  PHE161     -0.2867
     20  CB         0.4490   16.7860  -24.2420 C.3   161  PHE161      0.0534
     21  CG        -0.5560   16.4000  -23.1610 C.ar  161  PHE161     -0.0203
     22  CD1       -0.4220   16.8550  -21.8410 C.ar  161  PHE161     -0.0042
     23  CD2       -1.6190   15.5510  -23.4690 C.ar  161  PHE161     -0.0042
     24  CE1       -1.3420   16.4890  -20.8770 C.ar  161  PHE161     -0.0003
     25  CE2       -2.5460   15.2090  -22.5210 C.ar  161  PHE161     -0.0003
     26  CZ        -2.4010   15.6600  -21.2080 C.ar  161  PHE161     -0.0000
     27  N         -1.7860   23.1080   -9.5310 N.3   194  ARG194     -0.1245
     28  CA        -2.7160   23.9180  -10.3170 C.3   194  ARG194      0.1563
     29  C         -2.1010   24.3430  -11.6540 C.2   194  ARG194      0.2260
     30  O         -2.7830   24.3490  -12.6890 O.2   194  ARG194     -0.2867
     31  CB        -3.1510   25.1510   -9.5200 C.3   194  ARG194      0.0307
     32  CG        -4.1660   24.8920   -8.3780 C.3   194  ARG194      0.0489
     33  CD        -5.3750   24.0910   -8.8330 C.3   194  ARG194      0.2205
     34  NE        -5.1140   22.6500   -8.7300 N.pl3 194  ARG194     -0.0865
     35  CZ        -5.7320   21.6990   -9.4310 C.cat 194  ARG194      0.5346
     36  NH1       -6.7120   22.0170  -10.2730 N.pl3 194  ARG194      0.1354
     37  NH2       -5.3920   20.4110   -9.2550 N.pl3 194  ARG194      0.1354
     38  N         -1.9930   21.3410  -14.0930 N.3   197  GLU197     -0.1245
     39  CA        -3.3140   21.0340  -14.6260 C.3   197  GLU197      0.1567
     40  C         -3.8070   22.1570  -15.5360 C.2   197  GLU197      0.2260
     41  O         -4.4480   21.8940  -16.5680 O.2   197  GLU197     -0.2867
     42  CB        -4.2960   20.7410  -13.4890 C.3   197  GLU197      0.0388
     43  CG        -3.9020   19.5400  -12.6330 C.3   197  GLU197      0.1160
     44  CD        -4.1620   18.1870  -13.2890 C.2   197  GLU197      0.3649
     45  OE1       -4.7230   18.1160  -14.3970 O.co2 197  GLU197     -0.2457
     46  OE2       -3.8200   17.1820  -12.6300 O.co2 197  GLU197     -0.2457
     47  N         -4.8790   21.9080  -19.5070 N.3   201  GLU201     -0.1245
     48  CA        -6.1020   22.4780  -20.0720 C.3   201  GLU201      0.1567
     49  C         -5.7800   23.4510  -21.2120 C.2   201  GLU201      0.2260
     50  O         -6.3350   23.3530  -22.3200 O.2   201  GLU201     -0.2867
     51  CB        -6.9010   23.1770  -18.9610 C.3   201  GLU201      0.0388
     52  CG        -8.3530   23.4690  -19.3630 C.3   201  GLU201      0.1160
     53  CD        -9.1950   22.2200  -19.3890 C.2   201  GLU201      0.3649
     54  OE1       -9.3670   21.6010  -18.3140 O.co2 201  GLU201     -0.2457
     55  OE2       -9.7030   21.8690  -20.4750 O.co2 201  GLU201     -0.2457
     56  N        -13.8090   23.6080  -17.7290 N.3   226  ILE226     -0.1245
     57  CA       -13.8750   22.7270  -16.5570 C.3   226  ILE226      0.1561
     58  C        -15.0030   21.7110  -16.7330 C.2   226  ILE226      0.2260
     59  O        -14.8580   20.5400  -16.3620 O.2   226  ILE226     -0.2867
     60  CB       -14.0110   23.5510  -15.2500 C.3   226  ILE226      0.0252
     61  CG1      -12.7010   24.2810  -14.9530 C.3   226  ILE226      0.0019
     62  CG2      -14.3950   22.6390  -14.0620 C.3   226  ILE226      0.0019
     63  CD1      -12.8400   25.5400  -14.0840 C.3   226  ILE226      0.0001
     64  N        -15.8430   20.4340  -19.5150 N.3   228  GLU228     -0.1245
     65  CA       -15.4890   19.5570  -20.6350 C.3   228  GLU228      0.1567
     66  C        -16.4420   19.7430  -21.8140 C.2   228  GLU228      0.2260
     67  O        -16.7180   18.8030  -22.5680 O.2   228  GLU228     -0.2867
     68  CB       -15.4100   18.0770  -20.1990 C.3   228  GLU228      0.0388
     69  CG       -14.3230   17.8300  -19.1380 C.3   228  GLU228      0.1160
     70  CD       -14.1830   16.3830  -18.6970 C.2   228  GLU228      0.3649
     71  OE1      -15.1080   15.5540  -18.9300 O.co2 228  GLU228     -0.2457
     72  OE2      -13.1370   16.0740  -18.0960 O.co2 228  GLU228     -0.2457
     73  N        -16.1260   20.6660  -24.7550 N.3   230  TYR230     -0.1241
     74  CA       -15.4190   20.6860  -26.0270 C.3   230  TYR230      0.1605
     75  C        -15.4970   19.2970  -26.6370 C.2   230  TYR230      0.2264
     76  O        -15.8890   18.3170  -25.9860 O.2   230  TYR230     -0.2867
     77  CB       -13.9530   21.1170  -25.8690 C.3   230  TYR230      0.0534
     78  CG       -13.2640   20.5130  -24.6500 C.ar  230  TYR230     -0.0201
     79  CD1      -12.8870   19.1760  -24.6220 C.ar  230  TYR230     -0.0009
     80  CD2      -12.9780   21.2920  -23.5370 C.ar  230  TYR230     -0.0009
     81  CE1      -12.2630   18.6280  -23.5190 C.ar  230  TYR230      0.0417
     82  CE2      -12.3480   20.7470  -22.4260 C.ar  230  TYR230      0.0417
     83  CZ       -11.9930   19.4120  -22.4190 C.ar  230  TYR230      0.1957
     84  OH       -11.3660   18.8590  -21.3120 O.3   230  TYR230     -0.2866
     85  N         -8.6200   13.9400  -23.5720 N.3   234  ARG234     -0.1231
     86  CA        -7.1780   13.8920  -23.3300 C.3   234  ARG234      0.1679
     87  C         -6.8590   12.8410  -22.2610 C.2   234  ARG234      0.2434
     88  O         -6.3100   13.1440  -21.2000 O.2   234  ARG234     -0.2733
     89  CB        -6.6430   15.2930  -22.9820 C.3   234  ARG234      0.0321
     90  CG        -7.2080   16.0080  -21.7450 C.3   234  ARG234      0.0489
     91  CD        -6.2740   17.2140  -21.3630 C.3   234  ARG234      0.2205
     92  NE        -6.5610   17.8350  -20.0650 N.pl3 234  ARG234     -0.0865
     93  CZ        -7.4810   18.7800  -19.8980 C.cat 234  ARG234      0.5346
     94  NH1       -8.2340   19.1820  -20.9410 N.pl3 234  ARG234      0.1354
     95  NH2       -7.6960   19.2950  -18.6890 N.pl3 234  ARG234      0.1354
     96  N         -7.1980   11.5730  -22.5140 N.am  235  PRO235     -0.2718
     97  CA        -7.0580   10.5600  -21.4550 C.3   235  PRO235      0.1535
     98  C         -5.6010   10.3530  -21.0570 C.2   235  PRO235      0.2598
     99  O         -4.6950   10.3840  -21.8930 O.2   235  PRO235     -0.2715
    100  CB        -7.6570    9.2930  -22.0900 C.3   235  PRO235      0.0310
    101  CG        -7.3860    9.4780  -23.5930 C.3   235  PRO235      0.0237
    102  CD        -7.5820   10.9950  -23.8170 C.3   235  PRO235      0.0939
    103  N         -5.3870   10.1060  -19.7490 N.am  236  ALA236     -0.1978
    104  CA        -4.0450    9.9700  -19.1730 C.3   236  ALA236      0.1597
    105  C         -3.7860    8.5380  -18.7190 C.2   236  ALA236      0.2287
    106  O         -4.6180    7.9770  -17.9820 O.2   236  ALA236     -0.2864
    107  CB        -3.8730   10.9250  -17.9770 C.3   236  ALA236      0.0319
    108  N         -5.3180    6.4640  -15.5120 N.3   239  TYR239     -0.1228
    109  CA        -6.7130    6.7880  -15.2550 C.3   239  TYR239      0.1721
    110  C         -7.6240    5.7040  -15.8410 C.2   239  TYR239      0.2437
    111  O         -7.1750    4.8240  -16.5790 O.2   239  TYR239     -0.2733
    112  CB        -7.0070    8.1660  -15.8340 C.3   239  TYR239      0.0547
    113  CG        -6.5230    9.3110  -14.9550 C.ar  239  TYR239     -0.0200
    114  CD1       -7.4310   10.1540  -14.3310 C.ar  239  TYR239     -0.0009
    115  CD2       -5.1640    9.5590  -14.7600 C.ar  239  TYR239     -0.0009
    116  CE1       -7.0010   11.2290  -13.5650 C.ar  239  TYR239      0.0417
    117  CE2       -4.7260   10.6440  -13.9710 C.ar  239  TYR239      0.0417
    118  CZ        -5.6530   11.4610  -13.3820 C.ar  239  TYR239      0.1957
    119  OH        -5.2750   12.5470  -12.5920 O.3   239  TYR239     -0.2866
    120  N         -8.9290    5.7220  -15.5200 N.am  240  PRO240     -0.2718
    121  CA        -9.7410    4.5040  -15.7350 C.3   240  PRO240      0.1535
    122  C         -9.9330    4.0390  -17.1830 C.2   240  PRO240      0.2598
    123  O        -10.1590    2.8330  -17.3700 O.2   240  PRO240     -0.2715
    124  CB       -11.0770    4.8710  -15.0710 C.3   240  PRO240      0.0310
    125  CG       -10.6800    5.7770  -13.9380 C.3   240  PRO240      0.0237
    126  CD        -9.5880    6.6360  -14.5550 C.3   240  PRO240      0.0939
    127  N         -9.8780    4.9080  -18.2130 N.am  241  ALA241     -0.1964
    128  CA       -10.0250    4.3860  -19.5760 C.3   241  ALA241      0.1728
    129  C         -8.7350    3.7720  -20.1040 C.2   241  ALA241      0.2616
    130  O         -8.7520    3.0990  -21.1520 O.2   241  ALA241     -0.2715
    131  CB       -10.5080    5.4680  -20.5380 C.3   241  ALA241      0.0334
    132  N         -7.6150    4.0200  -19.4230 N.am  242  CYS242     -0.1968
    133  CA        -6.3080    3.5040  -19.8340 C.3   242  CYS242      0.1712
    134  C         -5.4580    3.3840  -18.5810 C.2   242  CYS242      0.2296
    135  O         -4.5630    4.1920  -18.3270 O.2   242  CYS242     -0.2864
    136  CB        -5.6460    4.4100  -20.8800 C.3   242  CYS242      0.0983
    137  SG        -5.8300    6.2040  -20.5920 S.3   242  CYS242     -0.0798
    138  N          1.4930   16.2920  -15.8100 N.3   277  VAL277     -0.1245
    139  CA         0.3680   15.6480  -16.4890 C.3   277  VAL277      0.1561
    140  C          0.8770   15.1660  -17.8400 C.2   277  VAL277      0.2260
    141  O          1.5990   15.8860  -18.5340 O.2   277  VAL277     -0.2867
    142  CB        -0.8460   16.6040  -16.6840 C.3   277  VAL277      0.0252
    143  CG1       -2.0660   15.8520  -17.2170 C.3   277  VAL277      0.0019
    144  CG2       -1.1960   17.4040  -15.3800 C.3   277  VAL277      0.0019
    145  N        -14.7850    9.5840  -21.6980 N.3   289  TYR289     -0.1227
    146  CA       -14.1860    8.8440  -20.5960 C.3   289  TYR289      0.1736
    147  C        -15.1340    7.7630  -20.0730 C.2   289  TYR289      0.2595
    148  O        -16.3590    7.8830  -20.1390 O.2   289  TYR289     -0.2718
    149  CB       -13.8010    9.8040  -19.4690 C.3   289  TYR289      0.0548
    150  CG       -12.8250   10.8890  -19.9030 C.ar  289  TYR289     -0.0200
    151  CD1      -11.5810   10.5690  -20.4350 C.ar  289  TYR289     -0.0009
    152  CD2      -13.1600   12.2360  -19.8000 C.ar  289  TYR289     -0.0009
    153  CE1      -10.6890   11.5550  -20.8440 C.ar  289  TYR289      0.0417
    154  CE2      -12.2770   13.2260  -20.1920 C.ar  289  TYR289      0.0417
    155  CZ       -11.0340   12.8810  -20.7050 C.ar  289  TYR289      0.1957
    156  OH       -10.1580   13.8750  -21.1140 O.3   289  TYR289     -0.2866
    157  N        -14.5460    6.7130  -19.5230 N.am  290  TYR290     -0.1976
    158  CA       -15.2480    5.5540  -18.9790 C.3   290  TYR290      0.1639
    159  C        -14.1940    4.7570  -18.2210 C.2   290  TYR290      0.2290
    160  O        -13.0070    5.0800  -18.2740 O.2   290  TYR290     -0.2864
    161  CB       -15.9070    4.7170  -20.0840 C.3   290  TYR290      0.0560
    162  CG       -14.8860    4.2470  -21.1000 C.ar  290  TYR290     -0.0198
    163  CD1      -14.1530    3.0720  -20.9030 C.ar  290  TYR290     -0.0009
    164  CD2      -14.6160    5.0070  -22.2420 C.ar  290  TYR290     -0.0009
    165  CE1      -13.1980    2.6710  -21.8200 C.ar  290  TYR290      0.0417
    166  CE2      -13.6700    4.6200  -23.1430 C.ar  290  TYR290      0.0417
    167  CZ       -12.9740    3.4480  -22.9520 C.ar  290  TYR290      0.1957
    168  OH       -12.0310    3.0990  -23.8830 O.3   290  TYR290     -0.2866
@<TRIPOS>BOND
     1    75    74    1
     2    75    76    2
     3    74    77    1
     4    74    73    1
     5    77    78    1
     6    16    17    1
     7    78    79   ar
     8    78    80   ar
     9    79    81   ar
    10    17    20    1
    11    17    18    1
    12    20    21    1
    13   168   167    1
    14   102   101    1
    15   102    96    1
    16   101   100    1
    17    85    86    1
    18    80    82   ar
    19    81    83   ar
    20    23    21   ar
    21    23    25   ar
    22    86    89    1
    23    86    87    1
    24    21    22   ar
    25   166   167   ar
    26   166   164   ar
    27    18    19    2
    28    89    90    1
    29   167   165   ar
    30    67    66    2
    31    25    26   ar
    32    96    87   am
    33    96    97    1
    34    82    83   ar
    35    83    84    1
    36    50    49    2
    37    87    88    2
    38   164   162   ar
    39   100    97    1
    40    99    98    2
    41    22    24   ar
    42   165   163   ar
    43    66    65    1
    44    90    91    1
    45   145   146    1
    46    97    98    1
    47    91    92    1
    48    49    48    1
    49    26    24   ar
    50   130   129    2
    51   156   155    1
    52   162   163   ar
    53   162   161    1
    54    98   103   am
    55    94    93    1
    56   136   137    1
    57   136   133    1
    58   153   155   ar
    59   153   151   ar
    60   155   154   ar
    61    65    68    1
    62    65    64    1
    63   146   147    1
    64   146   149    1
    65   131   128    1
    66    55    53   ar
    67   151   150   ar
    68    68    69    1
    69   154   152   ar
    70   148   147    2
    71   129   128    1
    72   129   132   am
    73   161   158    1
    74   147   157   am
    75    48    47    1
    76    48    51    1
    77    92    93    2
    78   150   152   ar
    79   150   149    1
    80    93    95    1
    81   133   132    1
    82   133   134    1
    83   103   104    1
    84   128   127    1
    85   157   158    1
    86    53    52    1
    87    53    54   ar
    88    52    51    1
    89   104   105    1
    90   104   107    1
    91    69    70    1
    92   158   159    1
    93    71    70   ar
    94   105   106    2
    95    70    72   ar
    96   134   135    2
    97   141   140    2
    98   160   159    2
    99   127   122   am
   100   140   139    1
   101    56    57    1
   102   123   122    2
   103   143   142    1
   104   122   121    1
   105    58    57    1
   106    58    59    2
   107   142   139    1
   108   142   144    1
   109   111   110    2
   110    41    40    2
   111    57    60    1
   112   139   138    1
   113   110   120   am
   114   110   109    1
   115   112   109    1
   116   112   113    1
   117   121   120    1
   118   121   124    1
   119    40    39    1
   120   120   126    1
   121   108   109    1
   122    60    61    1
   123    60    62    1
   124   124   125    1
   125   113   115   ar
   126   113   114   ar
   127    61    63    1
   128   115   117   ar
   129    39    38    1
   130    39    42    1
   131   126   125    1
   132    45    44   ar
   133   114   116   ar
   134   117   118   ar
   135   116   118   ar
   136    42    43    1
   137   118   119    1
   138    44    43    1
   139    44    46   ar
   140    30    29    2
   141     1     2    1
   142     5     2    1
   143     5     6    1
   144     8     6   ar
   145     2     3    1
   146    29    28    1
   147     6     7   ar
   148     3     4    2
   149    28    27    1
   150    28    31    1
   151    36    35    1
   152    31    32    1
   153    35    37    1
   154    35    34    2
   155    33    34    1
   156    33    32    1
   157    14    15    1
   158    14    13    1
   159    15     9    1
   160    13    10    1
   161     9    10    1
   162    10    11    1
   163    11    12    2
