@<TRIPOS>MOLECULE
tmp/6bm7D01.pdb
 103 105 0 0 0
SMALL
GASTEIGER

@<TRIPOS>ATOM
      1  N         26.2520   12.8210   15.7980 N.3    14  CYS14      -0.1235
      2  CA        25.2850   12.1250   16.6380 C.3    14  CYS14       0.1677
      3  C         24.8000   13.0340   17.7580 C.2    14  CYS14       0.2270
      4  O         25.0900   14.2350   17.7640 O.2    14  CYS14      -0.2867
      5  CB        25.8970   10.8440   17.2130 C.3    14  CYS14       0.0956
      6  SG        27.5700   11.0380   17.8530 S.3    14  CYS14      -0.0801
      7  N         36.6250    8.4640   25.1850 N.3   157  TYR157     -0.1227
      8  CA        35.9790    9.5210   25.9480 C.3   157  TYR157      0.1736
      9  C         35.9120    9.1650   27.4290 C.2   157  TYR157      0.2595
     10  O         36.0130    8.0010   27.8250 O.2   157  TYR157     -0.2718
     11  CB        34.5630    9.7940   25.4260 C.3   157  TYR157      0.0548
     12  CG        34.5000   10.4460   24.0610 C.ar  157  TYR157     -0.0200
     13  CD1       34.5810    9.6860   22.9040 C.ar  157  TYR157     -0.0009
     14  CD2       34.3420   11.8200   23.9290 C.ar  157  TYR157     -0.0009
     15  CE1       34.5190   10.2720   21.6560 C.ar  157  TYR157      0.0417
     16  CE2       34.2770   12.4150   22.6850 C.ar  157  TYR157      0.0417
     17  CZ        34.3650   11.6350   21.5510 C.ar  157  TYR157      0.1957
     18  OH        34.3000   12.2140   20.3020 O.3   157  TYR157     -0.2866
     19  N         35.7470   10.2000   28.2450 N.am  158  GLU158     -0.1966
     20  CA        35.4830   10.0340   29.6630 C.3   158  GLU158      0.1718
     21  C         34.0690   10.5530   29.9440 C.2   158  GLU158      0.2458
     22  O         33.7390   11.6820   29.5650 O.2   158  GLU158     -0.2730
     23  CB        36.5230   10.7780   30.5070 C.3   158  GLU158      0.0428
     24  CG        36.1920   10.8860   31.9960 C.3   158  GLU158      0.1163
     25  CD        35.2710   12.0560   32.3220 C.2   158  GLU158      0.3649
     26  OE1       35.2510   13.0420   31.5510 O.co2 158  GLU158     -0.2457
     27  OE2       34.5640   11.9850   33.3490 O.co2 158  GLU158     -0.2457
     28  N         33.2310    9.7420   30.6190 N.am  159  PRO159     -0.2716
     29  CA        33.5090    8.4260   31.2150 C.3   159  PRO159      0.1536
     30  C         33.3500    7.2190   30.2750 C.2   159  PRO159      0.2599
     31  O         33.6280    6.0920   30.6910 O.2   159  PRO159     -0.2715
     32  CB        32.4870    8.3490   32.3480 C.3   159  PRO159      0.0310
     33  CG        31.3220    9.1280   31.8440 C.3   159  PRO159      0.0237
     34  CD        31.8650   10.2020   30.9310 C.3   159  PRO159      0.0939
     35  N         32.9090    7.4390   29.0390 N.am  160  CYS160     -0.1954
     36  CA        32.7700    6.3390   28.0920 C.3   160  CYS160      0.1843
     37  C         32.4630    6.9040   26.7130 C.2   160  CYS160      0.2626
     38  O         32.0020    8.0410   26.5760 O.2   160  CYS160     -0.2714
     39  CB        31.6770    5.3580   28.5240 C.3   160  CYS160      0.0997
     40  SG        30.0210    6.0800   28.6520 S.3   160  CYS160     -0.0797
     41  N         32.7150    6.0840   25.6950 N.am  161  GLY161     -0.1940
     42  CA        32.5490    6.4910   24.3130 C.3   161  GLY161      0.2014
     43  C         33.8430    6.3650   23.5380 C.2   161  GLY161      0.2639
     44  O         34.9160    6.6530   24.0760 O.2   161  GLY161     -0.2714
     45  N         33.7670    5.9390   22.2790 N.am  162  TYR162     -0.1959
     46  CA        34.9700    5.7550   21.4740 C.3   162  TYR162      0.1771
     47  C         34.6550    6.0310   20.0130 C.2   162  TYR162      0.2620
     48  O         33.7800    5.3830   19.4310 O.2   162  TYR162     -0.2715
     49  CB        35.5310    4.3450   21.6360 C.3   162  TYR162      0.0574
     50  CG        36.7020    4.0480   20.7270 C.ar  162  TYR162     -0.0198
     51  CD1       38.0030    4.3500   21.1130 C.ar  162  TYR162     -0.0009
     52  CD2       36.5080    3.4610   19.4820 C.ar  162  TYR162     -0.0009
     53  CE1       39.0770    4.0760   20.2840 C.ar  162  TYR162      0.0417
     54  CE2       37.5740    3.1840   18.6470 C.ar  162  TYR162      0.0417
     55  CZ        38.8550    3.4920   19.0530 C.ar  162  TYR162      0.1957
     56  OH        39.9150    3.2160   18.2220 O.3   162  TYR162     -0.2866
     57  N         35.3780    6.9850   19.4340 N.am  163  SER163     -0.1950
     58  CA        35.3270    7.2850   18.0130 C.3   163  SER163      0.1924
     59  C         36.6660    6.9370   17.3770 C.2   163  SER163      0.2314
     60  O         37.7180    7.0620   18.0070 O.2   163  SER163     -0.2863
     61  CB        35.0180    8.7660   17.7710 C.3   163  SER163      0.2116
     62  OG        34.0580    9.2490   18.6910 O.3   163  SER163     -0.2180
     63  N         31.7950    4.6160   15.7120 N.3   176  HIS176     -0.1226
     64  CA        31.4100    5.4160   16.8690 C.3   176  HIS176      0.1752
     65  C         30.6410    4.5230   17.8280 C.2   176  HIS176      0.2596
     66  O         29.6420    3.9090   17.4400 O.2   176  HIS176     -0.2718
     67  CB        30.5680    6.6190   16.4410 C.3   176  HIS176      0.0759
     68  CG        31.2800    7.5410   15.5020 C.ar  176  HIS176      0.0818
     69  ND1       32.2310    8.4450   15.9260 N.ar  176  HIS176     -0.2268
     70  CD2       31.1920    7.6880   14.1600 C.ar  176  HIS176      0.1154
     71  CE1       32.6930    9.1140   14.8850 C.ar  176  HIS176      0.1986
     72  NE2       32.0790    8.6740   13.8010 N.ar  176  HIS176     -0.2212
     73  N         31.1030    4.4530   19.0750 N.am  177  ILE177     -0.1966
     74  CA        30.6350    3.4640   20.0400 C.3   177  ILE177      0.1727
     75  C         30.0160    4.1840   21.2300 C.2   177  ILE177      0.2617
     76  O         30.6380    5.0800   21.8130 O.2   177  ILE177     -0.2715
     77  CB        31.7800    2.5470   20.5070 C.3   177  ILE177      0.0290
     78  CG1       32.5490    1.9820   19.3080 C.3   177  ILE177      0.0022
     79  CG2       31.2260    1.4150   21.3570 C.3   177  ILE177      0.0023
     80  CD1       33.8260    1.2660   19.6880 C.3   177  ILE177      0.0001
     81  N         28.7950    3.7840   21.5920 N.am  178  THR178     -0.1937
     82  CA        28.1350    4.2390   22.8150 C.3   178  THR178      0.2013
     83  C         28.0270    3.0580   23.7750 C.2   178  THR178      0.2484
     84  O         27.1170    2.2250   23.6310 O.2   178  THR178     -0.2729
     85  CB        26.7490    4.8130   22.5100 C.3   178  THR178      0.1807
     86  OG1       26.8960    6.0500   21.8010 O.3   178  THR178     -0.2208
     87  CG2       25.9580    5.0510   23.8020 C.3   178  THR178      0.0379
     88  N         28.9210    2.9270   24.7620 N.am  179  PRO179     -0.2715
     89  CA        28.9570    1.6970   25.5690 C.3   179  PRO179      0.1536
     90  C         27.9190    1.6100   26.6790 C.2   179  PRO179      0.2598
     91  O         27.8200    0.5480   27.3090 O.2   179  PRO179     -0.2715
     92  CB        30.3750    1.7150   26.1650 C.3   179  PRO179      0.0310
     93  CG        31.1250    2.7520   25.3880 C.3   179  PRO179      0.0237
     94  CD        30.1060    3.7600   25.0140 C.3   179  PRO179      0.0939
     95  N         27.1600    2.6700   26.9540 N.am  180  GLU180     -0.1978
     96  CA        26.1400    2.5980   27.9940 C.3   180  GLU180      0.1602
     97  C         25.2790    1.3590   27.7960 C.2   180  GLU180      0.2287
     98  O         24.7840    1.1010   26.6970 O.2   180  GLU180     -0.2864
     99  CB        25.2640    3.8530   27.9800 C.3   180  GLU180      0.0415
    100  CG        25.9160    5.0890   28.5830 C.3   180  GLU180      0.1163
    101  CD        26.7170    5.8820   27.5710 C.2   180  GLU180      0.3649
    102  OE1       27.2710    5.2710   26.6340 O.co2 180  GLU180     -0.2457
    103  OE2       26.7840    7.1210   27.7110 O.co2 180  GLU180     -0.2457
@<TRIPOS>BOND
     1    72    70   ar
     2    72    71   ar
     3    70    68   ar
     4    71    69   ar
     5    68    69   ar
     6    68    67    1
     7    63    64    1
     8     1     2    1
     9    67    64    1
    10     2     5    1
    11     2     3    1
    12    64    65    1
    13     5     6    1
    14    59    60    2
    15    59    58    1
    16    66    65    2
    17     3     4    2
    18    61    58    1
    19    61    62    1
    20    65    73   am
    21    58    57    1
    22    56    55    1
    23    54    55   ar
    24    54    52   ar
    25    55    53   ar
    26    73    74    1
    27    78    80    1
    28    78    77    1
    29    48    47    2
    30    57    47   am
    31    52    50   ar
    32    47    46    1
    33    74    77    1
    34    74    75    1
    35    53    51   ar
    36    18    17    1
    37    77    79    1
    38    50    51   ar
    39    50    49    1
    40    75    81   am
    41    75    76    2
    42    46    49    1
    43    46    45    1
    44    17    15   ar
    45    17    16   ar
    46    81    82    1
    47    15    13   ar
    48    86    85    1
    49    45    43   am
    50    85    82    1
    51    85    87    1
    52    16    14   ar
    53    82    83    1
    54    13    12   ar
    55    43    44    2
    56    43    42    1
    57    84    83    2
    58    83    88   am
    59    14    12   ar
    60    12    11    1
    61    42    41    1
    62    88    94    1
    63    88    89    1
    64    94    93    1
    65     7     8    1
    66    93    92    1
    67    11     8    1
    68    89    92    1
    69    89    90    1
    70    41    37   am
    71     8     9    1
    72    38    37    2
    73   102   101   ar
    74    90    95   am
    75    90    91    2
    76    98    97    2
    77    37    36    1
    78    95    96    1
    79     9    10    2
    80     9    19   am
    81   101   103   ar
    82   101   100    1
    83    97    96    1
    84    99    96    1
    85    99   100    1
    86    36    39    1
    87    36    35    1
    88    19    20    1
    89    39    40    1
    90    35    30   am
    91    22    21    2
    92    20    21    1
    93    20    23    1
    94    21    28   am
    95    30    31    2
    96    30    29    1
    97    23    24    1
    98    28    34    1
    99    28    29    1
   100    34    33    1
   101    29    32    1
   102    26    25   ar
   103    33    32    1
   104    24    25    1
   105    25    27   ar
