@<TRIPOS>MOLECULE
tmp/6bm7E00.pdb
 90 87 0 0 0
SMALL
GASTEIGER

@<TRIPOS>ATOM
      1  N         -6.2370  -18.1320   10.1530 N.3    35  ALA35      -0.1245
      2  CA        -5.3970  -19.2840   10.4600 C.3    35  ALA35       0.1562
      3  C         -5.9390  -20.5560    9.8250 C.2    35  ALA35       0.2260
      4  O         -5.1740  -21.4850    9.5430 O.2    35  ALA35      -0.2867
      5  CB        -5.2880  -19.4540   11.9740 C.3    35  ALA35       0.0290
      6  N         -9.7300  -17.2540   13.9560 N.3   112  ILE112     -0.1231
      7  CA        -8.4390  -16.6610   14.2740 C.3   112  ILE112      0.1692
      8  C         -7.9400  -15.8890   13.0620 C.2   112  ILE112      0.2592
      9  O         -7.8720  -16.4310   11.9520 O.2   112  ILE112     -0.2718
     10  CB        -7.4300  -17.7400   14.7000 C.3   112  ILE112      0.0266
     11  CG1       -7.7560  -18.2200   16.1190 C.3   112  ILE112      0.0019
     12  CG2       -5.9990  -17.2050   14.6150 C.3   112  ILE112      0.0020
     13  CD1       -6.8790  -19.3620   16.6100 C.3   112  ILE112      0.0001
     14  N         -7.5940  -14.6250   13.2720 N.am  113  VAL113     -0.1966
     15  CA        -6.9230  -13.8190   12.2600 C.3   113  VAL113      0.1727
     16  C         -5.4240  -13.9250   12.5020 C.2   113  VAL113      0.2616
     17  O         -4.9260  -13.4990   13.5490 O.2   113  VAL113     -0.2715
     18  CB        -7.3880  -12.3560   12.3170 C.3   113  VAL113      0.0290
     19  CG1       -6.4970  -11.4660   11.4470 C.3   113  VAL113      0.0023
     20  CG2       -8.8410  -12.2480   11.8870 C.3   113  VAL113      0.0023
     21  N         -4.7010  -14.4830   11.5340 N.am  114  ASP114     -0.1971
     22  CA        -3.2570  -14.6320   11.6350 C.3   114  ASP114      0.1709
     23  C         -2.5010  -13.7350   10.6640 C.2   114  ASP114      0.2293
     24  O         -1.2680  -13.7930   10.6200 O.2   114  ASP114     -0.2864
     25  CB        -2.8630  -16.0970   11.4060 C.3   114  ASP114      0.1436
     26  CG        -3.1970  -16.5830   10.0080 C.2   114  ASP114      0.3671
     27  OD1       -3.9630  -15.8970    9.3010 O.co2 114  ASP114     -0.2456
     28  OD2       -2.6930  -17.6560    9.6170 O.co2 114  ASP114     -0.2456
     29  N         -3.4290   -4.6900   16.5460 N.3   148  PHE148     -0.1241
     30  CA        -2.2810   -5.5520   16.2660 C.3   148  PHE148      0.1605
     31  C         -1.0190   -4.8920   16.8090 C.2   148  PHE148      0.2264
     32  O         -0.2600   -4.2690   16.0520 O.2   148  PHE148     -0.2867
     33  CB        -2.1290   -5.8230   14.7700 C.3   148  PHE148      0.0534
     34  CG        -3.4020   -6.2280   14.0850 C.ar  148  PHE148     -0.0203
     35  CD1       -3.9950   -7.4500   14.3510 C.ar  148  PHE148     -0.0042
     36  CD2       -3.9930   -5.3910   13.1530 C.ar  148  PHE148     -0.0042
     37  CE1       -5.1620   -7.8230   13.7130 C.ar  148  PHE148     -0.0003
     38  CE2       -5.1570   -5.7580   12.5120 C.ar  148  PHE148     -0.0003
     39  CZ        -5.7420   -6.9780   12.7920 C.ar  148  PHE148     -0.0000
     40  N          0.1690   -6.7820    9.9220 N.3   169  TYR169     -0.1241
     41  CA         0.2780   -7.6850   11.0600 C.3   169  TYR169      0.1605
     42  C          0.4900   -9.0990   10.5390 C.2   169  TYR169      0.2264
     43  O         -0.2720   -9.5720    9.6900 O.2   169  TYR169     -0.2867
     44  CB        -0.9760   -7.6340   11.9390 C.3   169  TYR169      0.0534
     45  CG        -1.1310   -8.8410   12.8460 C.ar  169  TYR169     -0.0201
     46  CD1       -0.3310   -9.0000   13.9700 C.ar  169  TYR169     -0.0009
     47  CD2       -2.0750   -9.8240   12.5740 C.ar  169  TYR169     -0.0009
     48  CE1       -0.4680  -10.1030   14.7980 C.ar  169  TYR169      0.0417
     49  CE2       -2.2190  -10.9310   13.3950 C.ar  169  TYR169      0.0417
     50  CZ        -1.4130  -11.0650   14.5050 C.ar  169  TYR169      0.1957
     51  OH        -1.5550  -12.1640   15.3250 O.3   169  TYR169     -0.2866
     52  N          0.9330  -12.7700   12.0780 N.3   171  GLY171     -0.1210
     53  CA         0.9500  -13.7750   13.1240 C.3   171  GLY171      0.1956
     54  C          0.8400  -15.1850   12.5760 C.2   171  GLY171      0.2612
     55  O          0.4090  -16.1020   13.2790 O.2   171  GLY171     -0.2717
     56  N          1.2350  -15.3690   11.3150 N.am  172  ILE172     -0.1965
     57  CA         1.1070  -16.6670   10.6600 C.3   172  ILE172      0.1727
     58  C          1.9800  -17.6850   11.3790 C.2   172  ILE172      0.2616
     59  O          3.1900  -17.4840   11.5430 O.2   172  ILE172     -0.2715
     60  CB         1.4760  -16.5510    9.1760 C.3   172  ILE172      0.0290
     61  CG1        0.3090  -15.9350    8.3960 C.3   172  ILE172      0.0022
     62  CG2        1.8540  -17.9090    8.5850 C.3   172  ILE172      0.0023
     63  CD1        0.7080  -15.3650    7.0560 C.3   172  ILE172      0.0001
     64  N          1.3690  -18.7890   11.8050 N.am  173  ASP173     -0.1957
     65  CA         2.1010  -19.8780   12.4470 C.3   173  ASP173      0.1840
     66  C          2.8940  -20.6470   11.3990 C.2   173  ASP173      0.2622
     67  O          2.3140  -21.3130   10.5350 O.2   173  ASP173     -0.2715
     68  CB         1.1250  -20.7980   13.1810 C.3   173  ASP173      0.1450
     69  CG         1.8250  -21.9190   13.9330 C.2   173  ASP173      0.3671
     70  OD1        2.8710  -21.6550   14.5640 O.co2 173  ASP173     -0.2456
     71  OD2        1.3290  -23.0660   13.8940 O.co2 173  ASP173     -0.2456
     72  N          4.2230  -20.5630   11.4820 N.am  174  ARG174     -0.1963
     73  CA         5.1080  -21.1810   10.5010 C.3   174  ARG174      0.1729
     74  C          5.9090  -22.3430   11.0780 C.2   174  ARG174      0.2616
     75  O          6.9650  -22.6850   10.5360 O.2   174  ARG174     -0.2715
     76  CB         6.0570  -20.1380    9.9140 C.3   174  ARG174      0.0348
     77  CG         5.3810  -19.1140    9.0280 C.3   174  ARG174      0.0492
     78  CD         6.3900  -18.1580    8.4170 C.3   174  ARG174      0.2205
     79  NE         5.7480  -17.1600    7.5690 N.pl3 174  ARG174     -0.0865
     80  CZ         5.1640  -16.0550    8.0220 C.cat 174  ARG174      0.5346
     81  NH1        5.1330  -15.7960    9.3230 N.pl3 174  ARG174      0.1354
     82  NH2        4.6040  -15.2070    7.1710 N.pl3 174  ARG174      0.1354
     83  N          5.4400  -22.9540   12.1600 N.am  175  ASP175     -0.1971
     84  CA         6.1100  -24.1410   12.6640 C.3   175  ASP175      0.1709
     85  C          6.0840  -25.2310   11.5890 C.2   175  ASP175      0.2293
     86  O          5.1050  -25.3400   10.8430 O.2   175  ASP175     -0.2864
     87  CB         5.4450  -24.6500   13.9450 C.3   175  ASP175      0.1436
     88  CG         5.6890  -23.7350   15.1330 C.2   175  ASP175      0.3671
     89  OD1        6.6030  -22.8860   15.0520 O.co2 175  ASP175     -0.2456
     90  OD2        4.9760  -23.8660   16.1510 O.co2 175  ASP175     -0.2456
@<TRIPOS>BOND
     1    63    61    1
     2    82    80    1
     3    79    80    2
     4    79    78    1
     5    80    81    1
     6    61    60    1
     7    78    77    1
     8    62    60    1
     9    77    76    1
    10    60    57    1
    11    27    26   ar
    12     4     3    2
    13    28    26   ar
    14    43    42    2
    15     3     2    1
    16    76    73    1
    17    40    41    1
    18    26    25    1
    19     1     2    1
    20     2     5    1
    21    73    74    1
    22    73    72    1
    23    67    66    2
    24    75    74    2
    25    42    41    1
    26    24    23    2
    27    57    56    1
    28    57    58    1
    29    23    22    1
    30    86    85    2
    31    41    44    1
    32    74    83   am
    33    56    54   am
    34    58    59    2
    35    58    64   am
    36    66    72   am
    37    66    65    1
    38    25    22    1
    39    19    18    1
    40    21    22    1
    41    21    16   am
    42    85    84    1
    43    64    65    1
    44    20    18    1
    45    44    45    1
    46     9     8    2
    47    52    53    1
    48    83    84    1
    49    15    18    1
    50    15    16    1
    51    15    14    1
    52    65    68    1
    53    16    17    2
    54    38    39   ar
    55    38    36   ar
    56    47    45   ar
    57    47    49   ar
    58    54    53    1
    59    54    55    2
    60    84    87    1
    61    39    37   ar
    62    45    46   ar
    63     8    14   am
    64     8     7    1
    65    36    34   ar
    66    68    69    1
    67    49    50   ar
    68    37    35   ar
    69    71    69   ar
    70    69    70   ar
    71    87    88    1
    72     6     7    1
    73    46    48   ar
    74    34    35   ar
    75    34    33    1
    76     7    10    1
    77    50    48   ar
    78    50    51    1
    79    12    10    1
    80    10    11    1
    81    33    30    1
    82    89    88   ar
    83    88    90   ar
    84    32    31    2
    85    11    13    1
    86    30    29    1
    87    30    31    1
