@<TRIPOS>MOLECULE
tmp/6bm7F00.pdb
 109 105 0 0 0
SMALL
GASTEIGER

@<TRIPOS>ATOM
      1  N        -16.6250   45.0130   30.3610 N.3   103  LEU103     -0.1245
      2  CA       -15.6400   45.9970   29.9260 C.3   103  LEU103      0.1561
      3  C        -16.0680   46.6760   28.6320 C.2   103  LEU103      0.2260
      4  O        -15.9250   47.8960   28.4890 O.2   103  LEU103     -0.2867
      5  CB       -14.2770   45.3300   29.7540 C.3   103  LEU103      0.0270
      6  CG       -13.6730   44.7690   31.0390 C.3   103  LEU103      0.0019
      7  CD1      -12.5330   43.8260   30.7180 C.3   103  LEU103      0.0001
      8  CD2      -13.1990   45.8970   31.9330 C.3   103  LEU103      0.0001
      9  N        -16.6460   50.6300   27.6570 N.3   107  ARG107     -0.1245
     10  CA       -16.0130   51.3210   26.5380 C.3   107  ARG107      0.1563
     11  C        -17.0430   52.0160   25.6610 C.2   107  ARG107      0.2260
     12  O        -16.8410   53.1650   25.2510 O.2   107  ARG107     -0.2867
     13  CB       -15.1900   50.3370   25.7090 C.3   107  ARG107      0.0307
     14  CG       -13.9500   49.8450   26.4240 C.3   107  ARG107      0.0489
     15  CD       -13.2080   48.8040   25.6170 C.3   107  ARG107      0.2205
     16  NE       -12.0520   48.2980   26.3480 N.pl3 107  ARG107     -0.0865
     17  CZ       -11.3520   47.2230   25.9990 C.cat 107  ARG107      0.5346
     18  NH1      -10.3140   46.8460   26.7360 N.pl3 107  ARG107      0.1354
     19  NH2      -11.6890   46.5220   24.9210 N.pl3 107  ARG107      0.1354
     20  N        -13.7980   54.7770   31.4670 N.3   112  ILE112     -0.1231
     21  CA       -12.4790   54.1760   31.6130 C.3   112  ILE112      0.1692
     22  C        -12.4330   53.4310   32.9380 C.2   112  ILE112      0.2592
     23  O        -12.5960   54.0330   34.0060 O.2   112  ILE112     -0.2718
     24  CB       -11.3630   55.2310   31.5340 C.3   112  ILE112      0.0266
     25  CG1      -11.3860   55.9650   30.1820 C.3   112  ILE112      0.0019
     26  CG2       -9.9960   54.5920   31.7760 C.3   112  ILE112      0.0020
     27  CD1      -11.6320   55.0730   28.9610 C.3   112  ILE112      0.0001
     28  N        -12.2080   52.1270   32.8660 N.am  113  VAL113     -0.1966
     29  CA       -11.9730   51.3120   34.0520 C.3   113  VAL113      0.1727
     30  C        -10.4910   51.4000   34.3980 C.2   113  VAL113      0.2616
     31  O         -9.6390   50.9570   33.6230 O.2   113  VAL113     -0.2715
     32  CB       -12.3980   49.8570   33.8100 C.3   113  VAL113      0.0290
     33  CG1      -11.9730   48.9650   34.9670 C.3   113  VAL113      0.0023
     34  CG2      -13.8990   49.7660   33.5850 C.3   113  VAL113      0.0023
     35  N        -10.1760   51.9650   35.5650 N.am  114  ASP114     -0.1971
     36  CA        -8.7910   52.0990   36.0000 C.3   114  ASP114      0.1709
     37  C         -8.4420   51.1990   37.1780 C.2   114  ASP114      0.2293
     38  O         -7.2730   51.1480   37.5720 O.2   114  ASP114     -0.2864
     39  CB        -8.4780   53.5610   36.3510 C.3   114  ASP114      0.1436
     40  CG        -9.2280   54.0520   37.5770 C.2   114  ASP114      0.3671
     41  OD1      -10.0320   53.2840   38.1460 O.co2 114  ASP114     -0.2456
     42  OD2       -9.0260   55.2230   37.9630 O.co2 114  ASP114     -0.2456
     43  N         -7.8810   40.3890   29.7360 N.3   147  ALA147     -0.1231
     44  CA        -8.4270   41.7400   29.7960 C.3   147  ALA147      0.1694
     45  C         -7.4980   42.7060   30.5190 C.2   147  ALA147      0.2592
     46  O         -7.4740   43.8970   30.1890 O.2   147  ALA147     -0.2718
     47  CB        -9.7900   41.7250   30.4920 C.3   147  ALA147      0.0304
     48  N         -6.7410   42.2230   31.5040 N.am  148  PHE148     -0.1976
     49  CA        -5.8380   43.0570   32.2970 C.3   148  PHE148      0.1639
     50  C         -4.4580   42.4170   32.3170 C.2   148  PHE148      0.2290
     51  O         -4.0230   41.8760   33.3420 O.2   148  PHE148     -0.2864
     52  CB        -6.3600   43.2420   33.7230 C.3   148  PHE148      0.0560
     53  CG        -7.7680   43.7560   33.8020 C.ar  148  PHE148     -0.0200
     54  CD1       -8.0510   45.0860   33.5520 C.ar  148  PHE148     -0.0042
     55  CD2       -8.8070   42.9090   34.1520 C.ar  148  PHE148     -0.0042
     56  CE1       -9.3440   45.5600   33.6340 C.ar  148  PHE148     -0.0003
     57  CE2      -10.1030   43.3770   34.2360 C.ar  148  PHE148     -0.0003
     58  CZ       -10.3720   44.7050   33.9780 C.ar  148  PHE148     -0.0000
     59  N         -6.3010   44.2600   39.0160 N.3   169  TYR169     -0.1241
     60  CA        -5.7170   45.2000   38.0670 C.3   169  TYR169      0.1605
     61  C         -5.7090   46.5870   38.6950 C.2   169  TYR169      0.2264
     62  O         -6.7370   47.0480   39.2040 O.2   169  TYR169     -0.2867
     63  CB        -6.4960   45.2300   36.7490 C.3   169  TYR169      0.0534
     64  CG        -6.1710   46.4380   35.8900 C.ar  169  TYR169     -0.0201
     65  CD1       -4.9610   46.5310   35.2140 C.ar  169  TYR169     -0.0009
     66  CD2       -7.0710   47.4870   35.7630 C.ar  169  TYR169     -0.0009
     67  CE1       -4.6560   47.6320   34.4360 C.ar  169  TYR169      0.0417
     68  CE2       -6.7750   48.5960   34.9860 C.ar  169  TYR169      0.0417
     69  CZ        -5.5670   48.6620   34.3240 C.ar  169  TYR169      0.1957
     70  OH        -5.2690   49.7600   33.5460 O.3   169  TYR169     -0.2866
     71  N         -4.7080   50.2950   37.5060 N.3   171  GLY171     -0.1210
     72  CA        -4.2890   51.2450   36.4950 C.3   171  GLY171      0.1956
     73  C         -4.5790   52.6760   36.8940 C.2   171  GLY171      0.2612
     74  O         -4.7710   53.5400   36.0340 O.2   171  GLY171     -0.2717
     75  N         -4.6060   52.9370   38.2010 N.am  172  ILE172     -0.1965
     76  CA        -4.9460   54.2640   38.6980 C.3   172  ILE172      0.1727
     77  C         -3.8470   55.2510   38.3350 C.2   172  ILE172      0.2616
     78  O         -2.6510   54.9620   38.4850 O.2   172  ILE172     -0.2715
     79  CB        -5.1750   54.2160   40.2200 C.3   172  ILE172      0.0290
     80  CG1       -6.4890   53.4920   40.5280 C.3   172  ILE172      0.0022
     81  CG2       -5.1900   55.6230   40.8130 C.3   172  ILE172      0.0023
     82  CD1       -6.7070   53.1960   42.0040 C.3   172  ILE172      0.0001
     83  N         -4.2490   56.4280   37.8600 N.am  173  ASP173     -0.1957
     84  CA        -3.3070   57.5000   37.5440 C.3   173  ASP173      0.1840
     85  C         -3.0080   58.2970   38.8010 C.2   173  ASP173      0.2622
     86  O         -3.8960   58.9480   39.3620 O.2   173  ASP173     -0.2715
     87  CB        -3.8750   58.3980   36.4450 C.3   173  ASP173      0.1450
     88  CG        -2.8950   59.4700   35.9950 C.2   173  ASP173      0.3671
     89  OD1       -1.6700   59.2300   36.0450 O.co2 173  ASP173     -0.2456
     90  OD2       -3.3540   60.5530   35.5820 O.co2 173  ASP173     -0.2456
     91  N         -1.7460   58.2470   39.2340 N.am  174  ARG174     -0.1963
     92  CA        -1.3230   58.8550   40.4870 C.3   174  ARG174      0.1729
     93  C         -0.3660   60.0210   40.2790 C.2   174  ARG174      0.2616
     94  O          0.3420   60.4060   41.2160 O.2   174  ARG174     -0.2715
     95  CB        -0.6820   57.7990   41.3880 C.3   174  ARG174      0.0348
     96  CG        -1.6450   56.7180   41.8330 C.3   174  ARG174      0.0492
     97  CD        -1.0030   55.7440   42.8040 C.3   174  ARG174      0.2205
     98  NE        -1.9830   54.7960   43.3320 N.pl3 174  ARG174     -0.0865
     99  CZ        -2.2290   53.5930   42.8200 C.cat 174  ARG174      0.5346
    100  NH1       -1.5640   53.1560   41.7570 N.pl3 174  ARG174      0.1354
    101  NH2       -3.1480   52.8170   43.3790 N.pl3 174  ARG174      0.1354
    102  N         -0.3220   60.5920   39.0820 N.am  175  ASP175     -0.1971
    103  CA         0.4630   61.7990   38.8820 C.3   175  ASP175      0.1709
    104  C          0.0260   62.8540   39.8980 C.2   175  ASP175      0.2293
    105  O         -1.1750   62.9920   40.1640 O.2   175  ASP175     -0.2864
    106  CB         0.2900   62.3310   37.4580 C.3   175  ASP175      0.1436
    107  CG         0.9600   61.4520   36.4180 C.2   175  ASP175      0.3671
    108  OD1        2.0720   60.9470   36.6850 O.co2 175  ASP175     -0.2456
    109  OD2        0.3760   61.2700   35.3300 O.co2 175  ASP175     -0.2456
@<TRIPOS>BOND
     1    19    17    1
     2    12    11    2
     3    15    16    1
     4    15    14    1
     5    11    10    1
     6    13    14    1
     7    13    10    1
     8    17    16    2
     9    17    18    1
    10    10     9    1
    11     4     3    2
    12     3     2    1
    13    27    25    1
    14    43    44    1
    15     5     2    1
    16     5     6    1
    17    44    47    1
    18    44    45    1
    19     2     1    1
    20    25    24    1
    21    46    45    2
    22    45    48   am
    23     7     6    1
    24     6     8    1
    25    20    21    1
    26    48    49    1
    27    24    21    1
    28    24    26    1
    29    21    22    1
    30    49    50    1
    31    49    52    1
    32    50    51    2
    33    28    22   am
    34    28    29    1
    35    22    23    2
    36    70    69    1
    37    54    56   ar
    38    54    53   ar
    39    34    32    1
    40    31    30    2
    41    56    58   ar
    42    52    53    1
    43    53    55   ar
    44    32    29    1
    45    32    33    1
    46    58    57   ar
    47    29    30    1
    48    55    57   ar
    49    69    67   ar
    50    69    68   ar
    51    30    35   am
    52    67    65   ar
    53    68    66   ar
    54    65    64   ar
    55   109   107   ar
    56    35    36    1
    57    90    88   ar
    58    66    64   ar
    59    64    63    1
    60    88    89   ar
    61    88    87    1
    62    36    39    1
    63    36    37    1
    64    74    73    2
    65    39    40    1
    66   107   108   ar
    67   107   106    1
    68    87    84    1
    69    72    73    1
    70    72    71    1
    71    63    60    1
    72    73    75   am
    73    37    38    2
    74   106   103    1
    75    84    83    1
    76    84    85    1
    77    40    42   ar
    78    40    41   ar
    79    83    77   am
    80    60    61    1
    81    60    59    1
    82    75    76    1
    83    77    78    2
    84    77    76    1
    85    61    62    2
    86    76    79    1
    87    85    91   am
    88    85    86    2
    89   103   102    1
    90   103   104    1
    91   102    93   am
    92    91    92    1
    93   104   105    2
    94    79    80    1
    95    79    81    1
    96    93    92    1
    97    93    94    2
    98    92    95    1
    99    80    82    1
   100    95    96    1
   101   100    99    1
   102    96    97    1
   103    97    98    1
   104    99    98    2
   105    99   101    1
