@<TRIPOS>MOLECULE
tmp/6bmbA00.pdb
 125 115 0 0 0
SMALL
GASTEIGER

@<TRIPOS>ATOM
      1  N        -24.6450   11.9130  -23.1290 N.3    35  GLU35      -0.1245
      2  CA       -24.1230   12.6960  -24.2410 C.3    35  GLU35       0.1567
      3  C        -22.6680   12.3040  -24.4430 C.2    35  GLU35       0.2260
      4  O        -21.8160   12.5890  -23.5920 O.2    35  GLU35      -0.2867
      5  CB       -24.2360   14.1950  -24.0060 C.3    35  GLU35       0.0388
      6  CG       -23.6480   14.9710  -25.1730 C.3    35  GLU35       0.1160
      7  CD       -23.4320   16.4400  -24.8690 C.2    35  GLU35       0.3649
      8  OE1      -23.5230   17.2590  -25.8110 O.co2  35  GLU35      -0.2457
      9  OE2      -23.1820   16.7660  -23.6910 O.co2  35  GLU35      -0.2457
     10  N        -19.3530   12.9970  -25.7220 N.3    37  ARG37      -0.1245
     11  CA       -18.6440   14.1790  -26.2200 C.3    37  ARG37       0.1563
     12  C        -17.4400   13.7010  -27.0260 C.2    37  ARG37       0.2260
     13  O        -16.3340   13.5340  -26.5130 O.2    37  ARG37      -0.2867
     14  CB       -18.2570   15.1140  -25.0790 C.3    37  ARG37       0.0307
     15  CG       -19.4450   15.8910  -24.5270 C.3    37  ARG37       0.0489
     16  CD       -19.9130   16.9490  -25.5150 C.3    37  ARG37       0.2205
     17  NE       -18.7880   17.7860  -25.9370 N.pl3  37  ARG37      -0.0865
     18  CZ       -18.4430   18.9250  -25.3410 C.cat  37  ARG37       0.5346
     19  NH1      -19.1610   19.3870  -24.3180 N.pl3  37  ARG37       0.1354
     20  NH2      -17.3870   19.6090  -25.7820 N.pl3  37  ARG37       0.1354
     21  N        -18.2490   18.3820  -30.7830 N.3    66  ARG66      -0.1245
     22  CA       -18.2960   19.8390  -30.6660 C.3    66  ARG66       0.1563
     23  C        -17.0520   20.5150  -31.2380 C.2    66  ARG66       0.2260
     24  O        -15.9380   20.2350  -30.7800 O.2    66  ARG66      -0.2867
     25  CB       -18.4830   20.2360  -29.2080 C.3    66  ARG66       0.0307
     26  CG       -19.0330   21.6420  -29.0360 C.3    66  ARG66       0.0489
     27  CD       -20.4180   21.7880  -29.6320 C.3    66  ARG66       0.2205
     28  NE       -21.4580   21.3480  -28.7000 N.pl3  66  ARG66      -0.0865
     29  CZ       -22.6820   20.9760  -29.0590 C.cat  66  ARG66       0.5346
     30  NH1      -23.0250   20.9510  -30.3380 N.pl3  66  ARG66       0.1354
     31  NH2      -23.5600   20.6200  -28.1330 N.pl3  66  ARG66       0.1354
     32  N        -25.3680   27.9280  -28.5810 N.3   125  HIS125     -0.1241
     33  CA       -24.7560   28.2200  -27.2950 C.3   125  HIS125      0.1621
     34  C        -24.3750   29.6860  -27.2350 C.2   125  HIS125      0.2264
     35  O        -23.6660   30.1800  -28.1190 O.2   125  HIS125     -0.2867
     36  CB       -23.5320   27.3600  -27.0620 C.3   125  HIS125      0.0745
     37  CG       -23.8260   25.8950  -27.0460 C.ar  125  HIS125      0.0817
     38  ND1      -24.0510   25.1680  -28.1950 N.ar  125  HIS125     -0.2268
     39  CD2      -23.9290   25.0210  -26.0200 C.ar  125  HIS125      0.1154
     40  CE1      -24.2760   23.9040  -27.8760 C.ar  125  HIS125      0.1986
     41  NE2      -24.2120   23.7900  -26.5610 N.ar  125  HIS125     -0.2212
     42  N        -22.4920   32.2310  -24.8050 N.3   127  TYR127     -0.1241
     43  CA       -21.6020   32.3250  -23.6570 C.3   127  TYR127      0.1605
     44  C        -21.5650   33.7290  -23.0430 C.2   127  TYR127      0.2264
     45  O        -20.8880   33.9370  -22.0280 O.2   127  TYR127     -0.2867
     46  CB       -20.2030   31.8500  -24.0620 C.3   127  TYR127      0.0534
     47  CG       -20.1980   30.3970  -24.5130 C.ar  127  TYR127     -0.0201
     48  CD1      -20.3180   29.3570  -23.5930 C.ar  127  TYR127     -0.0009
     49  CD2      -20.1120   30.0670  -25.8580 C.ar  127  TYR127     -0.0009
     50  CE1      -20.3300   28.0330  -24.0100 C.ar  127  TYR127      0.0417
     51  CE2      -20.1170   28.7560  -26.2790 C.ar  127  TYR127      0.0417
     52  CZ       -20.2350   27.7460  -25.3580 C.ar  127  TYR127      0.1957
     53  OH       -20.2490   26.4450  -25.7910 O.3   127  TYR127     -0.2866
     54  N        -32.3400   23.1440  -29.0880 N.3   152  LYS152     -0.1245
     55  CA       -31.4840   23.2700  -27.9100 C.3   152  LYS152      0.1561
     56  C        -30.8530   24.6560  -27.8360 C.2   152  LYS152      0.2260
     57  O        -30.1160   25.0590  -28.7370 O.2   152  LYS152     -0.2867
     58  CB       -30.3800   22.2110  -27.8880 C.3   152  LYS152      0.0271
     59  CG       -29.5290   22.4060  -26.6570 C.3   152  LYS152      0.0035
     60  CD       -28.3950   21.4290  -26.6100 C.3   152  LYS152      0.0206
     61  CE       -27.5080   21.7640  -25.4510 C.3   152  LYS152      0.1093
     62  NZ       -26.1280   21.3080  -25.6950 N.3   152  LYS152     -0.1314
     63  N        -28.6770   27.0250  -25.0870 N.3   154  ALA154     -0.1245
     64  CA       -28.0090   27.3270  -23.8340 C.3   154  ALA154      0.1562
     65  C        -27.6190   28.8010  -23.8490 C.2   154  ALA154      0.2260
     66  O        -27.0180   29.2730  -24.8230 O.2   154  ALA154     -0.2867
     67  CB       -26.7740   26.4380  -23.6500 C.3   154  ALA154      0.0290
     68  N        -31.4990   25.8310  -21.3400 N.3   180  LEU180     -0.1245
     69  CA       -30.7270   25.8470  -20.1090 C.3   180  LEU180      0.1561
     70  C        -29.9510   27.1520  -19.9970 C.2   180  LEU180      0.2260
     71  O        -29.5660   27.7440  -21.0040 O.2   180  LEU180     -0.2867
     72  CB       -29.7690   24.6540  -20.0620 C.3   180  LEU180      0.0270
     73  CG       -30.3910   23.2660  -20.1240 C.3   180  LEU180      0.0019
     74  CD1      -29.3480   22.2360  -20.4460 C.3   180  LEU180      0.0001
     75  CD2      -31.1050   22.9390  -18.7950 C.3   180  LEU180      0.0001
     76  N        -26.5450   28.7780  -18.2450 N.3   182  MET182     -0.1245
     77  CA       -25.2760   28.3700  -17.6540 C.3   182  MET182      0.1570
     78  C        -24.8450   29.3210  -16.5360 C.2   182  MET182      0.2261
     79  O        -25.3390   30.4450  -16.4150 O.2   182  MET182     -0.2867
     80  CB       -24.2010   28.2960  -18.7380 C.3   182  MET182      0.0387
     81  CG       -24.5030   27.2710  -19.8270 C.3   182  MET182      0.0595
     82  SD       -23.3320   27.2830  -21.1870 S.3   182  MET182     -0.1393
     83  CE       -23.5750   28.9700  -21.7520 C.3   182  MET182      0.0692
     84  N        -31.5930   24.5900  -14.4260 N.3   190  ARG190     -0.1245
     85  CA       -31.2560   23.1800  -14.6280 C.3   190  ARG190      0.1563
     86  C        -32.0750   22.2610  -13.7360 C.2   190  ARG190      0.2260
     87  O        -32.1470   21.0520  -13.9930 O.2   190  ARG190     -0.2867
     88  CB       -29.7700   22.9290  -14.3340 C.3   190  ARG190      0.0307
     89  CG       -28.7810   23.8110  -15.1220 C.3   190  ARG190      0.0489
     90  CD       -27.3360   23.3570  -14.9040 C.3   190  ARG190      0.2205
     91  NE       -26.3550   24.1330  -15.6740 N.pl3 190  ARG190     -0.0865
     92  CZ       -26.0230   23.8630  -16.9360 C.cat 190  ARG190      0.5346
     93  NH1      -26.6050   22.8570  -17.5640 N.pl3 190  ARG190      0.1354
     94  NH2      -25.1060   24.5890  -17.5630 N.pl3 190  ARG190      0.1354
     95  N        -28.8400   18.4450  -18.0150 N.3   202  PHE202     -0.1241
     96  CA       -27.5720   17.7530  -17.8430 C.3   202  PHE202      0.1605
     97  C        -27.2130   17.6280  -16.3620 C.2   202  PHE202      0.2264
     98  O        -27.2860   18.6040  -15.6010 O.2   202  PHE202     -0.2867
     99  CB       -26.4510   18.4560  -18.6050 C.3   202  PHE202      0.0534
    100  CG       -26.5880   18.3550  -20.0930 C.ar  202  PHE202     -0.0203
    101  CD1      -27.2150   19.3650  -20.8150 C.ar  202  PHE202     -0.0042
    102  CD2      -26.0930   17.2550  -20.7780 C.ar  202  PHE202     -0.0042
    103  CE1      -27.3540   19.2610  -22.1940 C.ar  202  PHE202     -0.0003
    104  CE2      -26.2260   17.1560  -22.1530 C.ar  202  PHE202     -0.0003
    105  CZ       -26.8560   18.1590  -22.8610 C.ar  202  PHE202     -0.0000
    106  N        -19.4480   19.6350  -17.9330 N.3   211  SER211     -0.1202
    107  CA       -19.2230   19.9960  -19.3350 C.3   211  SER211      0.2020
    108  C        -19.6250   21.4300  -19.6630 C.2   211  SER211      0.2618
    109  O        -19.3120   21.9100  -20.7570 O.2   211  SER211     -0.2717
    110  CB       -19.9440   19.0220  -20.2860 C.3   211  SER211      0.2103
    111  OG       -21.3490   19.2150  -20.2880 O.3   211  SER211     -0.2182
    112  N        -20.3090   22.1200  -18.7590 N.am  212  ALA212     -0.1979
    113  CA       -20.5400   23.5550  -18.8820 C.3   212  ALA212      0.1597
    114  C        -20.8670   24.0820  -17.5030 C.2   212  ALA212      0.2287
    115  O        -21.4480   23.3480  -16.6970 O.2   212  ALA212     -0.2864
    116  CB       -21.6800   23.8660  -19.8570 C.3   212  ALA212      0.0319
    117  N        -23.6350   22.8580  -13.9670 N.3   215  GLN215     -0.1245
    118  CA       -24.3150   21.5670  -13.9570 C.3   215  GLN215      0.1566
    119  C        -24.2030   20.9150  -12.5800 C.2   215  GLN215      0.2260
    120  O        -23.1070   20.8550  -12.0120 O.2   215  GLN215     -0.2867
    121  CB       -23.7390   20.6380  -15.0140 C.3   215  GLN215      0.0367
    122  CG       -23.8260   21.1590  -16.4440 C.3   215  GLN215      0.0905
    123  CD       -22.9760   20.3320  -17.3810 C.2   215  GLN215      0.2608
    124  OE1      -21.9860   19.7250  -16.9560 O.2   215  GLN215     -0.2717
    125  NE2      -23.3590   20.2890  -18.6590 N.am  215  GLN215     -0.0878
@<TRIPOS>BOND
     1    23    24    2
     2    23    22    1
     3    21    22    1
     4    22    25    1
     5    30    29    1
     6    27    26    1
     7    27    28    1
     8    25    26    1
     9    54    55    1
    10    29    28    2
    11    29    31    1
    12    57    56    2
    13    32    33    1
    14    38    40   ar
    15    38    37   ar
    16    35    34    2
    17    55    58    1
    18    55    56    1
    19    58    59    1
    20    40    41   ar
    21    33    34    1
    22    33    36    1
    23    36    37    1
    24    37    39   ar
    25    12    13    2
    26    12    11    1
    27    59    60    1
    28    60    61    1
    29    41    39   ar
    30    51    49   ar
    31    51    52   ar
    32    11    10    1
    33    11    14    1
    34    17    16    1
    35    17    18    2
    36    49    47   ar
    37     8     7   ar
    38    53    52    1
    39    20    18    1
    40    62    61    1
    41    16    15    1
    42    52    50   ar
    43    18    19    1
    44     6     7    1
    45     6     5    1
    46    63    64    1
    47    14    15    1
    48     7     9   ar
    49    66    65    2
    50    42    43    1
    51    47    46    1
    52    47    48   ar
    53     3     2    1
    54     3     4    2
    55     2     5    1
    56     2     1    1
    57    46    43    1
    58    50    48   ar
    59    65    64    1
    60    64    67    1
    61    43    44    1
    62    44    45    2
    63   105   103   ar
    64   105   104   ar
    65   103   101   ar
    66   104   102   ar
    67    83    82    1
    68    68    69    1
    69    82    81    1
    70    71    70    2
    71   101   100   ar
    72   102   100   ar
    73   109   108    2
    74    74    73    1
    75   111   110    1
    76   110   107    1
    77    73    72    1
    78    73    75    1
    79    69    72    1
    80    69    70    1
    81   100    99    1
    82   116   113    1
    83    81    80    1
    84   108   107    1
    85   108   112   am
    86   107   106    1
    87   113   112    1
    88   113   114    1
    89    80    77    1
    90   125   123   am
    91    99    96    1
    92    76    77    1
    93    95    96    1
    94    96    97    1
    95    77    78    1
    96    93    92    1
    97    94    92    1
    98   114   115    2
    99   123   124    2
   100   123   122    1
   101    92    91    2
   102    78    79    2
   103   122   121    1
   104    97    98    2
   105    91    90    1
   106    89    90    1
   107    89    88    1
   108   121   118    1
   109    85    84    1
   110    85    88    1
   111    85    86    1
   112    87    86    2
   113   117   118    1
   114   118   119    1
   115   119   120    2
