@<TRIPOS>MOLECULE
tmp/6bmcA00.pdb
 121 115 0 0 0
SMALL
GASTEIGER

@<TRIPOS>ATOM
      1  N        -16.3280   30.9140  -20.7330 N.3   106  ARG106     -0.1245
      2  CA       -16.7250   29.5990  -20.2390 C.3   106  ARG106      0.1563
      3  C        -18.1980   29.6460  -19.8500 C.2   106  ARG106      0.2260
      4  O        -18.5320   29.8060  -18.6760 O.2   106  ARG106     -0.2867
      5  CB       -15.8730   29.2110  -19.0270 C.3   106  ARG106      0.0307
      6  CG       -14.5960   28.4600  -19.3630 C.3   106  ARG106      0.0489
      7  CD       -13.6530   28.4090  -18.1710 C.3   106  ARG106      0.2205
      8  NE       -12.9410   27.1400  -18.0990 N.pl3 106  ARG106     -0.0865
      9  CZ       -13.2670   26.1400  -17.2880 C.cat 106  ARG106      0.5346
     10  NH1      -12.5410   25.0360  -17.2810 N.pl3 106  ARG106      0.1354
     11  NH2      -14.3290   26.2200  -16.5030 N.pl3 106  ARG106      0.1354
     12  N        -21.1200   24.9340  -19.8950 N.3   110  GLN110     -0.1245
     13  CA       -20.2890   24.3380  -18.8490 C.3   110  GLN110      0.1566
     14  C        -21.1810   23.7190  -17.7850 C.2   110  GLN110      0.2260
     15  O        -21.2930   24.2360  -16.6780 O.2   110  GLN110     -0.2867
     16  CB       -19.3670   25.3790  -18.1980 C.3   110  GLN110      0.0367
     17  CG       -17.9700   25.4240  -18.7800 C.3   110  GLN110      0.0905
     18  CD       -17.2640   24.0840  -18.7410 C.2   110  GLN110      0.2608
     19  OE1      -17.7430   23.1580  -18.0990 O.2   110  GLN110     -0.2717
     20  NE2      -16.1280   23.9670  -19.4250 N.am  110  GLN110     -0.0878
     21  N        -18.9780   18.0360  -15.6220 N.3   113  LYS113     -0.1231
     22  CA       -17.6220   17.9800  -15.0980 C.3   113  LYS113      0.1678
     23  C        -17.1340   16.5400  -15.0860 C.2   113  LYS113      0.2434
     24  O        -17.9220   15.6220  -14.8480 O.2   113  LYS113     -0.2733
     25  CB       -17.5660   18.5940  -13.6950 C.3   113  LYS113      0.0284
     26  CG       -17.9810   20.0690  -13.6670 C.3   113  LYS113      0.0035
     27  CD       -17.0530   20.9480  -14.4900 C.3   113  LYS113      0.0206
     28  CE       -16.0680   21.7330  -13.6370 C.3   113  LYS113      0.1093
     29  NZ       -14.7800   22.0020  -14.3480 N.3   113  LYS113     -0.1314
     30  N        -15.8510   16.3330  -15.4260 N.am  114  PRO114     -0.2729
     31  CA       -15.2600   15.0180  -15.3960 C.3   114  PRO114      0.1401
     32  C        -14.7390   14.7010  -14.0120 C.2   114  PRO114      0.2269
     33  O        -14.3080   15.6030  -13.2890 O.2   114  PRO114     -0.2865
     34  CB       -14.0990   15.1530  -16.3720 C.3   114  PRO114      0.0296
     35  CG       -13.6230   16.5440  -16.1550 C.3   114  PRO114      0.0237
     36  CD       -14.8480   17.3520  -15.7820 C.3   114  PRO114      0.0939
     37  N        -16.1940   22.6610  -22.0440 N.3   177  GLU177     -0.1245
     38  CA       -15.5250   21.3840  -22.2480 C.3   177  GLU177      0.1567
     39  C        -16.4260   20.3320  -22.8840 C.2   177  GLU177      0.2260
     40  O        -17.3430   19.8220  -22.2390 O.2   177  GLU177     -0.2867
     41  CB       -14.9650   20.8590  -20.9230 C.3   177  GLU177      0.0388
     42  CG       -14.3350   19.4790  -21.0190 C.3   177  GLU177      0.1160
     43  CD       -14.1440   18.8300  -19.6620 C.2   177  GLU177      0.3649
     44  OE1      -13.5820   17.7160  -19.6080 O.co2 177  GLU177     -0.2457
     45  OE2      -14.5560   19.4340  -18.6490 O.co2 177  GLU177     -0.2457
     46  N        -13.3090   22.6220  -26.0360 N.3   205  TRP205     -0.1241
     47  CA       -12.0740   21.9210  -25.7190 C.3   205  TRP205      0.1605
     48  C        -12.3590   20.5300  -25.1760 C.2   205  TRP205      0.2264
     49  O        -13.5040   20.1860  -24.8750 O.2   205  TRP205     -0.2867
     50  CB       -11.2360   22.7240  -24.7210 C.3   205  TRP205      0.0550
     51  CG       -11.7350   22.6760  -23.3100 C.ar  205  TRP205      0.0003
     52  CD1      -11.4400   21.7380  -22.3700 C.ar  205  TRP205      0.0946
     53  CD2      -12.5570   23.6490  -22.6650 C.ar  205  TRP205      0.0152
     54  NE1      -12.0520   22.0480  -21.1840 N.ar  205  TRP205     -0.2442
     55  CE2      -12.7460   23.2190  -21.3380 C.ar  205  TRP205      0.0810
     56  CE3      -13.1670   24.8360  -23.0820 C.ar  205  TRP205      0.0012
     57  CZ2      -13.5150   23.9340  -20.4260 C.ar  205  TRP205      0.0191
     58  CZ3      -13.9270   25.5500  -22.1720 C.ar  205  TRP205      0.0001
     59  CH2      -14.0890   25.1000  -20.8580 C.ar  205  TRP205      0.0015
     60  N        -11.0900   17.8310  -22.1500 N.3   207  GLY207     -0.1210
     61  CA       -10.4270   17.8200  -20.8550 C.3   207  GLY207      0.1956
     62  C         -9.2610   16.8510  -20.8300 C.2   207  GLY207      0.2612
     63  O         -9.1290   15.9880  -21.6950 O.2   207  GLY207     -0.2717
     64  N         -8.4240   16.9960  -19.8080 N.am  208  GLU208     -0.1965
     65  CA        -7.1740   16.2580  -19.6800 C.3   208  GLU208      0.1733
     66  C         -7.4100   14.7570  -19.5850 C.2   208  GLU208      0.2616
     67  O         -6.5890   13.9600  -20.0540 O.2   208  GLU208     -0.2715
     68  CB        -6.4890   16.7550  -18.4000 C.3   208  GLU208      0.0429
     69  CG        -5.2540   15.9820  -17.9690 C.3   208  GLU208      0.1163
     70  CD        -4.0350   16.3920  -18.7540 C.2   208  GLU208      0.3649
     71  OE1       -3.3520   15.4980  -19.2840 O.co2 208  GLU208     -0.2457
     72  OE2       -3.7910   17.6100  -18.8770 O.co2 208  GLU208     -0.2457
     73  N         -8.5520   14.3840  -19.0210 N.am  209  ARG209     -0.1977
     74  CA        -8.8420   12.9850  -18.7450 C.3   209  ARG209      0.1597
     75  C         -9.7790   12.3640  -19.7880 C.2   209  ARG209      0.2287
     76  O        -10.2800   11.2600  -19.5860 O.2   209  ARG209     -0.2864
     77  CB        -9.4140   12.8320  -17.3270 C.3   209  ARG209      0.0334
     78  CG       -10.1160   14.0650  -16.7700 C.3   209  ARG209      0.0492
     79  CD       -10.8320   13.7560  -15.4620 C.3   209  ARG209      0.2205
     80  NE        -9.9640   13.9540  -14.3030 N.pl3 209  ARG209     -0.0865
     81  CZ        -9.6460   15.1440  -13.7910 C.cat 209  ARG209      0.5346
     82  NH1      -10.1390   16.2640  -14.3120 N.pl3 209  ARG209      0.1354
     83  NH2       -8.8350   15.2190  -12.7440 N.pl3 209  ARG209      0.1354
     84  N         -6.8080   20.3270  -23.4460 N.3   231  LYS231     -0.1245
     85  CA        -6.0380   20.5410  -22.2270 C.3   231  LYS231      0.1561
     86  C         -4.8200   19.6300  -22.2270 C.2   231  LYS231      0.2260
     87  O         -4.8910   18.4970  -22.6960 O.2   231  LYS231     -0.2867
     88  CB        -6.8990   20.2570  -20.9940 C.3   231  LYS231      0.0271
     89  CG        -8.1390   21.1320  -20.8800 C.3   231  LYS231      0.0035
     90  CD        -7.8110   22.5340  -20.3840 C.3   231  LYS231      0.0206
     91  CE        -8.9820   23.1490  -19.6270 C.3   231  LYS231      0.1093
     92  NZ        -8.7980   23.0810  -18.1470 N.3   231  LYS231     -0.1314
     93  N         -1.8130   23.2060  -18.6380 N.3   262  ARG262     -0.1245
     94  CA        -2.0950   23.2800  -17.2080 C.3   262  ARG262      0.1563
     95  C         -1.2340   22.2610  -16.4760 C.2   262  ARG262      0.2260
     96  O         -1.6260   21.1040  -16.3260 O.2   262  ARG262     -0.2867
     97  CB        -3.5810   23.0120  -16.9300 C.3   262  ARG262      0.0307
     98  CG        -4.3290   22.3290  -18.0640 C.3   262  ARG262      0.0489
     99  CD        -4.2410   20.8150  -17.9750 C.3   262  ARG262      0.2205
    100  NE        -5.2530   20.2740  -17.0720 N.pl3 262  ARG262     -0.0865
    101  CZ        -4.9950   19.6770  -15.9070 C.cat 262  ARG262      0.5346
    102  NH1       -3.7460   19.5240  -15.4750 N.pl3 262  ARG262      0.1354
    103  NH2       -5.9910   19.2160  -15.1650 N.pl3 262  ARG262      0.1354
    104  N         -5.7010   24.8860  -12.9530 N.3   294  HIS294     -0.1241
    105  CA        -5.8940   23.4710  -12.6310 C.3   294  HIS294      0.1621
    106  C         -4.5840   22.7530  -12.3200 C.2   294  HIS294      0.2264
    107  O         -4.5920   21.6480  -11.7770 O.2   294  HIS294     -0.2867
    108  CB        -6.6130   22.7530  -13.7710 C.3   294  HIS294      0.0745
    109  CG        -8.0350   23.1790  -13.9470 C.ar  294  HIS294      0.0817
    110  ND1       -8.3910   24.2860  -14.6840 N.ar  294  HIS294     -0.2268
    111  CD2       -9.1900   22.6470  -13.4840 C.ar  294  HIS294      0.1154
    112  CE1       -9.7050   24.4080  -14.6840 C.ar  294  HIS294      0.1986
    113  NE2      -10.2130   23.4370  -13.9470 N.ar  294  HIS294     -0.2212
    114  N        -14.6350   23.8450   -8.6780 N.3   364  ASP364     -0.1239
    115  CA       -13.3130   24.3780   -8.3180 C.3   364  ASP364      0.1674
    116  C        -13.3800   25.8130   -7.8060 C.2   364  ASP364      0.2266
    117  O        -14.3110   26.5450   -8.1390 O.2   364  ASP364     -0.2867
    118  CB       -12.3710   24.3450   -9.5300 C.3   364  ASP364      0.1410
    119  CG       -11.8990   22.9420   -9.8780 C.2   364  ASP364      0.3668
    120  OD1      -11.9990   22.0350   -9.0250 O.co2 364  ASP364     -0.2456
    121  OD2      -11.3920   22.7600  -11.0070 O.co2 364  ASP364     -0.2456
@<TRIPOS>BOND
     1    46    47    1
     2    47    48    1
     3    47    50    1
     4    48    49    2
     5    50    51    1
     6    84    85    1
     7    51    53   ar
     8    51    52   ar
     9    56    53   ar
    10    56    58   ar
    11    39    38    1
    12    39    40    2
    13    87    86    2
    14    53    55   ar
    15    52    54   ar
    16    38    37    1
    17    38    41    1
    18    85    86    1
    19    85    88    1
    20    58    59   ar
    21    60    61    1
    22    63    62    2
    23    55    54   ar
    24    55    57   ar
    25    42    41    1
    26    42    43    1
    27    88    89    1
    28    89    90    1
    29    59    57   ar
    30    61    62    1
    31    62    64   am
    32     1     2    1
    33    90    91    1
    34     2     3    1
    35     2     5    1
    36    67    66    2
    37    12    13    1
    38     3     4    2
    39    64    65    1
    40    75    76    2
    41    75    74    1
    42    65    66    1
    43    65    68    1
    44    43    44   ar
    45    43    45   ar
    46    91    92    1
    47    66    73   am
    48    20    18   am
    49     6     5    1
    50     6     7    1
    51    71    70   ar
    52    73    74    1
    53    72    70   ar
    54    13    16    1
    55    13    14    1
    56    17    18    1
    57    17    16    1
    58    70    69    1
    59    74    77    1
    60    18    19    2
    61    93    94    1
    62    68    69    1
    63     7     8    1
    64     8     9    2
    65    98    99    1
    66    98    97    1
    67    99   100    1
    68    14    15    2
    69    77    78    1
    70     9    10    1
    71     9    11    1
    72    94    97    1
    73    94    95    1
    74   100   101    2
    75    78    79    1
    76    95    96    2
    77    34    35    1
    78    34    31    1
    79    35    36    1
    80   101   102    1
    81   101   103    1
    82    36    30    1
    83    21    22    1
    84    79    80    1
    85    30    31    1
    86    30    23   am
    87    31    32    1
    88    22    23    1
    89    22    25    1
    90    23    24    2
    91   110   112   ar
    92   110   109   ar
    93   112   113   ar
    94    27    26    1
    95    27    28    1
    96    29    28    1
    97    82    81    1
    98    80    81    2
    99    32    33    2
   100   109   108    1
   101   109   111   ar
   102   113   111   ar
   103    81    83    1
   104   108   105    1
   105    25    26    1
   106   104   105    1
   107   105   106    1
   108   106   107    2
   109   121   119   ar
   110   119   118    1
   111   119   120   ar
   112   118   115    1
   113   114   115    1
   114   115   116    1
   115   117   116    2
