@<TRIPOS>MOLECULE
tmp/6bmeA00.pdb
 204 196 0 0 0
SMALL
GASTEIGER

@<TRIPOS>ATOM
      1  N         27.5860   27.1460   19.7330 N.3    30  LEU30      -0.1245
      2  CA        28.1640   26.4620   18.5780 C.3    30  LEU30       0.1561
      3  C         27.8910   27.1530   17.2520 C.2    30  LEU30       0.2260
      4  O         28.7390   27.1230   16.3630 O.2    30  LEU30      -0.2867
      5  CB        27.6260   25.0360   18.5010 C.3    30  LEU30       0.0270
      6  CG        27.9040   24.1740   19.7290 C.3    30  LEU30       0.0019
      7  CD1       27.1440   22.8700   19.6360 C.3    30  LEU30       0.0001
      8  CD2       29.4150   23.9280   19.8580 C.3    30  LEU30       0.0001
      9  N         30.5600   29.0970   15.0030 N.3    33  PHE33      -0.1227
     10  CA        31.5460   28.3770   14.1930 C.3    33  PHE33       0.1736
     11  C         31.0290   28.0550   12.7980 C.2    33  PHE33       0.2595
     12  O         31.8300   27.7610   11.9060 O.2    33  PHE33      -0.2718
     13  CB        31.9790   27.0770   14.8770 C.3    33  PHE33       0.0547
     14  CG        32.7850   27.2990   16.1230 C.ar   33  PHE33      -0.0202
     15  CD1       34.1160   27.6920   16.0340 C.ar   33  PHE33      -0.0042
     16  CD2       32.2110   27.1400   17.3760 C.ar   33  PHE33      -0.0042
     17  CE1       34.8750   27.9150   17.1760 C.ar   33  PHE33      -0.0003
     18  CE2       32.9520   27.3720   18.5320 C.ar   33  PHE33      -0.0003
     19  CZ        34.2990   27.7550   18.4290 C.ar   33  PHE33      -0.0000
     20  N         29.7200   28.1080   12.5820 N.am   34  PHE34      -0.1976
     21  CA        29.1590   27.7950   11.2730 C.3    34  PHE34       0.1639
     22  C         28.8450   29.0340   10.4350 C.2    34  PHE34       0.2290
     23  O         28.4110   28.8990    9.2820 O.2    34  PHE34      -0.2864
     24  CB        27.9110   26.9240   11.4590 C.3    34  PHE34       0.0560
     25  CG        28.2090   25.6210   12.1580 C.ar   34  PHE34      -0.0200
     26  CD1       28.8390   24.5910   11.4820 C.ar   34  PHE34      -0.0042
     27  CD2       27.9060   25.4480   13.4930 C.ar   34  PHE34      -0.0042
     28  CE1       29.1450   23.4050   12.1190 C.ar   34  PHE34      -0.0003
     29  CE2       28.1930   24.2660   14.1380 C.ar   34  PHE34      -0.0003
     30  CZ        28.8150   23.2390   13.4500 C.ar   34  PHE34      -0.0000
     31  N         29.7040   29.3500    6.5550 N.3    37  VAL37      -0.1245
     32  CA        29.8320   28.0340    5.9350 C.3    37  VAL37       0.1561
     33  C         28.5780   27.7440    5.1190 C.2    37  VAL37       0.2260
     34  O         27.4680   27.6990    5.6620 O.2    37  VAL37      -0.2867
     35  CB        30.0650   26.9310    6.9740 C.3    37  VAL37       0.0252
     36  CG1       30.4150   25.6340    6.2450 C.3    37  VAL37       0.0019
     37  CG2       31.1730   27.3240    7.9350 C.3    37  VAL37       0.0019
     38  N         28.1220   22.3680    2.1310 N.3    41  THR41      -0.1203
     39  CA        29.2290   21.8960    2.9530 C.3    41  THR41       0.1994
     40  C         28.7450   21.4080    4.3150 C.2    41  THR41       0.2617
     41  O         29.2020   20.3700    4.8050 O.2    41  THR41      -0.2717
     42  CB        30.2550   23.0180    3.1160 C.3    41  THR41       0.1784
     43  OG1       30.7480   23.4090    1.8180 O.3    41  THR41      -0.2211
     44  CG2       31.3950   22.5790    3.9970 C.3    41  THR41       0.0376
     45  N         27.8100   22.1350    4.9350 N.am   42  LEU42      -0.1979
     46  CA        27.3600   21.7740    6.2770 C.3    42  LEU42       0.1596
     47  C         26.5720   20.4720    6.2610 C.2    42  LEU42       0.2287
     48  O         26.7910   19.5910    7.0990 O.2    42  LEU42      -0.2864
     49  CB        26.5060   22.8960    6.8720 C.3    42  LEU42       0.0297
     50  CG        27.2560   24.1200    7.3920 C.3    42  LEU42       0.0022
     51  CD1       26.3060   25.0850    8.0820 C.3    42  LEU42       0.0001
     52  CD2       28.3680   23.6800    8.3300 C.3    42  LEU42       0.0001
     53  N         26.7840   18.1440    4.0580 N.3    44  ALA44      -0.1231
     54  CA        27.7350   17.0740    3.7710 C.3    44  ALA44       0.1694
     55  C         28.5430   16.7210    5.0110 C.2    44  ALA44       0.2591
     56  O         28.7970   15.5430    5.2800 O.2    44  ALA44      -0.2718
     57  CB        28.6660   17.4730    2.6180 C.3    44  ALA44       0.0304
     58  N         28.9430   17.7350    5.7850 N.am   45  LYS45      -0.1980
     59  CA        29.6460   17.4880    7.0380 C.3    45  LYS45       0.1596
     60  C         28.8300   16.5990    7.9670 C.2    45  LYS45       0.2287
     61  O         29.3480   15.6270    8.5380 O.2    45  LYS45      -0.2864
     62  CB        29.9580   18.8150    7.7340 C.3    45  LYS45       0.0298
     63  CG        30.1930   18.6700    9.2420 C.3    45  LYS45       0.0038
     64  CD        30.5470   20.0140    9.8730 C.3    45  LYS45       0.0206
     65  CE        30.4560   19.9610   11.3990 C.3    45  LYS45       0.1093
     66  NZ        31.3200   18.8960   12.0100 N.3    45  LYS45      -0.1314
     67  N         28.7010   13.0030    6.8240 N.3    48  ARG48      -0.1231
     68  CA        29.9520   12.2740    7.0080 C.3    48  ARG48       0.1694
     69  C         30.2330   12.0280    8.4920 C.2    48  ARG48       0.2592
     70  O         30.7680   10.9750    8.8630 O.2    48  ARG48      -0.2718
     71  CB        31.0990   13.0410    6.3460 C.3    48  ARG48       0.0321
     72  CG        32.2700   12.1460    5.9690 C.3    48  ARG48       0.0489
     73  CD        33.3140   12.8640    5.1370 C.3    48  ARG48       0.2205
     74  NE        34.2580   11.9010    4.5730 N.pl3  48  ARG48      -0.0865
     75  CZ        35.4140   12.2290    4.0050 C.cat  48  ARG48       0.5346
     76  NH1       35.7930   13.5020    3.9280 N.pl3  48  ARG48       0.1354
     77  NH2       36.1980   11.2800    3.5270 N.pl3  48  ARG48       0.1354
     78  N         29.8590   12.9860    9.3480 N.am   49  PHE49      -0.1976
     79  CA        29.9680   12.8140   10.8000 C.3    49  PHE49       0.1639
     80  C         29.1700   11.5980   11.2460 C.2    49  PHE49       0.2290
     81  O         29.6740   10.7300   11.9730 O.2    49  PHE49      -0.2864
     82  CB        29.4640   14.0920   11.4950 C.3    49  PHE49       0.0560
     83  CG        29.6490   14.1300   13.0010 C.ar   49  PHE49      -0.0200
     84  CD1       28.9630   13.2570   13.8390 C.ar   49  PHE49      -0.0042
     85  CD2       30.4340   15.1160   13.5800 C.ar   49  PHE49      -0.0042
     86  CE1       29.1230   13.3130   15.2320 C.ar   49  PHE49      -0.0003
     87  CE2       30.6010   15.1840   14.9620 C.ar   49  PHE49      -0.0003
     88  CZ        29.9370   14.2780   15.7890 C.ar   49  PHE49      -0.0000
     89  N         30.7800    8.4340    9.9480 N.3    52  TYR52      -0.1241
     90  CA        31.9910    8.1400   10.7130 C.3    52  TYR52       0.1605
     91  C         31.6640    7.5270   12.0700 C.2    52  TYR52       0.2264
     92  O         32.2960    6.5480   12.4880 O.2    52  TYR52      -0.2867
     93  CB        32.8180    9.4180   10.8940 C.3    52  TYR52       0.0534
     94  CG        34.1370    9.1780   11.5890 C.ar   52  TYR52      -0.0201
     95  CD1       35.2110    8.6150   10.9080 C.ar   52  TYR52      -0.0009
     96  CD2       34.3080    9.5070   12.9310 C.ar   52  TYR52      -0.0009
     97  CE1       36.4210    8.3840   11.5460 C.ar   52  TYR52       0.0417
     98  CE2       35.5150    9.2810   13.5740 C.ar   52  TYR52       0.0417
     99  CZ        36.5640    8.7240   12.8760 C.ar   52  TYR52       0.1957
    100  OH        37.7590    8.5000   13.5140 O.3    52  TYR52      -0.2866
    101  N         38.4140    8.4860    5.7930 N.3    60  TYR60      -0.1241
    102  CA        38.3250    9.5530    6.7770 C.3    60  TYR60       0.1605
    103  C         38.8960    9.0510    8.0930 C.2    60  TYR60       0.2264
    104  O         38.3470    8.1220    8.6930 O.2    60  TYR60      -0.2867
    105  CB        36.8740   10.0050    6.9450 C.3    60  TYR60       0.0534
    106  CG        36.7410   11.3170    7.6560 C.ar   60  TYR60      -0.0201
    107  CD1       37.2420   12.4830    7.0950 C.ar   60  TYR60      -0.0009
    108  CD2       36.1150   11.3950    8.8840 C.ar   60  TYR60      -0.0009
    109  CE1       37.1150   13.6770    7.7290 C.ar   60  TYR60       0.0417
    110  CE2       35.9740   12.5850    9.5240 C.ar   60  TYR60       0.0417
    111  CZ        36.4800   13.7220    8.9520 C.ar   60  TYR60       0.1957
    112  OH        36.3520   14.9040    9.6120 O.3    60  TYR60      -0.2866
    113  N         40.4110   14.5540   10.3740 N.3    65  ILE65      -0.1245
    114  CA        39.6530   15.3710   11.3170 C.3    65  ILE65       0.1561
    115  C         40.4900   16.5580   11.7780 C.2    65  ILE65       0.2260
    116  O         39.9940   17.6890   11.8610 O.2    65  ILE65      -0.2867
    117  CB        39.1780   14.5220   12.5080 C.3    65  ILE65       0.0252
    118  CG1       38.1960   13.4470   12.0270 C.3    65  ILE65       0.0019
    119  CG2       38.5420   15.4250   13.5690 C.3    65  ILE65       0.0019
    120  CD1       37.9320   12.3630   13.0280 C.3    65  ILE65       0.0001
    121  N         40.9040   19.1370    8.9650 N.3    68  GLY68      -0.1210
    122  CA        39.6630   19.8560    8.7010 C.3    68  GLY68       0.1956
    123  C         39.2660   20.8670    9.7660 C.2    68  GLY68       0.2611
    124  O         38.4950   21.7920    9.4720 O.2    68  GLY68      -0.2717
    125  N         39.7720   20.7180   10.9950 N.am   69  HIS69      -0.1975
    126  CA        39.3470   21.5580   12.1130 C.3    69  HIS69       0.1656
    127  C         40.4600   22.3770   12.7430 C.2    69  HIS69       0.2291
    128  O         40.1650   23.2040   13.6170 O.2    69  HIS69      -0.2864
    129  CB        38.6860   20.6980   13.2080 C.3    69  HIS69       0.0771
    130  CG        37.4610   19.9840   12.7300 C.ar   69  HIS69       0.0820
    131  ND1       37.5220   18.7990   12.0330 N.ar   69  HIS69      -0.2267
    132  CD2       36.1470   20.3050   12.8140 C.ar   69  HIS69       0.1154
    133  CE1       36.2980   18.4160   11.7110 C.ar   69  HIS69       0.1986
    134  NE2       35.4470   19.3140   12.1730 N.ar   69  HIS69      -0.2212
    135  N         42.2050   24.9160   11.8820 N.3    71  HIS71      -0.1226
    136  CA        42.0560   26.3670   11.8190 C.3    71  HIS71       0.1752
    137  C         41.0570   26.8890   12.8500 C.2    71  HIS71       0.2595
    138  O         41.2210   28.0110   13.3460 O.2    71  HIS71      -0.2718
    139  CB        41.6630   26.8010   10.4040 C.3    71  HIS71       0.0759
    140  CG        40.2520   26.4600   10.0250 C.ar   71  HIS71       0.0818
    141  ND1       39.8460   25.1730    9.7410 N.ar   71  HIS71      -0.2268
    142  CD2       39.1590   27.2440    9.8640 C.ar   71  HIS71       0.1154
    143  CE1       38.5610   25.1780    9.4300 C.ar   71  HIS71       0.1986
    144  NE2       38.1220   26.4240    9.4900 N.ar   71  HIS71      -0.2212
    145  N         40.0300   26.1000   13.1960 N.am   72  LEU72      -0.1980
    146  CA        39.0700   26.5380   14.2090 C.3    72  LEU72       0.1596
    147  C         39.6920   26.5340   15.5980 C.2    72  LEU72       0.2287
    148  O         39.4140   27.4200   16.4180 O.2    72  LEU72      -0.2864
    149  CB        37.8320   25.6370   14.2010 C.3    72  LEU72       0.0297
    150  CG        37.1160   25.5430   12.8470 C.3    72  LEU72       0.0022
    151  CD1       36.0890   24.4220   12.8440 C.3    72  LEU72       0.0001
    152  CD2       36.4650   26.8650   12.4880 C.3    72  LEU72       0.0001
    153  N         38.2160   26.9970   19.1740 N.3    78  LEU78      -0.1245
    154  CA        37.4560   25.7520   19.2810 C.3    78  LEU78       0.1561
    155  C         38.0810   24.8630   20.3500 C.2    78  LEU78       0.2260
    156  O         39.3050   24.6810   20.3830 O.2    78  LEU78      -0.2867
    157  CB        37.4380   25.0330   17.9320 C.3    78  LEU78       0.0270
    158  CG        36.5540   23.7830   17.8950 C.3    78  LEU78       0.0019
    159  CD1       35.1380   24.2300   18.1320 C.3    78  LEU78       0.0001
    160  CD2       36.6740   23.0130   16.5590 C.3    78  LEU78       0.0001
    161  N         33.4540   20.4770   21.5650 N.3    83  PHE83      -0.1241
    162  CA        33.3820   19.0850   21.1130 C.3    83  PHE83       0.1605
    163  C         32.3480   18.3010   21.9080 C.2    83  PHE83       0.2264
    164  O         31.5660   17.5260   21.3410 O.2    83  PHE83      -0.2867
    165  CB        34.7410   18.3920   21.2310 C.3    83  PHE83       0.0534
    166  CG        34.6920   16.9120   20.9040 C.ar   83  PHE83      -0.0203
    167  CD1       34.3460   15.9730   21.8750 C.ar   83  PHE83      -0.0042
    168  CD2       34.9660   16.4620   19.6160 C.ar   83  PHE83      -0.0042
    169  CE1       34.2750   14.6210   21.5680 C.ar   83  PHE83      -0.0003
    170  CE2       34.9080   15.1080   19.2990 C.ar   83  PHE83      -0.0003
    171  CZ        34.5570   14.1850   20.2740 C.ar   83  PHE83      -0.0000
    172  N         28.7820   19.2660   20.8040 N.3    86  VAL86      -0.1245
    173  CA        28.4450   18.6640   19.5160 C.3    86  VAL86       0.1561
    174  C         28.1820   17.1740   19.6890 C.2    86  VAL86       0.2260
    175  O         27.2070   16.6300   19.1510 O.2    86  VAL86      -0.2867
    176  CB        29.5670   18.9260   18.4880 C.3    86  VAL86       0.0252
    177  CG1       29.4170   18.0220   17.2540 C.3    86  VAL86       0.0019
    178  CG2       29.5910   20.3950   18.0670 C.3    86  VAL86       0.0019
    179  N         33.2500    8.5940   19.1420 N.3   111  LEU111     -0.1245
    180  CA        33.4160   10.0100   19.4700 C.3   111  LEU111      0.1561
    181  C         34.4320   10.2080   20.5850 C.2   111  LEU111      0.2260
    182  O         35.2930   11.0960   20.5090 O.2   111  LEU111     -0.2867
    183  CB        32.0660   10.6090   19.8620 C.3   111  LEU111      0.0270
    184  CG        31.0430   10.6290   18.7290 C.3   111  LEU111      0.0019
    185  CD1       29.7040   11.2030   19.1900 C.3   111  LEU111      0.0001
    186  CD2       31.5900   11.3920   17.5230 C.3   111  LEU111      0.0001
    187  N         37.9990   10.1430   19.3440 N.3   114  VAL114     -0.1245
    188  CA        38.5730   11.2850   18.6360 C.3   114  VAL114      0.1561
    189  C         38.5440   12.5710   19.4540 C.2   114  VAL114      0.2260
    190  O         39.1100   13.5870   19.0070 O.2   114  VAL114     -0.2867
    191  CB        37.8850   11.5050   17.2700 C.3   114  VAL114      0.0252
    192  CG1       38.2280   10.3680   16.3420 C.3   114  VAL114      0.0019
    193  CG2       36.3750   11.6190   17.4330 C.3   114  VAL114      0.0019
    194  N         40.6460   17.3620   19.7570 N.3   118  PHE118     -0.1241
    195  CA        40.0670   18.6800   19.9560 C.3   118  PHE118      0.1605
    196  C         40.5780   19.3360   21.2260 C.2   118  PHE118      0.2264
    197  O         40.0190   20.3460   21.6640 O.2   118  PHE118     -0.2867
    198  CB        38.5410   18.5820   19.9410 C.3   118  PHE118      0.0534
    199  CG        37.9990   18.2940   18.5740 C.ar  118  PHE118     -0.0203
    200  CD1       37.9690   16.9950   18.0910 C.ar  118  PHE118     -0.0042
    201  CD2       37.6010   19.3380   17.7350 C.ar  118  PHE118     -0.0042
    202  CE1       37.4960   16.7170   16.8020 C.ar  118  PHE118     -0.0003
    203  CE2       37.1310   19.0780   16.4520 C.ar  118  PHE118     -0.0003
    204  CZ        37.0850   17.7590   15.9810 C.ar  118  PHE118     -0.0000
@<TRIPOS>BOND
     1    43    42    1
     2    38    39    1
     3    57    54    1
     4    39    42    1
     5    39    40    1
     6    42    44    1
     7    77    75    1
     8    54    53    1
     9    54    55    1
    10    76    75    1
    11    75    74    2
    12    40    41    2
    13    40    45   am
    14    74    73    1
    15    45    46    1
    16    55    56    2
    17    55    58   am
    18    33    34    2
    19    33    32    1
    20    73    72    1
    21    58    59    1
    22   101   102    1
    23    32    31    1
    24    32    35    1
    25    72    71    1
    26    36    35    1
    27    47    46    1
    28    47    48    2
    29    46    49    1
    30    71    68    1
    31   102   105    1
    32   102   103    1
    33    67    68    1
    34    49    50    1
    35   105   106    1
    36    35    37    1
    37    68    69    1
    38    59    62    1
    39    59    60    1
    40   107   106   ar
    41   107   109   ar
    42    50    51    1
    43    50    52    1
    44   106   108   ar
    45   109   111   ar
    46    62    63    1
    47    60    61    2
    48   103   104    2
    49    69    70    2
    50    69    78   am
    51   122   121    1
    52   122   123    1
    53   108   110   ar
    54   111   110   ar
    55   111   112    1
    56    63    64    1
    57    23    22    2
    58    78    79    1
    59   143   144   ar
    60   143   141   ar
    61   124   123    2
    62   144   142   ar
    63   141   140   ar
    64   123   125   am
    65   142   140   ar
    66    64    65    1
    67    89    90    1
    68   140   139    1
    69   113   114    1
    70   139   136    1
    71    22    21    1
    72    90    93    1
    73    90    91    1
    74    79    80    1
    75    79    82    1
    76    93    94    1
    77    95    97   ar
    78    95    94   ar
    79   125   126    1
    80    80    81    2
    81    21    24    1
    82    21    20    1
    83   114   115    1
    84   114   117    1
    85    65    66    1
    86    24    25    1
    87    26    28   ar
    88    26    25   ar
    89    82    83    1
    90    97    99   ar
    91    94    96   ar
    92   133   131   ar
    93   133   134   ar
    94   115   116    2
    95   136   135    1
    96   136   137    1
    97    12    11    2
    98   118   117    1
    99   118   120    1
   100   131   130   ar
   101    91    92    2
   102   126   127    1
   103   126   129    1
   104    28    30   ar
   105    25    27   ar
   106   134   132   ar
   107   152   150    1
   108   117   119    1
   109    20    11   am
   110   130   132   ar
   111   130   129    1
   112   127   128    2
   113    11    10    1
   114   151   150    1
   115   150   149    1
   116   137   145   am
   117   137   138    2
   118    99   100    1
   119    99    98   ar
   120    96    98   ar
   121    83    85   ar
   122    83    84   ar
   123   145   146    1
   124    30    29   ar
   125    27    29   ar
   126    85    87   ar
   127    84    86   ar
   128    10    13    1
   129    10     9    1
   130   149   146    1
   131   146   147    1
   132    13    14    1
   133    87    88   ar
   134    86    88   ar
   135   147   148    2
   136   204   203   ar
   137   204   202   ar
   138    15    14   ar
   139    15    17   ar
   140    14    16   ar
   141   192   191    1
   142     4     3    2
   143   203   201   ar
   144   160   158    1
   145   202   200   ar
   146    17    19   ar
   147     3     2    1
   148   177   176    1
   149   191   193    1
   150   191   188    1
   151    16    18   ar
   152   186   184    1
   153   201   199   ar
   154   158   157    1
   155   158   159    1
   156   157   154    1
   157   178   176    1
   158   200   199   ar
   159    19    18   ar
   160   176   173    1
   161     5     2    1
   162     5     6    1
   163   199   198    1
   164     2     1    1
   165   188   187    1
   166   188   189    1
   167   184   185    1
   168   184   183    1
   169   190   189    2
   170   179   180    1
   171   175   174    2
   172   153   154    1
   173   154   155    1
   174   170   168   ar
   175   170   171   ar
   176   180   183    1
   177   180   181    1
   178   173   174    1
   179   173   172    1
   180   168   166   ar
   181     7     6    1
   182     6     8    1
   183   194   195    1
   184   198   195    1
   185   195   196    1
   186   171   169   ar
   187   155   156    2
   188   182   181    2
   189   166   165    1
   190   166   167   ar
   191   162   165    1
   192   162   161    1
   193   162   163    1
   194   196   197    2
   195   164   163    2
   196   169   167   ar
