@<TRIPOS>MOLECULE
tmp/6bmlB01.pdb
 114 110 0 0 0
SMALL
GASTEIGER

@<TRIPOS>ATOM
      1  N         -3.0130  -15.5020    9.3100 N.3   121  ARG121     -0.1245
      2  CA        -3.4040  -15.6770    7.9150 C.3   121  ARG121      0.1563
      3  C         -4.0740  -17.0350    7.7500 C.2   121  ARG121      0.2260
      4  O         -3.4170  -18.0760    7.8470 O.2   121  ARG121     -0.2867
      5  CB        -2.1840  -15.5490    7.0090 C.3   121  ARG121      0.0307
      6  CG        -1.6890  -14.1210    6.8420 C.3   121  ARG121      0.0489
      7  CD        -0.2350  -14.0870    6.4020 C.3   121  ARG121      0.2205
      8  NE         0.0410  -15.0560    5.3460 N.pl3 121  ARG121     -0.0865
      9  CZ        -0.1390  -14.8220    4.0520 C.cat 121  ARG121      0.5346
     10  NH1       -0.5990  -13.6460    3.6460 N.pl3 121  ARG121      0.1354
     11  NH2        0.1400  -15.7640    3.1630 N.pl3 121  ARG121      0.1354
     12  N        -11.7070  -21.0530    2.4830 N.3   125  LYS125     -0.1245
     13  CA       -12.0720  -22.0590    1.4900 C.3   125  LYS125      0.1561
     14  C        -11.3200  -23.3640    1.7250 C.2   125  LYS125      0.2260
     15  O        -11.9320  -24.4310    1.8490 O.2   125  LYS125     -0.2867
     16  CB       -11.8000  -21.5220    0.0840 C.3   125  LYS125      0.0271
     17  CG       -12.4890  -20.1990   -0.2130 C.3   125  LYS125      0.0035
     18  CD       -12.1990  -19.7160   -1.6260 C.3   125  LYS125      0.0206
     19  CE       -12.8970  -18.3930   -1.9120 C.3   125  LYS125      0.1093
     20  NZ       -12.6130  -17.8970   -3.2860 N.3   125  LYS125     -0.1314
     21  N         -2.4890  -20.4320    6.1500 N.3   130  LYS130     -0.1245
     22  CA        -1.6290  -20.0610    5.0360 C.3   130  LYS130      0.1561
     23  C         -0.1660  -20.0300    5.4620 C.2   130  LYS130      0.2260
     24  O          0.1760  -19.3200    6.4210 O.2   130  LYS130     -0.2867
     25  CB        -2.0400  -18.6930    4.5020 C.3   130  LYS130      0.0271
     26  CG        -3.4980  -18.5960    4.1020 C.3   130  LYS130      0.0035
     27  CD        -3.8460  -17.1900    3.6570 C.3   130  LYS130      0.0206
     28  CE        -5.3420  -17.0380    3.4740 C.3   130  LYS130      0.1093
     29  NZ        -5.7080  -15.6470    3.0880 N.3   130  LYS130     -0.1314
     30  N         -0.6290  -17.6130   -0.9250 N.3   135  HIS135     -0.1226
     31  CA        -1.8900  -16.9160   -1.1250 C.3   135  HIS135      0.1752
     32  C         -2.8550  -17.8350   -1.8590 C.2   135  HIS135      0.2596
     33  O         -2.4490  -18.7900   -2.5270 O.2   135  HIS135     -0.2718
     34  CB        -1.6980  -15.6150   -1.9130 C.3   135  HIS135      0.0759
     35  CG        -0.7450  -14.6570   -1.2720 C.ar  135  HIS135      0.0818
     36  ND1       -1.1490  -13.6880   -0.3780 N.ar  135  HIS135     -0.2268
     37  CD2        0.5970  -14.5210   -1.3920 C.ar  135  HIS135      0.1154
     38  CE1       -0.0980  -12.9960    0.0230 C.ar  135  HIS135      0.1986
     39  NE2        0.9740  -13.4820   -0.5770 N.ar  135  HIS135     -0.2212
     40  N         -4.1440  -17.5380   -1.7250 N.am  136  HIS136     -0.1961
     41  CA        -5.1830  -18.3250   -2.3720 C.3   136  HIS136      0.1787
     42  C         -5.5690  -17.7090   -3.7110 C.2   136  HIS136      0.2620
     43  O         -5.6350  -16.4840   -3.8520 O.2   136  HIS136     -0.2715
     44  CB        -6.4150  -18.4360   -1.4750 C.3   136  HIS136      0.0785
     45  CG        -7.4770  -19.3360   -2.0240 C.ar  136  HIS136      0.0821
     46  ND1       -7.4900  -20.6960   -1.7970 N.ar  136  HIS136     -0.2267
     47  CD2       -8.5620  -19.0720   -2.7910 C.ar  136  HIS136      0.1154
     48  CE1       -8.5370  -21.2310   -2.4000 C.ar  136  HIS136      0.1986
     49  NE2       -9.2030  -20.2670   -3.0100 N.ar  136  HIS136     -0.2212
     50  N         -5.8260  -18.5700   -4.6920 N.am  137  CYS137     -0.1954
     51  CA        -6.2010  -18.1540   -6.0380 C.3   137  CYS137      0.1843
     52  C         -7.5230  -18.8160   -6.3990 C.2   137  CYS137      0.2626
     53  O         -7.6140  -20.0480   -6.4260 O.2   137  CYS137     -0.2714
     54  CB        -5.1170  -18.5240   -7.0510 C.3   137  CYS137      0.0997
     55  SG        -5.5720  -18.2200   -8.7740 S.3   137  CYS137     -0.0797
     56  N         -8.5440  -18.0000   -6.6750 N.am  138  SER138     -0.1936
     57  CA        -9.8540  -18.5480   -7.0050 C.3   138  SER138      0.2055
     58  C         -9.8780  -19.2130   -8.3750 C.2   138  SER138      0.2642
     59  O        -10.8020  -19.9820   -8.6590 O.2   138  SER138     -0.2714
     60  CB       -10.9220  -17.4560   -6.9380 C.3   138  SER138      0.2130
     61  OG       -10.7220  -16.4810   -7.9450 O.3   138  SER138     -0.2179
     62  N         -8.8880  -18.9390   -9.2290 N.am  139  ALA139     -0.1977
     63  CA        -8.8080  -19.6330  -10.5100 C.3   139  ALA139      0.1597
     64  C         -8.2510  -21.0410  -10.3420 C.2   139  ALA139      0.2287
     65  O         -8.7840  -21.9960  -10.9190 O.2   139  ALA139     -0.2864
     66  CB        -7.9510  -18.8350  -11.4920 C.3   139  ALA139      0.0319
     67  N          3.1920  -17.6960   -3.9230 N.3   147  MET147     -0.1245
     68  CA         2.4390  -17.3240   -5.1130 C.3   147  MET147      0.1570
     69  C          2.9070  -15.9780   -5.6450 C.2   147  MET147      0.2261
     70  O          3.0940  -15.0230   -4.8850 O.2   147  MET147     -0.2867
     71  CB         0.9440  -17.2750   -4.7990 C.3   147  MET147      0.0387
     72  CG         0.0860  -16.8680   -5.9830 C.3   147  MET147      0.0595
     73  SD        -1.6630  -16.7370   -5.5780 S.3   147  MET147     -0.1393
     74  CE        -2.3190  -16.0860   -7.1120 C.3   147  MET147      0.0692
     75  N         -1.2680  -15.3410  -11.2220 N.3   150  HIS150     -0.1241
     76  CA        -1.9270  -16.3280  -12.0730 C.3   150  HIS150      0.1621
     77  C         -1.8200  -15.8510  -13.5180 C.2   150  HIS150      0.2264
     78  O         -2.6030  -15.0090  -13.9650 O.2   150  HIS150     -0.2867
     79  CB        -3.3790  -16.5240  -11.6520 C.3   150  HIS150      0.0745
     80  CG        -4.0670  -17.6450  -12.3660 C.ar  150  HIS150      0.0817
     81  ND1       -4.0450  -18.9440  -11.9080 N.ar  150  HIS150     -0.2268
     82  CD2       -4.7960  -17.6600  -13.5070 C.ar  150  HIS150      0.1154
     83  CE1       -4.7300  -19.7120  -12.7360 C.ar  150  HIS150      0.1986
     84  NE2       -5.1970  -18.9570  -13.7140 N.ar  150  HIS150     -0.2212
     85  N          2.9210  -10.0980   -5.6010 N.3   237  ILE237     -0.1245
     86  CA         1.9730   -9.6620   -4.5800 C.3   237  ILE237      0.1561
     87  C          2.6930   -8.8840   -3.4850 C.2   237  ILE237      0.2260
     88  O          2.2330   -7.8210   -3.0510 O.2   237  ILE237     -0.2867
     89  CB         1.2100  -10.8700   -4.0070 C.3   237  ILE237      0.0252
     90  CG1        0.4840  -11.6220   -5.1250 C.3   237  ILE237      0.0019
     91  CG2        0.2260  -10.4210   -2.9390 C.3   237  ILE237      0.0019
     92  CD1       -0.3100  -12.8180   -4.6440 C.3   237  ILE237      0.0001
     93  N          3.4970   -5.2630   -4.0650 N.3   240  PHE240     -0.1227
     94  CA         2.3830   -4.3280   -3.9960 C.3   240  PHE240      0.1736
     95  C          1.8430   -4.1320   -2.5900 C.2   240  PHE240      0.2595
     96  O          1.3620   -3.0420   -2.2730 O.2   240  PHE240     -0.2718
     97  CB         1.2410   -4.7960   -4.9070 C.3   240  PHE240      0.0547
     98  CG         1.5220   -4.6110   -6.3690 C.ar  240  PHE240     -0.0202
     99  CD1        2.4950   -3.7210   -6.7930 C.ar  240  PHE240     -0.0042
    100  CD2        0.8190   -5.3310   -7.3200 C.ar  240  PHE240     -0.0042
    101  CE1        2.7600   -3.5490   -8.1380 C.ar  240  PHE240     -0.0003
    102  CE2        1.0780   -5.1630   -8.6680 C.ar  240  PHE240     -0.0003
    103  CZ         2.0500   -4.2710   -9.0780 C.ar  240  PHE240     -0.0000
    104  N          1.9090   -5.1580   -1.7450 N.am  241  ARG241     -0.1980
    105  CA         1.5030   -5.0690   -0.3460 C.3   241  ARG241      0.1597
    106  C          2.5920   -5.7220    0.4940 C.2   241  ARG241      0.2287
    107  O          2.7720   -6.9430    0.4420 O.2   241  ARG241     -0.2864
    108  CB         0.1500   -5.7450   -0.1210 C.3   241  ARG241      0.0334
    109  CG        -0.4140   -5.5750    1.2790 C.3   241  ARG241      0.0492
    110  CD        -1.6230   -6.4710    1.4750 C.3   241  ARG241      0.2205
    111  NE        -1.2940   -7.8610    1.1780 N.pl3 241  ARG241     -0.0865
    112  CZ        -0.7550   -8.7020    2.0540 C.cat 241  ARG241      0.5346
    113  NH1       -0.4950   -8.2990    3.2910 N.pl3 241  ARG241      0.1354
    114  NH2       -0.4850   -9.9510    1.6960 N.pl3 241  ARG241      0.1354
@<TRIPOS>BOND
     1    78    77    2
     2    84    82   ar
     3    84    83   ar
     4    77    76    1
     5    82    80   ar
     6    83    81   ar
     7    80    81   ar
     8    80    79    1
     9    76    79    1
    10    76    75    1
    11    66    63    1
    12    65    64    2
    13    63    64    1
    14    63    62    1
    15    62    58   am
    16   103   102   ar
    17   103   101   ar
    18    55    54    1
    19   102   100   ar
    20    59    58    2
    21    58    57    1
    22   101    99   ar
    23    61    60    1
    24   100    98   ar
    25    74    73    1
    26    54    51    1
    27    57    60    1
    28    57    56    1
    29    99    98   ar
    30    56    52   am
    31    53    52    2
    32    52    51    1
    33    98    97    1
    34    51    50    1
    35    72    73    1
    36    72    71    1
    37    69    68    1
    38    69    70    2
    39    85    86    1
    40    90    92    1
    41    90    89    1
    42    68    71    1
    43    68    67    1
    44    97    94    1
    45    50    42   am
    46    86    89    1
    47    86    87    1
    48    93    94    1
    49    89    91    1
    50    94    95    1
    51    43    42    2
    52    42    41    1
    53    87    88    2
    54    20    19    1
    55    49    47   ar
    56    49    48   ar
    57    47    45   ar
    58    95    96    2
    59    95   104   am
    60    33    32    2
    61    48    46   ar
    62    41    40    1
    63    41    44    1
    64    45    46   ar
    65    45    44    1
    66    34    35    1
    67    34    31    1
    68    19    18    1
    69    32    40   am
    70    32    31    1
    71   104   105    1
    72    18    17    1
    73    37    35   ar
    74    37    39   ar
    75    35    36   ar
    76    31    30    1
    77    39    38   ar
    78    36    38   ar
    79   105   108    1
    80   105   106    1
    81    17    16    1
    82   108   109    1
    83    16    13    1
    84   107   106    2
    85   111   110    1
    86   111   112    2
    87   109   110    1
    88    13    14    1
    89    13    12    1
    90   114   112    1
    91    14    15    2
    92   112   113    1
    93    29    28    1
    94    11     9    1
    95    28    27    1
    96    10     9    1
    97    27    26    1
    98     9     8    2
    99    26    25    1
   100    25    22    1
   101    22    23    1
   102    22    21    1
   103     8     7    1
   104    23    24    2
   105     7     6    1
   106     6     5    1
   107     5     2    1
   108     3     4    2
   109     3     2    1
   110     2     1    1
