@<TRIPOS>MOLECULE
tmp/6bmlB00.pdb
 208 205 0 0 0
SMALL
GASTEIGER

@<TRIPOS>ATOM
      1  N         -0.9420  -19.2370  -28.2500 N.3    17  ILE17      -0.1245
      2  CA         0.5140  -19.1330  -28.2890 C.3    17  ILE17       0.1561
      3  C          1.1110  -20.3120  -29.0470 C.2    17  ILE17       0.2260
      4  O          2.0770  -20.1580  -29.8050 O.2    17  ILE17      -0.2867
      5  CB         1.0810  -19.0240  -26.8600 C.3    17  ILE17       0.0252
      6  CG1        0.5610  -17.7580  -26.1790 C.3    17  ILE17       0.0019
      7  CG2        2.6020  -19.0110  -26.8810 C.3    17  ILE17       0.0019
      8  CD1        1.0040  -16.4810  -26.8600 C.3    17  ILE17       0.0001
      9  N          1.0050  -19.5540  -32.7590 N.3    20  VAL20      -0.1231
     10  CA         2.0050  -18.5620  -33.1490 C.3    20  VAL20       0.1692
     11  C          3.3960  -19.1840  -33.1860 C.2    20  VAL20       0.2591
     12  O          4.2020  -18.8880  -34.0770 O.2    20  VAL20      -0.2718
     13  CB         1.9520  -17.3550  -32.1940 C.3    20  VAL20       0.0266
     14  CG1        2.9040  -16.2610  -32.6590 C.3    20  VAL20       0.0020
     15  CG2        0.5310  -16.8270  -32.0930 C.3    20  VAL20       0.0020
     16  N          3.6940  -20.0620  -32.2280 N.am   21  VAL21      -0.1980
     17  CA         5.0050  -20.7000  -32.1930 C.3    21  VAL21       0.1595
     18  C          5.1510  -21.6940  -33.3370 C.2    21  VAL21       0.2287
     19  O          6.1980  -21.7550  -33.9940 O.2    21  VAL21      -0.2864
     20  CB         5.2310  -21.3640  -30.8240 C.3    21  VAL21       0.0276
     21  CG1        6.5400  -22.1310  -30.8130 C.3    21  VAL21       0.0022
     22  CG2        5.2190  -20.3130  -29.7320 C.3    21  VAL21       0.0022
     23  N          3.4270  -21.5700  -36.1620 N.3    23  TRP23      -0.1227
     24  CA         3.5040  -20.7260  -37.3500 C.3    23  TRP23       0.1737
     25  C          4.8910  -20.1160  -37.5030 C.2    23  TRP23       0.2596
     26  O          5.4070  -20.0040  -38.6220 O.2    23  TRP23      -0.2718
     27  CB         2.4410  -19.6280  -37.2890 C.3    23  TRP23       0.0564
     28  CG         2.6650  -18.5380  -38.2890 C.ar   23  TRP23       0.0003
     29  CD1        2.2360  -18.5110  -39.5830 C.ar   23  TRP23       0.0946
     30  CD2        3.3860  -17.3180  -38.0790 C.ar   23  TRP23       0.0152
     31  NE1        2.6420  -17.3470  -40.1910 N.ar   23  TRP23      -0.2442
     32  CE2        3.3500  -16.5980  -39.2880 C.ar   23  TRP23       0.0810
     33  CE3        4.0580  -16.7650  -36.9840 C.ar   23  TRP23       0.0012
     34  CZ2        3.9580  -15.3550  -39.4350 C.ar   23  TRP23       0.0191
     35  CZ3        4.6620  -15.5300  -37.1320 C.ar   23  TRP23       0.0001
     36  CH2        4.6070  -14.8390  -38.3470 C.ar   23  TRP23       0.0015
     37  N          5.5130  -19.7190  -36.3900 N.am   24  SER24      -0.1952
     38  CA         6.8590  -19.1590  -36.4640 C.3    24  SER24       0.1924
     39  C          7.8630  -20.2050  -36.9310 C.2    24  SER24       0.2314
     40  O          8.7660  -19.8970  -37.7170 O.2    24  SER24      -0.2863
     41  CB         7.2700  -18.5860  -35.1080 C.3    24  SER24       0.2116
     42  OG         7.4160  -19.6100  -34.1410 O.3    24  SER24      -0.2180
     43  N         13.0970  -22.7160  -25.8600 N.3    60  PHE60      -0.1241
     44  CA        11.8710  -21.9540  -25.6520 C.3    60  PHE60       0.1605
     45  C         10.6950  -22.8730  -25.3440 C.2    60  PHE60       0.2264
     46  O          9.9800  -22.6740  -24.3550 O.2    60  PHE60      -0.2867
     47  CB        11.5770  -21.0920  -26.8800 C.3    60  PHE60       0.0534
     48  CG        10.2050  -20.4850  -26.8810 C.ar   60  PHE60      -0.0203
     49  CD1        9.9250  -19.3710  -26.1070 C.ar   60  PHE60      -0.0042
     50  CD2        9.1950  -21.0260  -27.6560 C.ar   60  PHE60      -0.0042
     51  CE1        8.6620  -18.8110  -26.1060 C.ar   60  PHE60      -0.0003
     52  CE2        7.9340  -20.4710  -27.6570 C.ar   60  PHE60      -0.0003
     53  CZ         7.6660  -19.3610  -26.8820 C.ar   60  PHE60      -0.0000
     54  N          1.7210  -14.7720   -9.2800 N.3   149  HIS149     -0.1226
     55  CA         0.5380  -14.3120   -9.9980 C.3   149  HIS149      0.1752
     56  C         -0.0140  -15.4780  -10.8020 C.2   149  HIS149      0.2596
     57  O          0.6740  -16.4770  -11.0310 O.2   149  HIS149     -0.2718
     58  CB         0.8470  -13.1280  -10.9240 C.3   149  HIS149      0.0759
     59  CG         1.7060  -13.4870  -12.0970 C.ar  149  HIS149      0.0818
     60  ND1        3.0820  -13.5350  -12.0260 N.ar  149  HIS149     -0.2268
     61  CD2        1.3840  -13.8060  -13.3730 C.ar  149  HIS149      0.1154
     62  CE1        3.5700  -13.8740  -13.2060 C.ar  149  HIS149      0.1986
     63  NE2        2.5610  -14.0430  -14.0410 N.ar  149  HIS149     -0.2212
     64  N         -1.2680  -15.3410  -11.2220 N.am  150  HIS150     -0.1961
     65  CA        -1.9270  -16.3280  -12.0730 C.3   150  HIS150      0.1787
     66  C         -1.8200  -15.8510  -13.5180 C.2   150  HIS150      0.2620
     67  O         -2.6030  -15.0090  -13.9650 O.2   150  HIS150     -0.2715
     68  CB        -3.3790  -16.5240  -11.6520 C.3   150  HIS150      0.0785
     69  CG        -4.0670  -17.6450  -12.3660 C.ar  150  HIS150      0.0821
     70  ND1       -4.0450  -18.9440  -11.9080 N.ar  150  HIS150     -0.2267
     71  CD2       -4.7960  -17.6600  -13.5070 C.ar  150  HIS150      0.1154
     72  CE1       -4.7300  -19.7120  -12.7360 C.ar  150  HIS150      0.1986
     73  NE2       -5.1970  -18.9570  -13.7140 N.ar  150  HIS150     -0.2212
     74  N         -0.8410  -16.3800  -14.2420 N.am  151  CYS151     -0.1954
     75  CA        -0.6610  -16.0170  -15.6410 C.3   151  CYS151      0.1828
     76  C         -1.6330  -16.8020  -16.5140 C.2   151  CYS151      0.2467
     77  O         -1.5810  -18.0370  -16.5220 O.2   151  CYS151     -0.2730
     78  CB         0.7710  -16.2810  -16.0820 C.3   151  CYS151      0.0996
     79  SG         1.1290  -15.6990  -17.7520 S.3   151  CYS151     -0.0797
     80  N         -2.5250  -16.1400  -17.2580 N.am  152  PRO152     -0.2715
     81  CA        -3.4700  -16.8880  -18.1020 C.3   152  PRO152      0.1536
     82  C         -2.8320  -17.4740  -19.3490 C.2   152  PRO152      0.2598
     83  O         -3.3920  -18.4150  -19.9250 O.2   152  PRO152     -0.2715
     84  CB        -4.5330  -15.8390  -18.4670 C.3   152  PRO152      0.0310
     85  CG        -4.2660  -14.6550  -17.5740 C.3   152  PRO152      0.0237
     86  CD        -2.8070  -14.6970  -17.2630 C.3   152  PRO152      0.0939
     87  N         -1.6870  -16.9440  -19.7870 N.am  153  TRP153     -0.1974
     88  CA        -1.0380  -17.4310  -21.0000 C.3   153  TRP153      0.1640
     89  C         -0.4240  -18.8140  -20.8200 C.2   153  TRP153      0.2290
     90  O         -0.1070  -19.4710  -21.8170 O.2   153  TRP153     -0.2864
     91  CB         0.0300  -16.4350  -21.4590 C.3   153  TRP153      0.0576
     92  CG        -0.5230  -15.0710  -21.7430 C.ar  153  TRP153      0.0006
     93  CD1       -0.3410  -13.9400  -21.0020 C.ar  153  TRP153      0.0946
     94  CD2       -1.3550  -14.6970  -22.8480 C.ar  153  TRP153      0.0152
     95  NE1       -1.0070  -12.8840  -21.5770 N.ar  153  TRP153     -0.2442
     96  CE2       -1.6380  -13.3230  -22.7120 C.ar  153  TRP153      0.0810
     97  CE3       -1.8880  -15.3900  -23.9400 C.ar  153  TRP153      0.0012
     98  CZ2       -2.4280  -12.6290  -23.6260 C.ar  153  TRP153      0.0191
     99  CZ3       -2.6730  -14.7000  -24.8450 C.ar  153  TRP153      0.0001
    100  CH2       -2.9350  -13.3340  -24.6830 C.ar  153  TRP153      0.0015
    101  N          9.1070  -20.0940  -15.1020 N.3   166  PHE166     -0.1241
    102  CA         8.5020  -18.8860  -15.6520 C.3   166  PHE166      0.1605
    103  C          9.5640  -17.8640  -16.0370 C.2   166  PHE166      0.2264
    104  O          9.4830  -17.2470  -17.1050 O.2   166  PHE166     -0.2867
    105  CB         7.5200  -18.2980  -14.6400 C.3   166  PHE166      0.0534
    106  CG         6.9660  -16.9630  -15.0350 C.ar  166  PHE166     -0.0203
    107  CD1        6.0140  -16.8620  -16.0350 C.ar  166  PHE166     -0.0042
    108  CD2        7.3870  -15.8090  -14.3970 C.ar  166  PHE166     -0.0042
    109  CE1        5.4980  -15.6330  -16.3990 C.ar  166  PHE166     -0.0003
    110  CE2        6.8740  -14.5780  -14.7530 C.ar  166  PHE166     -0.0003
    111  CZ         5.9280  -14.4900  -15.7570 C.ar  166  PHE166     -0.0000
    112  N         11.2190  -19.1360  -19.0070 N.3   169  PHE169     -0.1227
    113  CA        10.2880  -18.9640  -20.1170 C.3   169  PHE169      0.1736
    114  C         10.3410  -17.5410  -20.6590 C.2   169  PHE169      0.2595
    115  O         10.3670  -17.3340  -21.8780 O.2   169  PHE169     -0.2718
    116  CB         8.8690  -19.3230  -19.6810 C.3   169  PHE169      0.0547
    117  CG         7.8080  -18.8550  -20.6340 C.ar  169  PHE169     -0.0202
    118  CD1        7.8230  -19.2540  -21.9610 C.ar  169  PHE169     -0.0042
    119  CD2        6.7950  -18.0160  -20.2030 C.ar  169  PHE169     -0.0042
    120  CE1        6.8500  -18.8200  -22.8400 C.ar  169  PHE169     -0.0003
    121  CE2        5.8170  -17.5820  -21.0760 C.ar  169  PHE169     -0.0003
    122  CZ         5.8430  -17.9860  -22.3970 C.ar  169  PHE169     -0.0000
    123  N         10.3620  -16.5460  -19.7700 N.am  170  LEU170     -0.1980
    124  CA        10.5250  -15.1670  -20.2180 C.3   170  LEU170      0.1596
    125  C         11.8830  -14.9650  -20.8770 C.2   170  LEU170      0.2287
    126  O         11.9850  -14.3050  -21.9180 O.2   170  LEU170     -0.2864
    127  CB        10.3510  -14.2060  -19.0430 C.3   170  LEU170      0.0297
    128  CG         9.0280  -14.2570  -18.2800 C.3   170  LEU170      0.0022
    129  CD1        9.0220  -13.2000  -17.1910 C.3   170  LEU170      0.0001
    130  CD2        7.8450  -14.0750  -19.2170 C.3   170  LEU170      0.0001
    131  N         12.0550  -16.5280  -24.2500 N.3   173  SER173     -0.1217
    132  CA        11.1160  -15.8740  -25.1560 C.3   173  SER173      0.1889
    133  C         11.7480  -14.6530  -25.8110 C.2   173  SER173      0.2288
    134  O         11.5680  -14.4230  -27.0130 O.2   173  SER173     -0.2866
    135  CB         9.8410  -15.4790  -24.4110 C.3   173  SER173      0.2089
    136  OG         9.1260  -16.6190  -23.9680 O.3   173  SER173     -0.2183
    137  N         14.4790  -15.9170  -28.2970 N.3   176  TYR176     -0.1227
    138  CA        13.8450  -16.4460  -29.5020 C.3   176  TYR176      0.1736
    139  C         13.3950  -15.3220  -30.4230 C.2   176  TYR176      0.2595
    140  O         13.6200  -15.3760  -31.6380 O.2   176  TYR176     -0.2718
    141  CB        12.6610  -17.3350  -29.1240 C.3   176  TYR176      0.0548
    142  CG        11.9290  -17.9340  -30.3020 C.ar  176  TYR176     -0.0200
    143  CD1       12.5310  -18.8950  -31.1030 C.ar  176  TYR176     -0.0009
    144  CD2       10.6300  -17.5480  -30.6060 C.ar  176  TYR176     -0.0009
    145  CE1       11.8610  -19.4510  -32.1760 C.ar  176  TYR176      0.0417
    146  CE2        9.9530  -18.0970  -31.6780 C.ar  176  TYR176      0.0417
    147  CZ        10.5720  -19.0470  -32.4590 C.ar  176  TYR176      0.1957
    148  OH         9.8980  -19.5950  -33.5270 O.3   176  TYR176     -0.2866
    149  N         12.7660  -14.2880  -29.8630 N.am  177  CYS177     -0.1970
    150  CA        12.3020  -13.1800  -30.6890 C.3   177  CYS177      0.1712
    151  C         13.4710  -12.3360  -31.1750 C.2   177  CYS177      0.2296
    152  O         13.4870  -11.8950  -32.3310 O.2   177  CYS177     -0.2864
    153  CB        11.3060  -12.3260  -29.9050 C.3   177  CYS177      0.0983
    154  SG         9.7730  -13.1870  -29.4980 S.3   177  CYS177     -0.0798
    155  N         15.0530  -14.0770  -34.0380 N.3   180  VAL180     -0.1245
    156  CA        14.2070  -13.9660  -35.2220 C.3   180  VAL180      0.1561
    157  C         14.3000  -12.5650  -35.8140 C.2   180  VAL180      0.2260
    158  O         14.5450  -12.3970  -37.0140 O.2   180  VAL180     -0.2867
    159  CB        12.7520  -14.3410  -34.8880 C.3   180  VAL180      0.0252
    160  CG1       11.8300  -13.9340  -36.0260 C.3   180  VAL180      0.0019
    161  CG2       12.6380  -15.8340  -34.6260 C.3   180  VAL180      0.0019
    162  N          6.6080  -12.3240  -39.4910 N.3   208  LEU208     -0.1245
    163  CA         7.6110  -12.8240  -38.5560 C.3   208  LEU208      0.1561
    164  C          8.2750  -11.6800  -37.8020 C.2   208  LEU208      0.2260
    165  O          8.3890  -11.7150  -36.5720 O.2   208  LEU208     -0.2867
    166  CB         8.6590  -13.6530  -39.2990 C.3   208  LEU208      0.0270
    167  CG         8.6270  -15.1670  -39.0880 C.3   208  LEU208      0.0019
    168  CD1        9.8610  -15.8170  -39.6940 C.3   208  LEU208      0.0001
    169  CD2        8.5120  -15.5060  -37.6110 C.3   208  LEU208      0.0001
    170  N          5.5600   -9.7510  -35.4830 N.3   211  VAL211     -0.1231
    171  CA         5.1390  -10.5080  -34.3090 C.3   211  VAL211      0.1692
    172  C          6.3010  -10.6850  -33.3390 C.2   211  VAL211      0.2592
    173  O          6.1420  -10.5190  -32.1230 O.2   211  VAL211     -0.2718
    174  CB         4.5380  -11.8600  -34.7320 C.3   211  VAL211      0.0266
    175  CG1        4.2310  -12.7090  -33.5110 C.3   211  VAL211      0.0020
    176  CG2        3.2760  -11.6420  -35.5520 C.3   211  VAL211      0.0020
    177  N          7.4870  -11.0150  -33.8540 N.am  212  SER212     -0.1952
    178  CA         8.6450  -11.1870  -32.9820 C.3   212  SER212      0.1924
    179  C          9.0090   -9.8840  -32.2810 C.2   212  SER212      0.2314
    180  O          9.2930   -9.8760  -31.0770 O.2   212  SER212     -0.2863
    181  CB         9.8370  -11.7130  -33.7820 C.3   212  SER212      0.2116
    182  OG        10.3490  -10.7120  -34.6430 O.3   212  SER212     -0.2180
    183  N          6.3900   -8.9610  -29.6130 N.3   215  PHE215     -0.1241
    184  CA         6.5170   -9.7620  -28.4010 C.3   215  PHE215      0.1605
    185  C          7.7590   -9.3960  -27.6020 C.2   215  PHE215      0.2264
    186  O          7.7410   -9.4840  -26.3690 O.2   215  PHE215     -0.2867
    187  CB         6.5450  -11.2530  -28.7410 C.3   215  PHE215      0.0534
    188  CG         5.1880  -11.8900  -28.7710 C.ar  215  PHE215     -0.0203
    189  CD1        4.5600  -12.2680  -27.5960 C.ar  215  PHE215     -0.0042
    190  CD2        4.5380  -12.1120  -29.9740 C.ar  215  PHE215     -0.0042
    191  CE1        3.3070  -12.8510  -27.6200 C.ar  215  PHE215     -0.0003
    192  CE2        3.2860  -12.6950  -30.0030 C.ar  215  PHE215     -0.0003
    193  CZ         2.6710  -13.0650  -28.8250 C.ar  215  PHE215     -0.0000
    194  N          7.4850   -8.3930  -23.5780 N.3   219  VAL219     -0.1245
    195  CA         8.0310   -9.2780  -22.5550 C.3   219  VAL219      0.1561
    196  C          9.2570   -8.6720  -21.8880 C.2   219  VAL219      0.2260
    197  O          9.5170   -8.9340  -20.7070 O.2   219  VAL219     -0.2867
    198  CB         8.3390  -10.6590  -23.1670 C.3   219  VAL219      0.0252
    199  CG1        8.9330  -11.5950  -22.1250 C.3   219  VAL219      0.0019
    200  CG2        7.0800  -11.2650  -23.7600 C.3   219  VAL219      0.0019
    201  N          8.2570   -6.9620  -18.8620 N.3   222  LEU222     -0.1245
    202  CA         7.8990   -7.9240  -17.8260 C.3   222  LEU222      0.1561
    203  C          9.1320   -8.6450  -17.2970 C.2   222  LEU222      0.2260
    204  O          9.2280   -8.9250  -16.0970 O.2   222  LEU222     -0.2867
    205  CB         6.8810   -8.9230  -18.3760 C.3   222  LEU222      0.0270
    206  CG         6.3450   -9.9710  -17.4030 C.3   222  LEU222      0.0019
    207  CD1        5.6850   -9.2910  -16.2180 C.3   222  LEU222      0.0001
    208  CD2        5.3700  -10.9030  -18.1060 C.3   222  LEU222      0.0001
@<TRIPOS>BOND
     1    31    29   ar
     2    31    32   ar
     3   168   167    1
     4    29    28   ar
     5   162   163    1
     6    34    32   ar
     7    34    36   ar
     8   166   167    1
     9   166   163    1
    10    32    30   ar
    11   167   169    1
    12    26    25    2
    13   163   164    1
    14    36    35   ar
    15    28    30   ar
    16    28    27    1
    17    30    33   ar
    18   164   165    2
    19    40    39    2
    20    25    24    1
    21    25    37   am
    22    24    27    1
    23    24    23    1
    24    35    33   ar
    25   158   157    2
    26    39    38    1
    27    38    37    1
    28    38    41    1
    29   160   159    1
    30   157   156    1
    31   176   174    1
    32   170   171    1
    33   156   159    1
    34   156   155    1
    35    41    42    1
    36   159   161    1
    37   174   171    1
    38   174   175    1
    39   182   181    1
    40   171   172    1
    41    12    11    2
    42    19    18    2
    43   177   172   am
    44   177   178    1
    45   181   178    1
    46   148   147    1
    47   172   173    2
    48    18    17    1
    49    11    10    1
    50    11    16   am
    51    10     9    1
    52    10    13    1
    53   178   179    1
    54    14    13    1
    55   147   145   ar
    56   147   146   ar
    57   152   151    2
    58   179   180    2
    59    16    17    1
    60    13    15    1
    61    17    20    1
    62   145   143   ar
    63   146   144   ar
    64   140   139    2
    65   151   150    1
    66   143   142   ar
    67    20    21    1
    68    20    22    1
    69   150   153    1
    70   150   149    1
    71   144   142   ar
    72   139   149   am
    73   139   138    1
    74   142   141    1
    75   192   190   ar
    76   192   193   ar
    77   190   188   ar
    78   153   154    1
    79     4     3    2
    80   183   184    1
    81   138   141    1
    82   138   137    1
    83     3     2    1
    84   193   191   ar
    85   188   187    1
    86   188   189   ar
    87   187   184    1
    88   184   185    1
    89     2     1    1
    90     2     5    1
    91    52    50   ar
    92    52    53   ar
    93    50    48   ar
    94   191   189   ar
    95   185   186    2
    96   134   133    2
    97    53    51   ar
    98     7     5    1
    99    48    47    1
   100    48    49   ar
   101    47    44    1
   102     5     6    1
   103     8     6    1
   104    49    51   ar
   105    43    44    1
   106   133   132    1
   107    44    45    1
   108    45    46    2
   109   132   135    1
   110   132   131    1
   111    99   100   ar
   112    99    97   ar
   113   100    98   ar
   114   135   136    1
   115    97    94   ar
   116   200   198    1
   117    98    96   ar
   118   194   195    1
   119   198   195    1
   120   198   199    1
   121    94    96   ar
   122    94    92   ar
   123   120   122   ar
   124   120   118   ar
   125    96    95   ar
   126   195   196    1
   127   122   121   ar
   128   118   117   ar
   129   126   125    2
   130   196   197    2
   131   115   114    2
   132    90    89    2
   133    92    91    1
   134    92    93   ar
   135    95    93   ar
   136    91    88    1
   137   121   119   ar
   138    88    89    1
   139    88    87    1
   140   125   124    1
   141   114   113    1
   142   114   123   am
   143   117   119   ar
   144   117   116    1
   145   124   123    1
   146   124   127    1
   147   113   116    1
   148   113   112    1
   149    83    82    2
   150    87    82   am
   151    82    81    1
   152   130   128    1
   153   127   128    1
   154   201   202    1
   155    84    81    1
   156    84    85    1
   157   205   202    1
   158   205   206    1
   159   128   129    1
   160   208   206    1
   161    81    80    1
   162   202   203    1
   163    79    78    1
   164    85    86    1
   165   206   207    1
   166   203   204    2
   167    86    80    1
   168    80    76   am
   169   104   103    2
   170    77    76    2
   171    76    75    1
   172   109   107   ar
   173   109   111   ar
   174    78    75    1
   175   103   102    1
   176   107   106   ar
   177   111   110   ar
   178   102   101    1
   179   102   105    1
   180    75    74    1
   181   106   105    1
   182   106   108   ar
   183   110   108   ar
   184    74    66   am
   185    63    61   ar
   186    63    62   ar
   187    67    66    2
   188    73    71   ar
   189    73    72   ar
   190    66    65    1
   191    71    69   ar
   192    61    59   ar
   193    62    60   ar
   194    72    70   ar
   195    69    70   ar
   196    69    68    1
   197    59    60   ar
   198    59    58    1
   199    65    68    1
   200    65    64    1
   201    64    56   am
   202    57    56    2
   203    58    55    1
   204    56    55    1
   205    55    54    1
