@<TRIPOS>MOLECULE
tmp/6bmmB01.pdb
 187 182 0 0 0
SMALL
GASTEIGER

@<TRIPOS>ATOM
      1  N         -6.9900   -7.3790  -64.2610 N.3    15  ILE15      -0.1245
      2  CA        -7.5060   -6.6500  -63.1060 C.3    15  ILE15       0.1561
      3  C         -8.2470   -5.3990  -63.5560 C.2    15  ILE15       0.2260
      4  O         -9.3110   -5.0640  -63.0240 O.2    15  ILE15      -0.2867
      5  CB        -6.3640   -6.3130  -62.1290 C.3    15  ILE15       0.0252
      6  CG1       -5.7130   -7.5940  -61.6080 C.3    15  ILE15       0.0019
      7  CG2       -6.8780   -5.4690  -60.9730 C.3    15  ILE15       0.0019
      8  CD1       -6.6810   -8.5320  -60.9220 C.3    15  ILE15       0.0001
      9  N        -11.6580   -6.3440  -64.9130 N.3    18  VAL18      -0.1231
     10  CA       -12.5240   -6.7570  -63.8110 C.3    18  VAL18       0.1692
     11  C        -13.0040   -5.5400  -63.0310 C.2    18  VAL18       0.2591
     12  O        -14.1780   -5.4500  -62.6490 O.2    18  VAL18      -0.2718
     13  CB       -11.7940   -7.7650  -62.9030 C.3    18  VAL18       0.0266
     14  CG1      -12.5690   -7.9830  -61.6140 C.3    18  VAL18       0.0020
     15  CG2      -11.5980   -9.0860  -63.6280 C.3    18  VAL18       0.0020
     16  N        -12.1070   -4.5820  -62.7870 N.am   19  VAL19      -0.1980
     17  CA       -12.4820   -3.3820  -62.0430 C.3    19  VAL19       0.1595
     18  C        -13.4280   -2.5160  -62.8670 C.2    19  VAL19       0.2287
     19  O        -14.3820   -1.9360  -62.3350 O.2    19  VAL19      -0.2864
     20  CB       -11.2210   -2.6100  -61.6140 C.3    19  VAL19       0.0276
     21  CG1      -11.5910   -1.2490  -61.0430 C.3    19  VAL19       0.0022
     22  CG2      -10.4360   -3.4190  -60.5960 C.3    19  VAL19       0.0022
     23  N        -15.5200   -3.6300  -65.1530 N.3    21  TRP21      -0.1227
     24  CA       -16.8030   -4.3230  -65.0850 C.3    21  TRP21       0.1737
     25  C        -17.5080   -4.0450  -63.7640 C.2    21  TRP21       0.2596
     26  O        -18.7200   -3.8030  -63.7360 O.2    21  TRP21      -0.2718
     27  CB       -16.6070   -5.8270  -65.2700 C.3    21  TRP21       0.0564
     28  CG       -17.7810   -6.6260  -64.7870 C.ar   21  TRP21       0.0003
     29  CD1      -18.9380   -6.8710  -65.4650 C.ar   21  TRP21       0.0946
     30  CD2      -17.9220   -7.2640  -63.5100 C.ar   21  TRP21       0.0152
     31  NE1      -19.7860   -7.6310  -64.6960 N.ar   21  TRP21      -0.2442
     32  CE2      -19.1860   -7.8840  -63.4910 C.ar   21  TRP21       0.0810
     33  CE3      -17.0990   -7.3730  -62.3840 C.ar   21  TRP21       0.0012
     34  CZ2      -19.6480   -8.6040  -62.3910 C.ar   21  TRP21       0.0191
     35  CZ3      -17.5590   -8.0880  -61.2930 C.ar   21  TRP21       0.0001
     36  CH2      -18.8220   -8.6940  -61.3050 C.ar   21  TRP21       0.0015
     37  N        -16.7630   -4.0890  -62.6550 N.am   22  SER22      -0.1952
     38  CA       -17.3650   -3.8630  -61.3460 C.3    22  SER22       0.1924
     39  C        -17.9700   -2.4700  -61.2360 C.2    22  SER22       0.2314
     40  O        -18.9840   -2.2880  -60.5530 O.2    22  SER22      -0.2863
     41  CB       -16.3250   -4.0810  -60.2470 C.3    22  SER22       0.2116
     42  OG       -15.3290   -3.0750  -60.2840 O.3    22  SER22      -0.2180
     43  N         -8.8000    3.2160  -54.5020 N.3    58  PHE58      -0.1241
     44  CA        -8.2570    1.9710  -55.0380 C.3    58  PHE58       0.1605
     45  C         -7.4850    2.2160  -56.3290 C.2    58  PHE58       0.2264
     46  O         -6.3150    1.8370  -56.4510 O.2    58  PHE58      -0.2867
     47  CB        -9.3850    0.9620  -55.2640 C.3    58  PHE58       0.0534
     48  CG        -9.0080   -0.1710  -56.1760 C.ar   58  PHE58      -0.0203
     49  CD1       -8.2380   -1.2260  -55.7140 C.ar   58  PHE58      -0.0042
     50  CD2       -9.4230   -0.1800  -57.4970 C.ar   58  PHE58      -0.0042
     51  CE1       -7.8880   -2.2670  -56.5570 C.ar   58  PHE58      -0.0003
     52  CE2       -9.0750   -1.2130  -58.3400 C.ar   58  PHE58      -0.0003
     53  CZ        -8.3090   -2.2600  -57.8700 C.ar   58  PHE58      -0.0000
     54  N          8.8280   -9.1850  -56.8050 N.3   148  HIS148     -0.1241
     55  CA         8.2380   -8.7900  -58.0760 C.3   148  HIS148      0.1621
     56  C          6.7830   -9.2420  -58.1190 C.2   148  HIS148      0.2264
     57  O          6.4940  -10.4390  -58.0790 O.2   148  HIS148     -0.2867
     58  CB         9.0120   -9.3780  -59.2560 C.3   148  HIS148      0.0745
     59  CG         8.4860   -8.9510  -60.5910 C.ar  148  HIS148      0.0817
     60  ND1        8.9640   -7.8450  -61.2610 N.ar  148  HIS148     -0.2268
     61  CD2        7.5140   -9.4740  -61.3760 C.ar  148  HIS148      0.1154
     62  CE1        8.3140   -7.7090  -62.4030 C.ar  148  HIS148      0.1986
     63  NE2        7.4280   -8.6850  -62.4970 N.ar  148  HIS148     -0.2212
     64  N          3.5500   -9.7130  -60.1470 N.3   149  PRO149     -0.2102
     65  CA         2.9840   -9.8040  -61.4970 C.3   149  PRO149      0.1504
     66  C          1.7010   -8.9930  -61.6290 C.2   149  PRO149      0.2575
     67  O          1.3830   -8.5070  -62.7150 O.2   149  PRO149     -0.2718
     68  CB         2.7050  -11.3030  -61.6680 C.3   149  PRO149      0.0282
     69  CG         3.5120  -11.9810  -60.6090 C.3   149  PRO149      0.0208
     70  CD         3.5790  -11.0180  -59.4680 C.3   149  PRO149      0.0893
     71  N          0.9760   -8.8540  -60.5160 N.am  150  TRP150     -0.1977
     72  CA        -0.3130   -8.1700  -60.5430 C.3   150  TRP150      0.1640
     73  C         -0.1680   -6.6900  -60.8740 C.2   150  TRP150      0.2290
     74  O         -1.0950   -6.0880  -61.4290 O.2   150  TRP150     -0.2864
     75  CB        -1.0270   -8.3540  -59.2050 C.3   150  TRP150      0.0576
     76  CG        -1.3110   -9.7900  -58.8830 C.ar  150  TRP150      0.0006
     77  CD1       -0.7550  -10.5320  -57.8820 C.ar  150  TRP150      0.0946
     78  CD2       -2.2080  -10.6630  -59.5800 C.ar  150  TRP150      0.0152
     79  NE1       -1.2580  -11.8110  -57.9060 N.ar  150  TRP150     -0.2442
     80  CE2       -2.1520  -11.9170  -58.9400 C.ar  150  TRP150      0.0810
     81  CE3       -3.0570  -10.5040  -60.6800 C.ar  150  TRP150      0.0012
     82  CZ2       -2.9120  -13.0060  -59.3630 C.ar  150  TRP150      0.0191
     83  CZ3       -3.8100  -11.5860  -61.0990 C.ar  150  TRP150      0.0001
     84  CH2       -3.7320  -12.8210  -60.4420 C.ar  150  TRP150      0.0015
     85  N         -2.6180    0.0290  -51.9290 N.3   166  PHE166     -0.1227
     86  CA        -3.3380   -0.6840  -52.9800 C.3   166  PHE166      0.1736
     87  C         -4.0770   -1.8870  -52.4100 C.2   166  PHE166      0.2595
     88  O         -5.2270   -2.1510  -52.7790 O.2   166  PHE166     -0.2718
     89  CB        -2.3790   -1.1190  -54.0900 C.3   166  PHE166      0.0547
     90  CG        -2.8710   -2.2940  -54.8950 C.ar  166  PHE166     -0.0202
     91  CD1       -4.0630   -2.2240  -55.6030 C.ar  166  PHE166     -0.0042
     92  CD2       -2.1370   -3.4670  -54.9480 C.ar  166  PHE166     -0.0042
     93  CE1       -4.5190   -3.3080  -56.3290 C.ar  166  PHE166     -0.0003
     94  CE2       -2.5830   -4.5510  -55.6850 C.ar  166  PHE166     -0.0003
     95  CZ        -3.7740   -4.4700  -56.3780 C.ar  166  PHE166     -0.0000
     96  N         -3.4340   -2.6260  -51.5050 N.am  167  LEU167     -0.1980
     97  CA        -4.1180   -3.7380  -50.8580 C.3   167  LEU167      0.1596
     98  C         -5.2630   -3.2330  -49.9910 C.2   167  LEU167      0.2287
     99  O         -6.4170   -3.6300  -50.1840 O.2   167  LEU167     -0.2864
    100  CB        -3.1290   -4.5510  -50.0230 C.3   167  LEU167      0.0297
    101  CG        -1.9210   -5.1540  -50.7420 C.3   167  LEU167      0.0022
    102  CD1       -1.0290   -5.9220  -49.7730 C.3   167  LEU167      0.0001
    103  CD2       -2.3560   -6.0360  -51.8970 C.3   167  LEU167      0.0001
    104  N         -8.1640   -2.1680  -51.8290 N.3   170  SER170     -0.1217
    105  CA        -8.8160   -3.3370  -52.4110 C.3   170  SER170      0.1889
    106  C         -9.6890   -4.0410  -51.3790 C.2   170  SER170      0.2288
    107  O        -10.8040   -4.4750  -51.6930 O.2   170  SER170     -0.2866
    108  CB        -7.7740   -4.3040  -52.9700 C.3   170  SER170      0.2089
    109  OG        -7.0120   -3.7010  -53.9990 O.3   170  SER170     -0.2183
    110  N        -12.7110   -1.7480  -50.8490 N.3   173  TYR173     -0.1227
    111  CA       -13.5500   -1.7390  -52.0440 C.3   173  TYR173      0.1736
    112  C        -14.3620   -3.0230  -52.1550 C.2   173  TYR173      0.2595
    113  O        -15.5830   -2.9840  -52.3440 O.2   173  TYR173     -0.2718
    114  CB       -12.6810   -1.5390  -53.2870 C.3   173  TYR173      0.0548
    115  CG       -13.4410   -1.5150  -54.5930 C.ar  173  TYR173     -0.0200
    116  CD1      -14.2370   -0.4300  -54.9370 C.ar  173  TYR173     -0.0009
    117  CD2      -13.3490   -2.5710  -55.4920 C.ar  173  TYR173     -0.0009
    118  CE1      -14.9270   -0.4030  -56.1330 C.ar  173  TYR173      0.0417
    119  CE2      -14.0370   -2.5520  -56.6910 C.ar  173  TYR173      0.0417
    120  CZ       -14.8250   -1.4650  -57.0060 C.ar  173  TYR173      0.1957
    121  OH       -15.5130   -1.4400  -58.1980 O.3   173  TYR173     -0.2866
    122  N        -13.6960   -4.1740  -52.0430 N.am  174  CYS174     -0.1970
    123  CA       -14.4010   -5.4490  -52.1210 C.3   174  CYS174      0.1712
    124  C        -15.3800   -5.6150  -50.9640 C.2   174  CYS174      0.2296
    125  O        -16.4960   -6.1130  -51.1540 O.2   174  CYS174     -0.2864
    126  CB       -13.3980   -6.6020  -52.1520 C.3   174  CYS174      0.0983
    127  SG       -12.4190   -6.7010  -53.6720 S.3   174  CYS174     -0.0798
    128  N        -18.4920   -3.4920  -51.5370 N.3   177  VAL177     -0.1245
    129  CA       -19.3530   -4.0780  -52.5590 C.3   177  VAL177      0.1561
    130  C        -20.1430   -5.2450  -51.9800 C.2   177  VAL177      0.2260
    131  O        -21.3730   -5.2950  -52.0830 O.2   177  VAL177     -0.2867
    132  CB       -18.5220   -4.5080  -53.7820 C.3   177  VAL177      0.0252
    133  CG1      -19.3740   -5.3250  -54.7380 C.3   177  VAL177      0.0019
    134  CG2      -17.9480   -3.2900  -54.4870 C.3   177  VAL177      0.0019
    135  N        -20.9360   -9.8030  -58.8160 N.3   205  LEU205     -0.1245
    136  CA       -20.4440   -8.7350  -57.9500 C.3   205  LEU205      0.1561
    137  C        -20.1920   -9.2500  -56.5420 C.2   205  LEU205      0.2260
    138  O        -19.1860   -8.9070  -55.9130 O.2   205  LEU205     -0.2867
    139  CB       -21.4350   -7.5730  -57.9120 C.3   205  LEU205      0.0270
    140  CG       -21.1790   -6.3960  -58.8530 C.3   205  LEU205      0.0019
    141  CD1      -22.2220   -5.3120  -58.6380 C.3   205  LEU205      0.0001
    142  CD2      -19.7760   -5.8460  -58.6540 C.3   205  LEU205      0.0001
    143  N        -17.2600  -12.3580  -56.8800 N.3   208  VAL208     -0.1231
    144  CA       -15.9280  -11.8850  -57.2570 C.3   208  VAL208      0.1692
    145  C        -15.3360  -11.0170  -56.1520 C.2   208  VAL208      0.2592
    146  O        -14.1670  -11.1690  -55.7780 O.2   208  VAL208     -0.2718
    147  CB       -15.9790  -11.1350  -58.6000 C.3   208  VAL208      0.0266
    148  CG1      -14.6660  -10.4200  -58.8640 C.3   208  VAL208      0.0020
    149  CG2      -16.2970  -12.1030  -59.7330 C.3   208  VAL208      0.0020
    150  N        -16.1360  -10.0920  -55.6140 N.am  209  SER209     -0.1952
    151  CA       -15.6470   -9.2390  -54.5350 C.3   209  SER209      0.1924
    152  C        -15.3290  -10.0480  -53.2860 C.2   209  SER209      0.2314
    153  O        -14.3870   -9.7170  -52.5560 O.2   209  SER209     -0.2863
    154  CB       -16.6680   -8.1460  -54.2190 C.3   209  SER209      0.2116
    155  OG       -17.8030   -8.6850  -53.5630 O.3   209  SER209     -0.2180
    156  N        -11.8910  -11.9120  -54.0430 N.3   212  PHE212     -0.1241
    157  CA       -10.7140  -11.0640  -53.8840 C.3   212  PHE212      0.1605
    158  C        -10.5040  -10.6750  -52.4260 C.2   212  PHE212      0.2264
    159  O         -9.3620  -10.6010  -51.9600 O.2   212  PHE212     -0.2867
    160  CB       -10.8370   -9.8160  -54.7570 C.3   212  PHE212      0.0534
    161  CG       -10.4740  -10.0440  -56.1960 C.ar  212  PHE212     -0.0203
    162  CD1       -9.1460  -10.1070  -56.5870 C.ar  212  PHE212     -0.0042
    163  CD2      -11.4570  -10.1910  -57.1590 C.ar  212  PHE212     -0.0042
    164  CE1       -8.8070  -10.3150  -57.9100 C.ar  212  PHE212     -0.0003
    165  CE2      -11.1240  -10.3990  -58.4830 C.ar  212  PHE212     -0.0003
    166  CZ        -9.7980  -10.4610  -58.8590 C.ar  212  PHE212     -0.0000
    167  N         -8.8190  -13.3940  -50.7060 N.3   215  SER215     -0.1202
    168  CA        -7.4830  -13.5470  -51.2730 C.3   215  SER215      0.2020
    169  C         -6.5360  -12.4700  -50.7570 C.2   215  SER215      0.2618
    170  O         -5.4440  -12.7710  -50.2610 O.2   215  SER215     -0.2717
    171  CB        -7.5580  -13.5160  -52.8000 C.3   215  SER215      0.2103
    172  OG        -8.3900  -14.5530  -53.2900 O.3   215  SER215     -0.2182
    173  N         -6.9390  -11.2020  -50.8650 N.am  216  VAL216     -0.1979
    174  CA        -6.0480  -10.1090  -50.4880 C.3   216  VAL216      0.1595
    175  C         -5.9830   -9.8980  -48.9760 C.2   216  VAL216      0.2287
    176  O         -5.0120   -9.3070  -48.4860 O.2   216  VAL216     -0.2864
    177  CB        -6.4720   -8.8180  -51.2130 C.3   216  VAL216      0.0276
    178  CG1       -5.3980   -7.7560  -51.0970 C.3   216  VAL216      0.0022
    179  CG2       -6.7450   -9.1040  -52.6780 C.3   216  VAL216      0.0022
    180  N         -2.9950  -11.7720  -47.6650 N.3   219  LEU219     -0.1245
    181  CA        -1.8280  -11.0340  -48.1330 C.3   219  LEU219      0.1561
    182  C         -1.6420   -9.7420  -47.3470 C.2   219  LEU219      0.2260
    183  O         -0.5120   -9.3620  -47.0190 O.2   219  LEU219     -0.2867
    184  CB        -1.9630  -10.7460  -49.6290 C.3   219  LEU219      0.0270
    185  CG        -0.7770  -10.0870  -50.3330 C.3   219  LEU219      0.0019
    186  CD1        0.4860  -10.9000  -50.1160 C.3   219  LEU219      0.0001
    187  CD2       -1.0640   -9.9260  -51.8180 C.3   219  LEU219      0.0001
@<TRIPOS>BOND
     1    29    28   ar
     2    29    31   ar
     3    27    24    1
     4    27    28    1
     5    23    24    1
     6    24    25    1
     7     9    10    1
     8    28    30   ar
     9    31    32   ar
    10     1     2    1
    11    10    11    1
    12    10    13    1
    13    25    26    2
    14    25    37   am
    15    15    13    1
    16     3     2    1
    17     3     4    2
    18    30    32   ar
    19    30    33   ar
    20    32    34   ar
    21     2     5    1
    22    11    16   am
    23    11    12    2
    24    13    14    1
    25    18    19    2
    26    18    17    1
    27    16    17    1
    28    67    66    2
    29    37    38    1
    30    63    62   ar
    31    63    61   ar
    32    62    60   ar
    33    34    36   ar
    34    33    35   ar
    35     5     6    1
    36     5     7    1
    37    17    20    1
    38    68    65    1
    39    68    69    1
    40    66    65    1
    41    66    71   am
    42    20    21    1
    43    20    22    1
    44     6     8    1
    45    65    64    1
    46    74    73    2
    47    61    59   ar
    48    38    39    1
    49    38    41    1
    50    36    35   ar
    51    60    59   ar
    52    39    40    2
    53    83    81   ar
    54    83    84   ar
    55    73    72    1
    56    81    78   ar
    57    69    70    1
    58    59    58    1
    59    72    71    1
    60    72    75    1
    61    84    82   ar
    62    42    41    1
    63    64    70    1
    64   149   147    1
    65    78    80   ar
    66    78    76   ar
    67    82    80   ar
    68    58    55    1
    69    75    76    1
    70    80    79   ar
    71    76    77   ar
    72   148   147    1
    73   166   165   ar
    74   166   164   ar
    75   140   142    1
    76   140   141    1
    77   140   139    1
    78   135   136    1
    79   147   144    1
    80   165   163   ar
    81    52    53   ar
    82    52    50   ar
    83   121   120    1
    84    56    57    2
    85    56    55    1
    86    55    54    1
    87   136   139    1
    88   136   137    1
    89   164   162   ar
    90    79    77   ar
    91    53    51   ar
    92    50    48   ar
    93   144   143    1
    94   144   145    1
    95   163   161   ar
    96   120   119   ar
    97   120   118   ar
    98   119   117   ar
    99   162   161   ar
   100    51    49   ar
   101   137   138    2
   102    46    45    2
   103    95    93   ar
   104    95    94   ar
   105    93    91   ar
   106    45    44    1
   107   161   160    1
   108    48    49   ar
   109    48    47    1
   110   145   146    2
   111   145   150   am
   112   118   116   ar
   113    94    92   ar
   114   150   151    1
   115    91    90   ar
   116   117   115   ar
   117    47    44    1
   118    44    43    1
   119    92    90   ar
   120   116   115   ar
   121    90    89    1
   122   160   157    1
   123   133   132    1
   124   115   114    1
   125   151   154    1
   126   151   152    1
   127   134   132    1
   128   154   155    1
   129    89    86    1
   130   156   157    1
   131   109   108    1
   132   157   158    1
   133   132   129    1
   134   127   126    1
   135   172   171    1
   136   114   111    1
   137   152   153    2
   138    86    87    1
   139    86    85    1
   140   108   105    1
   141   171   168    1
   142    88    87    2
   143   179   177    1
   144   129   130    1
   145   129   128    1
   146   158   159    2
   147   105   104    1
   148   105   106    1
   149    87    96   am
   150   113   112    2
   151   112   111    1
   152   112   122   am
   153   126   123    1
   154   123   122    1
   155   123   124    1
   156   131   130    2
   157   111   110    1
   158   103   101    1
   159   187   185    1
   160   107   106    2
   161    96    97    1
   162   168   169    1
   163   168   167    1
   164   177   178    1
   165   177   174    1
   166   125   124    2
   167   173   169   am
   168   173   174    1
   169    97   100    1
   170    97    98    1
   171   169   170    2
   172   101   100    1
   173   101   102    1
   174   174   175    1
   175   185   186    1
   176   185   184    1
   177    99    98    2
   178   184   181    1
   179   175   176    2
   180   181   180    1
   181   181   182    1
   182   182   183    2
