@<TRIPOS>MOLECULE
tmp/6bmrA00.pdb
 140 136 0 0 0
SMALL
GASTEIGER

@<TRIPOS>ATOM
      1  N         22.6390   32.4570   26.7640 N.3    69  PHE69      -0.1241
      2  CA        21.7680   33.4090   26.0960 C.3    69  PHE69       0.1605
      3  C         21.3900   32.9970   24.6850 C.2    69  PHE69       0.2264
      4  O         22.1140   32.2240   24.0480 O.2    69  PHE69      -0.2867
      5  CB        22.4360   34.7980   26.0960 C.3    69  PHE69       0.0534
      6  CG        22.4980   35.4050   27.4680 C.ar   69  PHE69      -0.0203
      7  CD1       21.4250   36.1400   27.9700 C.ar   69  PHE69      -0.0042
      8  CD2       23.6020   35.1970   28.2870 C.ar   69  PHE69      -0.0042
      9  CE1       21.4720   36.6820   29.2520 C.ar   69  PHE69      -0.0003
     10  CE2       23.6280   35.6980   29.5800 C.ar   69  PHE69      -0.0003
     11  CZ        22.5750   36.4650   30.0460 C.ar   69  PHE69      -0.0000
     12  N         20.8380   40.1400   23.3850 N.3    74  GLU74      -0.1245
     13  CA        20.0560   39.7300   24.5710 C.3    74  GLU74       0.1567
     14  C         20.9490   39.6160   25.8100 C.2    74  GLU74       0.2260
     15  O         20.5320   39.9840   26.9190 O.2    74  GLU74      -0.2867
     16  CB        19.3100   38.3970   24.3170 C.3    74  GLU74       0.0388
     17  CG        18.0050   38.6030   23.5610 C.3    74  GLU74       0.1160
     18  CD        17.0390   37.4430   23.4290 C.2    74  GLU74       0.3649
     19  OE1       17.3140   36.3630   23.9970 O.co2  74  GLU74      -0.2457
     20  OE2       15.9760   37.6300   22.7920 O.co2  74  GLU74      -0.2457
     21  N         22.0320   43.3530   26.6730 N.3    77  GLN77      -0.1231
     22  CA        20.8500   43.9970   27.2770 C.3    77  GLN77       0.1698
     23  C         20.6760   43.5560   28.7330 C.2    77  GLN77       0.2592
     24  O         20.4310   44.3880   29.6290 O.2    77  GLN77      -0.2718
     25  CB        19.5840   43.6590   26.4770 C.3    77  GLN77       0.0381
     26  CG        18.3600   44.4270   26.9500 C.3    77  GLN77       0.0905
     27  CD        17.0500   43.9040   26.4270 C.2    77  GLN77       0.2608
     28  OE1       16.7760   42.6940   26.4190 O.2    77  GLN77      -0.2717
     29  NE2       16.1750   44.8320   26.0600 N.am   77  GLN77      -0.0878
     30  N         20.8220   42.2450   28.9750 N.am   78  TYR78      -0.1976
     31  CA        20.6630   41.6990   30.3200 C.3    78  TYR78       0.1639
     32  C         21.7020   42.2350   31.2960 C.2    78  TYR78       0.2290
     33  O         21.3440   42.6000   32.4120 O.2    78  TYR78      -0.2864
     34  CB        20.6750   40.1580   30.2900 C.3    78  TYR78       0.0560
     35  CG        20.5450   39.5380   31.6560 C.ar   78  TYR78      -0.0198
     36  CD1       19.2980   39.3370   32.2330 C.ar   78  TYR78      -0.0009
     37  CD2       21.6700   39.1550   32.3790 C.ar   78  TYR78      -0.0009
     38  CE1       19.1750   38.8370   33.5220 C.ar   78  TYR78       0.0417
     39  CE2       21.5560   38.5980   33.6480 C.ar   78  TYR78       0.0417
     40  CZ        20.3050   38.4450   34.2170 C.ar   78  TYR78       0.1957
     41  OH        20.1700   37.8790   35.4550 O.3    78  TYR78      -0.2866
     42  N         21.5600   45.8620   32.2370 N.3    81  GLU81      -0.1231
     43  CA        20.4330   46.0890   33.1260 C.3    81  GLU81       0.1699
     44  C         20.6090   45.4210   34.4910 C.2    81  GLU81       0.2592
     45  O         20.0970   45.9460   35.4720 O.2    81  GLU81      -0.2718
     46  CB        19.1230   45.6500   32.4370 C.3    81  GLU81       0.0402
     47  CG        17.8410   45.7300   33.2580 C.3    81  GLU81       0.1161
     48  CD        17.4710   47.0660   33.8720 C.2    81  GLU81       0.3649
     49  OE1       17.5600   48.1020   33.1730 O.co2  81  GLU81      -0.2457
     50  OE2       17.0320   47.0630   35.0440 O.co2  81  GLU81      -0.2457
     51  N         21.3210   44.2930   34.5710 N.am   82  HIS82      -0.1976
     52  CA        21.4770   43.5450   35.8380 C.3    82  HIS82       0.1656
     53  C         22.9190   43.4970   36.3260 C.2    82  HIS82       0.2291
     54  O         23.6600   42.5680   35.9960 O.2    82  HIS82      -0.2864
     55  CB        20.8500   42.1260   35.7440 C.3    82  HIS82       0.0771
     56  CG        19.4110   42.1190   35.2870 C.ar   82  HIS82       0.0820
     57  ND1       19.0770   42.2060   33.9430 N.ar   82  HIS82      -0.2267
     58  CD2       18.2690   42.0740   36.0130 C.ar   82  HIS82       0.1154
     59  CE1       17.7550   42.1990   33.8970 C.ar   82  HIS82       0.1986
     60  NE2       17.2220   42.1250   35.1160 N.ar   82  HIS82      -0.2212
     61  N         14.4190   42.6480   20.3060 N.3   239  LEU239     -0.1231
     62  CA        14.4350   42.5490   21.7580 C.3   239  LEU239      0.1693
     63  C         13.0450   42.7910   22.3140 C.2   239  LEU239      0.2592
     64  O         12.8390   43.7460   23.0720 O.2   239  LEU239     -0.2718
     65  CB        15.4980   43.4930   22.3960 C.3   239  LEU239      0.0284
     66  CG        16.9710   43.1650   22.0410 C.3   239  LEU239      0.0019
     67  CD1       17.8770   44.3820   22.2820 C.3   239  LEU239      0.0001
     68  CD2       17.4810   41.9530   22.8220 C.3   239  LEU239      0.0001
     69  N         12.0830   41.9230   21.9320 N.am  240  TYR240     -0.1962
     70  CA        10.6870   41.9740   22.3990 C.3   240  TYR240      0.1771
     71  C         10.6000   41.5440   23.8520 C.2   240  TYR240      0.2620
     72  O         11.5500   40.9240   24.3710 O.2   240  TYR240     -0.2715
     73  CB         9.7650   41.1110   21.5130 C.3   240  TYR240      0.0574
     74  CG         9.8560   41.4470   20.0350 C.ar  240  TYR240     -0.0198
     75  CD1        9.6070   42.7360   19.5760 C.ar  240  TYR240     -0.0009
     76  CD2       10.2480   40.4900   19.1050 C.ar  240  TYR240     -0.0009
     77  CE1        9.7370   43.0590   18.2280 C.ar  240  TYR240      0.0417
     78  CE2       10.3820   40.8030   17.7590 C.ar  240  TYR240      0.0417
     79  CZ        10.1190   42.0840   17.3230 C.ar  240  TYR240      0.1957
     80  OH        10.2600   42.3820   15.9890 O.3   240  TYR240     -0.2866
     81  N          9.4880   41.9110   24.5460 N.am  241  SER241     -0.1936
     82  CA         9.3690   41.5020   25.9460 C.3   241  SER241      0.2055
     83  C          9.2190   40.0100   26.1050 C.2   241  SER241      0.2643
     84  O          8.5500   39.3360   25.3070 O.2   241  SER241     -0.2714
     85  CB         8.2740   42.2580   26.7050 C.3   241  SER241      0.2130
     86  OG         6.9700   41.9150   26.2880 O.3   241  SER241     -0.2179
     87  N          9.9040   39.5080   27.1390 N.am  242  ARG242     -0.1963
     88  CA         9.9320   38.1350   27.5940 C.3   242  ARG242      0.1729
     89  C          9.6220   38.2110   29.1150 C.2   242  ARG242      0.2616
     90  O         10.2550   37.5220   29.9150 O.2   242  ARG242     -0.2715
     91  CB        11.3140   37.5050   27.3050 C.3   242  ARG242      0.0348
     92  CG        11.6690   37.3300   25.8040 C.3   242  ARG242      0.0492
     93  CD        13.1440   37.6490   25.5920 C.3   242  ARG242      0.2205
     94  NE        13.3510   39.0980   25.5070 N.pl3 242  ARG242     -0.0865
     95  CZ        14.4580   39.7560   25.8540 C.cat 242  ARG242      0.5346
     96  NH1       14.5250   41.0690   25.7070 N.pl3 242  ARG242      0.1354
     97  NH2       15.5140   39.1020   26.3280 N.pl3 242  ARG242      0.1354
     98  N          8.5910   39.0280   29.4840 N.am  243  LYS243     -0.1977
     99  CA         8.1030   39.2440   30.8480 C.3   243  LYS243      0.1596
    100  C          7.4380   38.0340   31.5040 C.2   243  LYS243      0.2287
    101  O          7.6080   37.8540   32.7110 O.2   243  LYS243     -0.2864
    102  CB         7.1530   40.4490   30.9080 C.3   243  LYS243      0.0298
    103  CG         7.8490   41.8040   30.9490 C.3   243  LYS243      0.0038
    104  CD         6.8190   42.9440   30.8290 C.3   243  LYS243      0.0206
    105  CE         7.2840   44.1830   31.5580 C.3   243  LYS243      0.1093
    106  NZ         6.7430   45.4250   30.9440 N.3   243  LYS243     -0.1314
    107  N          9.6790   35.4580   33.1150 N.3   246  GLN246     -0.1245
    108  CA        10.3620   36.0570   34.2610 C.3   246  GLN246      0.1566
    109  C          9.6040   35.9130   35.5790 C.2   246  GLN246      0.2260
    110  O         10.2330   35.9540   36.6370 O.2   246  GLN246     -0.2867
    111  CB        10.6380   37.5360   33.9780 C.3   246  GLN246      0.0367
    112  CG        11.8570   37.7380   33.1160 C.3   246  GLN246      0.0905
    113  CD        11.9540   39.1350   32.5840 C.2   246  GLN246      0.2608
    114  OE1       11.8850   40.1280   33.3230 O.2   246  GLN246     -0.2717
    115  NE2       12.2300   39.2290   31.3070 N.am  246  GLN246     -0.0878
    116  N         17.4620   29.7930   32.4000 N.3   257  LYS257     -0.1231
    117  CA        16.8380   30.9550   33.0530 C.3   257  LYS257      0.1693
    118  C         16.7310   32.2070   32.1820 C.2   257  LYS257      0.2592
    119  O         15.7300   32.9220   32.2900 O.2   257  LYS257     -0.2718
    120  CB        17.5250   31.2890   34.4030 C.3   257  LYS257      0.0285
    121  CG        18.9740   31.8110   34.3430 C.3   257  LYS257      0.0035
    122  CD        19.6300   31.8660   35.7280 C.3   257  LYS257      0.0206
    123  CE        19.5600   33.2260   36.3910 C.3   257  LYS257      0.1093
    124  NZ        20.0510   33.2090   37.8030 N.3   257  LYS257     -0.1314
    125  N         17.7360   32.4600   31.3110 N.am  258  ASN258     -0.1974
    126  CA        17.7660   33.6550   30.4620 C.3   258  ASN258      0.1688
    127  C         17.3700   33.4080   29.0040 C.2   258  ASN258      0.2292
    128  O         17.3830   34.3330   28.2140 O.2   258  ASN258     -0.2864
    129  CB        19.1370   34.3650   30.5630 C.3   258  ASN258      0.1181
    130  CG        19.4940   34.8330   31.9650 C.2   258  ASN258      0.2629
    131  OD1       18.6430   35.0930   32.8220 O.2   258  ASN258     -0.2716
    132  ND2       20.7660   34.9380   32.2400 N.am  258  ASN258     -0.0877
    133  N         14.2830   32.7510   27.0500 N.3   260  LEU260     -0.1245
    134  CA        12.8400   32.8650   27.2920 C.3   260  LEU260      0.1561
    135  C         11.9790   33.0460   26.0530 C.2   260  LEU260      0.2260
    136  O         12.4740   33.5130   25.0190 O.2   260  LEU260     -0.2867
    137  CB        12.5850   34.0330   28.2970 C.3   260  LEU260      0.0270
    138  CG        13.3130   33.9470   29.6700 C.3   260  LEU260      0.0019
    139  CD1       13.2830   35.2590   30.4020 C.3   260  LEU260      0.0001
    140  CD2       12.8020   32.8270   30.5140 C.3   260  LEU260      0.0001
@<TRIPOS>BOND
     1    80    79    1
     2    79    78   ar
     3    79    77   ar
     4    78    76   ar
     5    77    75   ar
     6    76    74   ar
     7    75    74   ar
     8    74    73    1
     9    61    62    1
    10    73    70    1
    11    62    63    1
    12    62    65    1
    13    69    63   am
    14    69    70    1
    15    66    67    1
    16    66    65    1
    17    66    68    1
    18    63    64    2
    19    70    71    1
    20    20    18   ar
    21    12    13    1
    22    18    17    1
    23    18    19   ar
    24    17    16    1
    25    71    72    2
    26    71    81   am
    27     4     3    2
    28    16    13    1
    29    81    82    1
    30    13    14    1
    31     3     2    1
    32   136   135    2
    33    84    83    2
    34    94    93    1
    35    94    95    2
    36    93    92    1
    37    96    95    1
    38    92    91    1
    39    14    15    2
    40    95    97    1
    41    82    83    1
    42    82    85    1
    43   135   134    1
    44    29    27   am
    45     5     2    1
    46     5     6    1
    47     2     1    1
    48    83    87   am
    49    86    85    1
    50    28    27    2
    51    27    26    1
    52    25    26    1
    53    25    22    1
    54    21    22    1
    55   133   134    1
    56    87    88    1
    57    22    23    1
    58   134   137    1
    59    91    88    1
    60     6     7   ar
    61     6     8   ar
    62    88    89    1
    63     7     9   ar
    64   128   127    2
    65     8    10   ar
    66   137   138    1
    67    23    30   am
    68    23    24    2
    69    30    31    1
    70   127   126    1
    71    89    98   am
    72    89    90    2
    73     9    11   ar
    74    98    99    1
    75    10    11   ar
    76   138   139    1
    77   138   140    1
    78    34    31    1
    79    34    35    1
    80    31    32    1
    81   126   129    1
    82   126   125    1
    83   129   130    1
    84   104   103    1
    85   104   105    1
    86    99   102    1
    87    99   100    1
    88   102   103    1
    89   106   105    1
    90    32    33    2
    91   115   113   am
    92   125   118   am
    93   100   101    2
    94    35    36   ar
    95    35    37   ar
    96   130   132   am
    97   130   131    2
    98   118   119    2
    99   118   117    1
   100    36    38   ar
   101    42    43    1
   102    37    39   ar
   103   116   117    1
   104    46    43    1
   105    46    47    1
   106   113   112    1
   107   113   114    2
   108   117   120    1
   109   107   108    1
   110   112   111    1
   111    43    44    1
   112    49    48   ar
   113    47    48    1
   114    38    40   ar
   115    39    40   ar
   116    48    50   ar
   117    59    57   ar
   118    59    60   ar
   119    57    56   ar
   120   111   108    1
   121    40    41    1
   122   108   109    1
   123   121   120    1
   124   121   122    1
   125    44    51   am
   126    44    45    2
   127    51    52    1
   128    60    58   ar
   129    56    55    1
   130    56    58   ar
   131   109   110    2
   132   122   123    1
   133    55    52    1
   134    52    53    1
   135    54    53    2
   136   123   124    1
