@<TRIPOS>MOLECULE
tmp/6bmsB04.pdb
 192 185 0 0 0
SMALL
GASTEIGER

@<TRIPOS>ATOM
      1  N        -42.5070   -5.2530  -26.7530 N.3    14  ILE14      -0.1245
      2  CA       -41.6920   -5.7000  -25.6230 C.3    14  ILE14       0.1561
      3  C        -40.2510   -5.2310  -25.7870 C.2    14  ILE14       0.2260
      4  O        -39.6410   -4.6960  -24.8520 O.2    14  ILE14      -0.2867
      5  CB       -41.7750   -7.2300  -25.4750 C.3    14  ILE14       0.0252
      6  CG1      -43.2100   -7.6620  -25.1660 C.3    14  ILE14       0.0019
      7  CG2      -40.8260   -7.7100  -24.3880 C.3    14  ILE14       0.0019
      8  CD1      -43.7660   -7.0700  -23.8890 C.3    14  ILE14       0.0001
      9  N        -39.8950   -1.4560  -25.1180 N.3    17  VAL17      -0.1231
     10  CA       -39.9580   -1.1210  -23.6960 C.3    17  VAL17       0.1692
     11  C        -38.6710   -1.5350  -22.9900 C.2    17  VAL17       0.2591
     12  O        -38.1500   -0.8070  -22.1340 O.2    17  VAL17      -0.2718
     13  CB       -41.2000   -1.7660  -23.0530 C.3    17  VAL17       0.0266
     14  CG1      -41.1260   -1.6860  -21.5390 C.3    17  VAL17       0.0020
     15  CG2      -42.4640   -1.0900  -23.5600 C.3    17  VAL17       0.0020
     16  N        -38.1200   -2.6930  -23.3590 N.am   18  VAL18      -0.1980
     17  CA       -36.9150   -3.1900  -22.6980 C.3    18  VAL18       0.1595
     18  C        -35.7150   -2.3100  -23.0310 C.2    18  VAL18       0.2287
     19  O        -34.9460   -1.9230  -22.1430 O.2    18  VAL18      -0.2864
     20  CB       -36.6660   -4.6590  -23.0800 C.3    18  VAL18       0.0276
     21  CG1      -35.2630   -5.0860  -22.6800 C.3    18  VAL18       0.0022
     22  CG2      -37.7050   -5.5420  -22.4230 C.3    18  VAL18       0.0022
     23  N        -36.0140    1.0080  -21.2650 N.3    21  SER21      -0.1217
     24  CA       -35.6580    0.8870  -19.8560 C.3    21  SER21       0.1889
     25  C        -34.1540    0.7110  -19.6670 C.2    21  SER21       0.2288
     26  O        -33.5980    1.1780  -18.6640 O.2    21  SER21      -0.2866
     27  CB       -36.4220   -0.2750  -19.2280 C.3    21  SER21       0.2089
     28  OG       -36.0850   -1.5030  -19.8460 O.3    21  SER21      -0.2183
     29  N        -32.2930  -11.7700  -20.0270 N.3    52  PHE52      -0.1241
     30  CA       -33.5860  -11.4800  -20.6390 C.3    52  PHE52       0.1605
     31  C        -33.5240  -11.6480  -22.1510 C.2    52  PHE52       0.2264
     32  O        -34.3180  -12.3890  -22.7400 O.2    52  PHE52      -0.2867
     33  CB       -34.0490  -10.0640  -20.2850 C.3    52  PHE52       0.0534
     34  CG       -35.3350   -9.6690  -20.9610 C.ar   52  PHE52      -0.0203
     35  CD1      -35.3320   -9.1050  -22.2300 C.ar   52  PHE52      -0.0042
     36  CD2      -36.5500   -9.8850  -20.3350 C.ar   52  PHE52      -0.0042
     37  CE1      -36.5150   -8.7620  -22.8540 C.ar   52  PHE52      -0.0003
     38  CE2      -37.7350   -9.5380  -20.9520 C.ar   52  PHE52      -0.0003
     39  CZ       -37.7190   -8.9780  -22.2130 C.ar   52  PHE52      -0.0000
     40  N        -49.1250  -23.6770  -26.2100 N.3   141  HIS141     -0.1241
     41  CA       -50.0060  -22.6860  -26.8270 C.3   141  HIS141      0.1621
     42  C        -49.2430  -21.8130  -27.8080 C.2   141  HIS141      0.2264
     43  O        -48.0370  -21.6160  -27.6520 O.2   141  HIS141     -0.2867
     44  CB       -50.6620  -21.7910  -25.7710 C.3   141  HIS141      0.0745
     45  CG       -49.6890  -20.9570  -24.9970 C.ar  141  HIS141      0.0817
     46  ND1      -48.8610  -21.4860  -24.0300 N.ar  141  HIS141     -0.2268
     47  CD2      -49.4100  -19.6320  -25.0450 C.ar  141  HIS141      0.1154
     48  CE1      -48.1140  -20.5240  -23.5170 C.ar  141  HIS141      0.1986
     49  NE2      -48.4280  -19.3890  -24.1150 N.ar  141  HIS141     -0.2212
     50  N        -48.0200  -18.3830  -28.8730 N.3   143  SER143     -0.1203
     51  CA       -47.7970  -17.1480  -28.1350 C.3   143  SER143      0.2005
     52  C        -47.5670  -15.9950  -29.1020 C.2   143  SER143      0.2461
     53  O        -46.5610  -15.9950  -29.8380 O.2   143  SER143     -0.2732
     54  CB       -46.6120  -17.2890  -27.1780 C.3   143  SER143      0.2103
     55  OG       -46.2850  -16.0390  -26.5860 O.3   143  SER143     -0.2182
     56  N        -48.4670  -15.0080  -29.1470 N.am  144  PRO144     -0.2717
     57  CA       -48.1820  -13.7950  -29.9280 C.3   144  PRO144      0.1535
     58  C        -47.0120  -13.0050  -29.3790 C.2   144  PRO144      0.2599
     59  O        -46.3770  -12.2500  -30.1250 O.2   144  PRO144     -0.2715
     60  CB       -49.4920  -12.9980  -29.8260 C.3   144  PRO144      0.0310
     61  CG       -50.5340  -14.0080  -29.4350 C.3   144  PRO144      0.0237
     62  CD       -49.8200  -14.9870  -28.5630 C.3   144  PRO144      0.0939
     63  N        -46.7010  -13.1660  -28.0920 N.am  145  TRP145     -0.1960
     64  CA       -45.6950  -12.3300  -27.4490 C.3   145  TRP145      0.1771
     65  C        -44.2750  -12.7720  -27.7710 C.2   145  TRP145      0.2619
     66  O        -43.3570  -11.9450  -27.7520 O.2   145  TRP145     -0.2715
     67  CB       -45.9350  -12.3140  -25.9420 C.3   145  TRP145      0.0590
     68  CG       -47.2670  -11.7350  -25.6130 C.ar  145  TRP145      0.0006
     69  CD1      -48.4130  -12.4170  -25.3300 C.ar  145  TRP145      0.0946
     70  CD2      -47.6040  -10.3450  -25.5680 C.ar  145  TRP145      0.0152
     71  NE1      -49.4410  -11.5360  -25.0940 N.ar  145  TRP145     -0.2442
     72  CE2      -48.9700  -10.2570  -25.2350 C.ar  145  TRP145      0.0810
     73  CE3      -46.8810   -9.1650  -25.7680 C.ar  145  TRP145      0.0012
     74  CZ2      -49.6270   -9.0370  -25.0970 C.ar  145  TRP145      0.0191
     75  CZ3      -47.5350   -7.9550  -25.6310 C.ar  145  TRP145      0.0001
     76  CH2      -48.8940   -7.9000  -25.2990 C.ar  145  TRP145      0.0015
     77  N        -44.0670  -14.0550  -28.0610 N.am  146  VAL146     -0.1977
     78  CA       -42.8210  -14.5030  -28.6660 C.3   146  VAL146      0.1596
     79  C        -43.0010  -14.7960  -30.1510 C.2   146  VAL146      0.2287
     80  O        -42.0830  -15.3200  -30.7910 O.2   146  VAL146     -0.2864
     81  CB       -42.2380  -15.7210  -27.9290 C.3   146  VAL146      0.0276
     82  CG1      -41.9210  -15.3680  -26.4810 C.3   146  VAL146      0.0022
     83  CG2      -43.1870  -16.9010  -28.0040 C.3   146  VAL146      0.0022
     84  N        -39.0910  -20.5400  -22.6130 N.3   158  PHE158     -0.1241
     85  CA       -40.2370  -19.6950  -22.2940 C.3   158  PHE158      0.1605
     86  C        -40.3260  -19.4350  -20.7930 C.2   158  PHE158      0.2264
     87  O        -40.5120  -18.2920  -20.3540 O.2   158  PHE158     -0.2867
     88  CB       -41.5100  -20.3650  -22.8190 C.3   158  PHE158      0.0534
     89  CG       -42.7800  -19.6400  -22.4750 C.ar  158  PHE158     -0.0203
     90  CD1      -43.1550  -18.4980  -23.1660 C.ar  158  PHE158     -0.0042
     91  CD2      -43.6140  -20.1200  -21.4770 C.ar  158  PHE158     -0.0042
     92  CE1      -44.3310  -17.8390  -22.8570 C.ar  158  PHE158     -0.0003
     93  CE2      -44.7900  -19.4670  -21.1610 C.ar  158  PHE158     -0.0003
     94  CZ       -45.1500  -18.3240  -21.8520 C.ar  158  PHE158     -0.0000
     95  N        -37.6330  -17.1760  -19.6850 N.3   161  PHE161     -0.1227
     96  CA       -37.9530  -15.8280  -20.1410 C.3   161  PHE161      0.1736
     97  C        -38.9350  -15.1510  -19.1950 C.2   161  PHE161      0.2595
     98  O        -38.7960  -13.9590  -18.8890 O.2   161  PHE161     -0.2718
     99  CB       -38.5080  -15.8880  -21.5640 C.3   161  PHE161      0.0547
    100  CG       -39.2720  -14.6650  -21.9730 C.ar  161  PHE161     -0.0202
    101  CD1      -38.6420  -13.4360  -22.0580 C.ar  161  PHE161     -0.0042
    102  CD2      -40.6190  -14.7470  -22.2840 C.ar  161  PHE161     -0.0042
    103  CE1      -39.3430  -12.3090  -22.4370 C.ar  161  PHE161     -0.0003
    104  CE2      -41.3260  -13.6250  -22.6660 C.ar  161  PHE161     -0.0003
    105  CZ       -40.6870  -12.4040  -22.7440 C.ar  161  PHE161     -0.0000
    106  N        -39.9280  -15.9000  -18.7100 N.am  162  LEU162     -0.1980
    107  CA       -40.8340  -15.3520  -17.7050 C.3   162  LEU162      0.1596
    108  C        -40.0790  -14.9670  -16.4360 C.2   162  LEU162      0.2287
    109  O        -40.2450  -13.8570  -15.9120 O.2   162  LEU162     -0.2864
    110  CB       -41.9410  -16.3610  -17.3930 C.3   162  LEU162      0.0297
    111  CG       -42.8890  -16.7110  -18.5410 C.3   162  LEU162      0.0022
    112  CD1      -44.0720  -17.5140  -18.0280 C.3   162  LEU162      0.0001
    113  CD2      -43.3620  -15.4560  -19.2550 C.3   162  LEU162      0.0001
    114  N        -37.8480  -11.9810  -16.9350 N.3   165  SER165     -0.1217
    115  CA       -38.7030  -10.8080  -17.0830 C.3   165  SER165      0.1889
    116  C        -39.1680  -10.2980  -15.7240 C.2   165  SER165      0.2288
    117  O        -39.2120   -9.0840  -15.4870 O.2   165  SER165     -0.2866
    118  CB       -39.9040  -11.1380  -17.9700 C.3   165  SER165      0.2089
    119  OG       -39.4980  -11.4770  -19.2830 O.3   165  SER165     -0.2183
    120  N        -36.1210   -8.6620  -13.9050 N.3   168  TYR168     -0.1227
    121  CA       -35.8700   -7.3690  -14.5370 C.3   168  TYR168      0.1736
    122  C        -36.9000   -6.3320  -14.0970 C.2   168  TYR168      0.2595
    123  O        -36.5490   -5.2010  -13.7250 O.2   168  TYR168     -0.2718
    124  CB       -35.8800   -7.5500  -16.0560 C.3   168  TYR168      0.0548
    125  CG       -35.3330   -6.3930  -16.8550 C.ar  168  TYR168     -0.0200
    126  CD1      -33.9690   -6.1410  -16.9050 C.ar  168  TYR168     -0.0009
    127  CD2      -36.1790   -5.5760  -17.5930 C.ar  168  TYR168     -0.0009
    128  CE1      -33.4650   -5.0900  -17.6480 C.ar  168  TYR168      0.0417
    129  CE2      -35.6840   -4.5310  -18.3440 C.ar  168  TYR168      0.0417
    130  CZ       -34.3280   -4.2860  -18.3630 C.ar  168  TYR168      0.1957
    131  OH       -33.8360   -3.2380  -19.1070 O.3   168  TYR168     -0.2866
    132  N        -38.1810   -6.7150  -14.1160 N.am  169  CYS169     -0.1970
    133  CA       -39.2480   -5.8220  -13.6720 C.3   169  CYS169      0.1712
    134  C        -39.0090   -5.3400  -12.2470 C.2   169  CYS169      0.2296
    135  O        -39.1360   -4.1450  -11.9530 O.2   169  CYS169     -0.2864
    136  CB       -40.5980   -6.5330  -13.7720 C.3   169  CYS169      0.0983
    137  SG       -41.3410   -6.5150  -15.4140 S.3   169  CYS169     -0.0798
    138  N        -36.0970   -2.7320  -12.0820 N.3   172  ILE172     -0.1245
    139  CA       -36.3970   -1.3850  -12.5590 C.3   172  ILE172      0.1561
    140  C        -37.4010   -0.6950  -11.6460 C.2   172  ILE172      0.2260
    141  O        -37.2410    0.4860  -11.3110 O.2   172  ILE172     -0.2867
    142  CB       -36.8840   -1.4370  -14.0150 C.3   172  ILE172      0.0252
    143  CG1      -35.6790   -1.5450  -14.9380 C.3   172  ILE172      0.0019
    144  CG2      -37.7100   -0.2080  -14.3590 C.3   172  ILE172      0.0019
    145  CD1      -36.0320   -1.9800  -16.2930 C.3   172  ILE172      0.0001
    146  N        -42.0650    4.6740  -16.4200 N.3   195  LEU195     -0.1245
    147  CA       -41.3400    3.4070  -16.3810 C.3   195  LEU195      0.1561
    148  C        -41.7830    2.5560  -15.1990 C.2   195  LEU195      0.2260
    149  O        -42.1490    1.3850  -15.3650 O.2   195  LEU195     -0.2867
    150  CB       -39.8330    3.6660  -16.3120 C.3   195  LEU195      0.0270
    151  CG       -38.9920    3.5190  -17.5800 C.3   195  LEU195      0.0019
    152  CD1      -37.5670    3.1760  -17.2030 C.3   195  LEU195      0.0001
    153  CD2      -39.5630    2.4610  -18.5030 C.3   195  LEU195      0.0001
    154  N        -45.0550    1.0480  -15.7110 N.3   198  VAL198     -0.1231
    155  CA       -44.9800   -0.0650  -16.6470 C.3   198  VAL198      0.1692
    156  C        -44.4680   -1.3080  -15.9320 C.2   198  VAL198      0.2591
    157  O        -45.1180   -2.3620  -15.9470 O.2   198  VAL198     -0.2718
    158  CB       -44.1060    0.3020  -17.8590 C.3   198  VAL198      0.0266
    159  CG1      -43.8820   -0.9170  -18.7390 C.3   198  VAL198      0.0020
    160  CG2      -44.7570    1.4220  -18.6540 C.3   198  VAL198      0.0020
    161  N        -43.3240   -1.1830  -15.2490 N.am  199  ALA199     -0.1980
    162  CA       -42.7130   -2.3240  -14.5750 C.3   199  ALA199      0.1597
    163  C        -43.7290   -3.0360  -13.6940 C.2   199  ALA199      0.2287
    164  O        -44.0710   -4.2030  -13.9320 O.2   199  ALA199     -0.2864
    165  CB       -41.5070   -1.8660  -13.7500 C.3   199  ALA199      0.0319
    166  N        -46.3580   -5.0440  -15.6830 N.3   202  PHE202     -0.1241
    167  CA       -45.8270   -6.3000  -16.1940 C.3   202  PHE202      0.1605
    168  C        -45.5810   -7.2760  -15.0540 C.2   202  PHE202      0.2264
    169  O        -46.0340   -8.4290  -15.1080 O.2   202  PHE202     -0.2867
    170  CB       -44.5510   -6.0500  -16.9960 C.3   202  PHE202      0.0534
    171  CG       -44.8020   -5.7640  -18.4510 C.ar  202  PHE202     -0.0203
    172  CD1      -45.4190   -6.7090  -19.2580 C.ar  202  PHE202     -0.0042
    173  CD2      -44.4280   -4.5510  -19.0110 C.ar  202  PHE202     -0.0042
    174  CE1      -45.6570   -6.4510  -20.5980 C.ar  202  PHE202     -0.0003
    175  CE2      -44.6630   -4.2850  -20.3510 C.ar  202  PHE202     -0.0003
    176  CZ       -45.2780   -5.2370  -21.1450 C.ar  202  PHE202     -0.0000
    177  N        -47.0400  -10.8640  -14.8430 N.3   206  LEU206     -0.1245
    178  CA       -46.1670  -12.0280  -14.8480 C.3   206  LEU206      0.1561
    179  C        -46.4640  -12.9390  -13.6660 C.2   206  LEU206      0.2260
    180  O        -46.4520  -14.1690  -13.8050 O.2   206  LEU206     -0.2867
    181  CB       -44.7080  -11.5820  -14.8520 C.3   206  LEU206      0.0270
    182  CG       -44.2380  -11.0810  -16.2180 C.3   206  LEU206      0.0019
    183  CD1      -42.9460  -10.2970  -16.0950 C.3   206  LEU206      0.0001
    184  CD2      -44.0810  -12.2450  -17.1830 C.3   206  LEU206      0.0001
    185  N        -49.1320  -15.0830  -14.6210 N.3   209  LEU209     -0.1245
    186  CA       -48.7310  -16.0170  -15.6660 C.3   209  LEU209      0.1561
    187  C        -47.7550  -17.0520  -15.1230 C.2   209  LEU209      0.2260
    188  O        -48.0370  -18.2570  -15.1390 O.2   209  LEU209     -0.2867
    189  CB       -48.1180  -15.2550  -16.8410 C.3   209  LEU209      0.0270
    190  CG       -48.0900  -16.0170  -18.1660 C.3   209  LEU209      0.0019
    191  CD1      -49.4980  -16.1940  -18.7140 C.3   209  LEU209      0.0001
    192  CD2      -47.2130  -15.2860  -19.1540 C.3   209  LEU209      0.0001
@<TRIPOS>BOND
     1    80    79    2
     2    79    78    1
     3    59    58    2
     4    57    60    1
     5    57    58    1
     6    57    56    1
     7    53    52    2
     8    60    61    1
     9    61    62    1
    10    58    63   am
    11    56    52   am
    12    56    62    1
    13    52    51    1
    14    50    51    1
    15    78    77    1
    16    78    81    1
    17    51    54    1
    18    63    64    1
    19    77    65   am
    20    83    81    1
    21    81    82    1
    22    42    43    2
    23    42    41    1
    24    65    66    2
    25    65    64    1
    26    64    67    1
    27    54    55    1
    28    41    40    1
    29    41    44    1
    30     1     2    1
    31    67    68    1
    32     3     2    1
    33     3     4    2
    34    44    45    1
    35    73    75   ar
    36    73    70   ar
    37    75    76   ar
    38     2     5    1
    39    68    70   ar
    40    68    69   ar
    41    70    72   ar
    42     5     6    1
    43     5     7    1
    44    69    71   ar
    45    76    74   ar
    46    72    74   ar
    47    72    71   ar
    48     6     8    1
    49     9    10    1
    50    47    45   ar
    51    47    49   ar
    52    45    46   ar
    53    49    48   ar
    54    46    48   ar
    55    10    13    1
    56    10    11    1
    57    15    13    1
    58    16    11   am
    59    16    17    1
    60    90    92   ar
    61    90    89   ar
    62    20    17    1
    63    20    21    1
    64    20    22    1
    65    13    14    1
    66    18    17    1
    67    18    19    2
    68    11    12    2
    69    92    94   ar
    70    37    35   ar
    71    37    39   ar
    72    88    89    1
    73    88    85    1
    74   105   104   ar
    75   105   103   ar
    76    32    31    2
    77   104   102   ar
    78    84    85    1
    79    89    91   ar
    80   103   101   ar
    81    85    86    1
    82   102   100   ar
    83    35    34   ar
    84    39    38   ar
    85    31    30    1
    86   101   100   ar
    87   100    99    1
    88    94    93   ar
    89    99    96    1
    90    91    93   ar
    91    23    24    1
    92   176   174   ar
    93   176   175   ar
    94    34    36   ar
    95    34    33    1
    96    38    36   ar
    97    86    87    2
    98    30    33    1
    99    30    29    1
   100   174   172   ar
   101   175   173   ar
   102    96    95    1
   103    96    97    1
   104    24    25    1
   105    24    27    1
   106    28    27    1
   107    25    26    2
   108   119   118    1
   109   172   171   ar
   110   113   111    1
   111    97    98    2
   112    97   106   am
   113   192   190    1
   114   131   130    1
   115   173   171   ar
   116   159   158    1
   117   191   190    1
   118   106   107    1
   119   160   158    1
   120   111   112    1
   121   111   110    1
   122   153   151    1
   123   171   170    1
   124   130   129   ar
   125   130   128   ar
   126   129   127   ar
   127   190   189    1
   128   118   115    1
   129   158   155    1
   130   107   110    1
   131   107   108    1
   132   128   126   ar
   133   127   125   ar
   134   151   152    1
   135   151   150    1
   136   184   182    1
   137   115   114    1
   138   115   116    1
   139   170   167    1
   140   126   125   ar
   141   125   124    1
   142   189   186    1
   143   155   156    1
   144   155   154    1
   145   108   109    2
   146   146   147    1
   147   147   150    1
   148   147   148    1
   149   145   143    1
   150   182   183    1
   151   182   181    1
   152   167   166    1
   153   167   168    1
   154   124   121    1
   155   157   156    2
   156   156   161   am
   157   116   117    2
   158   186   187    1
   159   186   185    1
   160   137   136    1
   161   149   148    2
   162   161   162    1
   163   188   187    2
   164   169   168    2
   165   143   142    1
   166   181   178    1
   167   178   177    1
   168   178   179    1
   169   162   165    1
   170   162   163    1
   171   121   122    1
   172   121   120    1
   173   144   142    1
   174   132   122   am
   175   132   133    1
   176   122   123    2
   177   142   139    1
   178   164   163    2
   179   180   179    2
   180   136   133    1
   181   133   134    1
   182   139   138    1
   183   139   140    1
   184   134   135    2
   185   140   141    2
