@<TRIPOS>MOLECULE
tmp/6bmuB01.pdb
 140 136 0 0 0
SMALL
GASTEIGER

@<TRIPOS>ATOM
      1  N         15.0410  -15.0950   49.0100 N.3    68  PHE68      -0.1241
      2  CA        16.0310  -16.0730   48.5610 C.3    68  PHE68       0.1605
      3  C         16.7290  -15.6880   47.2540 C.2    68  PHE68       0.2264
      4  O         16.1490  -14.9720   46.4420 O.2    68  PHE68      -0.2867
      5  CB        15.3410  -17.4530   48.4060 C.3    68  PHE68       0.0534
      6  CG        14.8520  -18.0460   49.7130 C.ar   68  PHE68      -0.0203
      7  CD1       15.6900  -18.8370   50.4950 C.ar   68  PHE68      -0.0042
      8  CD2       13.5630  -17.7980   50.1700 C.ar   68  PHE68      -0.0042
      9  CE1       15.2520  -19.3490   51.7110 C.ar   68  PHE68      -0.0003
     10  CE2       13.1270  -18.3260   51.3810 C.ar   68  PHE68      -0.0003
     11  CZ        13.9690  -19.1090   52.1400 C.ar   68  PHE68      -0.0000
     12  N         17.3830  -22.7760   46.0400 N.3    73  GLU73      -0.1245
     13  CA        17.8290  -22.4640   47.4210 C.3    73  GLU73       0.1567
     14  C         16.6440  -22.3140   48.3670 C.2    73  GLU73       0.2260
     15  O         16.7290  -22.7080   49.5270 O.2    73  GLU73      -0.2867
     16  CB        18.7000  -21.2150   47.4390 C.3    73  GLU73       0.0388
     17  CG        20.0660  -21.4580   46.8270 C.3    73  GLU73       0.1160
     18  CD        21.0950  -20.3550   46.9740 C.2    73  GLU73       0.3649
     19  OE1       20.8000  -19.3070   47.5960 O.co2  73  GLU73      -0.2457
     20  OE2       22.2310  -20.5730   46.5010 O.co2  73  GLU73      -0.2457
     21  N         15.4210  -25.9360   48.8600 N.3    76  GLN76      -0.1231
     22  CA        16.3910  -26.6080   49.7210 C.3    76  GLN76       0.1698
     23  C         16.1840  -26.1610   51.1620 C.2    76  GLN76       0.2592
     24  O         16.2000  -26.9950   52.0660 O.2    76  GLN76      -0.2718
     25  CB        17.8350  -26.3190   49.2860 C.3    76  GLN76       0.0381
     26  CG        18.8430  -27.2190   49.9840 C.3    76  GLN76       0.0905
     27  CD        20.2680  -26.7910   49.8050 C.2    76  GLN76       0.2608
     28  OE1       20.6220  -25.6070   49.8980 O.2    76  GLN76      -0.2717
     29  NE2       21.1230  -27.7690   49.5770 N.am   76  GLN76      -0.0878
     30  N         15.9420  -24.8510   51.3690 N.am   77  TYR77      -0.1976
     31  CA        15.7530  -24.2830   52.6980 C.3    77  TYR77       0.1639
     32  C         14.4640  -24.7620   53.3690 C.2    77  TYR77       0.2290
     33  O         14.5040  -25.1550   54.5350 O.2    77  TYR77      -0.2864
     34  CB        15.8580  -22.7370   52.6920 C.3    77  TYR77       0.0560
     35  CG        15.7020  -22.1350   54.0690 C.ar   77  TYR77      -0.0198
     36  CD1       16.7930  -22.0030   54.9190 C.ar   77  TYR77      -0.0009
     37  CD2       14.4470  -21.7680   54.5540 C.ar   77  TYR77      -0.0009
     38  CE1       16.6450  -21.5050   56.2110 C.ar   77  TYR77       0.0417
     39  CE2       14.2860  -21.2820   55.8520 C.ar   77  TYR77       0.0417
     40  CZ        15.3910  -21.1350   56.6680 C.ar   77  TYR77       0.1957
     41  OH        15.2460  -20.6420   57.9420 O.3    77  TYR77      -0.2866
     42  N         14.4520  -28.6280   54.3350 N.3    80  GLU80      -0.1231
     43  CA        15.3260  -28.9040   55.4650 C.3    80  GLU80       0.1699
     44  C         14.8540  -28.2840   56.7860 C.2    80  GLU80       0.2592
     45  O         15.1410  -28.8340   57.8440 O.2    80  GLU80      -0.2718
     46  CB        16.7460  -28.4350   55.1180 C.3    80  GLU80       0.0402
     47  CG        17.8020  -28.6420   56.1980 C.3    80  GLU80       0.1161
     48  CD        18.1230  -30.0650   56.6120 C.2    80  GLU80       0.3649
     49  OE1       18.4720  -30.2530   57.7990 O.co2  80  GLU80      -0.2457
     50  OE2       18.0620  -30.9810   55.7560 O.co2  80  GLU80      -0.2457
     51  N         14.1740  -27.1330   56.7290 N.am   81  HIS81      -0.1976
     52  CA        13.7360  -26.3830   57.9050 C.3    81  HIS81       0.1656
     53  C         12.2100  -26.3780   58.0330 C.2    81  HIS81       0.2291
     54  O         11.5570  -25.3840   57.7110 O.2    81  HIS81      -0.2864
     55  CB        14.3310  -24.9600   57.8910 C.3    81  HIS81       0.0771
     56  CG        15.8240  -24.9370   57.7680 C.ar   81  HIS81       0.0820
     57  ND1       16.4470  -24.9740   56.5300 N.ar   81  HIS81      -0.2267
     58  CD2       16.7740  -24.9010   58.7330 C.ar   81  HIS81       0.1154
     59  CE1       17.7470  -24.9560   56.7800 C.ar   81  HIS81       0.1986
     60  NE2       17.9940  -24.9150   58.0910 N.ar   81  HIS81      -0.2212
     61  N         24.1500  -25.6210   44.4170 N.3   228  LEU228     -0.1231
     62  CA        23.8080  -25.5300   45.8380 C.3   228  LEU228      0.1693
     63  C         25.0320  -25.8140   46.7230 C.2   228  LEU228      0.2592
     64  O         25.0460  -26.7530   47.5260 O.2   228  LEU228     -0.2718
     65  CB        22.5780  -26.3910   46.2130 C.3   228  LEU228      0.0284
     66  CG        21.2460  -26.0910   45.4660 C.3   228  LEU228      0.0019
     67  CD1       20.2800  -27.3130   45.5280 C.3   228  LEU228      0.0001
     68  CD2       20.5730  -24.8910   46.0340 C.3   228  LEU228      0.0001
     69  N         26.0440  -24.9480   46.5940 N.am  229  TYR229     -0.1962
     70  CA        27.2850  -25.0430   47.3500 C.3   229  TYR229      0.1771
     71  C         27.0380  -24.5840   48.7700 C.2   229  TYR229      0.2620
     72  O         25.9910  -23.9650   49.0450 O.2   229  TYR229     -0.2715
     73  CB        28.4240  -24.2300   46.6980 C.3   229  TYR229      0.0574
     74  CG        28.6500  -24.5460   45.2320 C.ar  229  TYR229     -0.0198
     75  CD1       29.1600  -25.7800   44.8330 C.ar  229  TYR229     -0.0009
     76  CD2       28.3840  -23.5980   44.2440 C.ar  229  TYR229     -0.0009
     77  CE1       29.3750  -26.0700   43.4830 C.ar  229  TYR229      0.0417
     78  CE2       28.6150  -23.8700   42.8980 C.ar  229  TYR229      0.0417
     79  CZ        29.1130  -25.1030   42.5220 C.ar  229  TYR229      0.1957
     80  OH        29.3080  -25.3680   41.1890 O.3   229  TYR229     -0.2866
     81  N         27.9580  -24.9540   49.6900 N.am  230  SER230     -0.1936
     82  CA        27.8250  -24.5790   51.0860 C.3   230  SER230      0.2055
     83  C         27.9930  -23.0730   51.2770 C.2   230  SER230      0.2643
     84  O         28.8560  -22.4340   50.6600 O.2   230  SER230     -0.2714
     85  CB        28.7990  -25.3530   51.9770 C.3   230  SER230      0.2130
     86  OG        30.1100  -24.8160   51.9360 O.3   230  SER230     -0.2179
     87  N         27.1320  -22.5400   52.1410 N.am  231  ARG231     -0.1963
     88  CA        27.0430  -21.1590   52.5890 C.3   231  ARG231      0.1729
     89  C         26.9800  -21.2240   54.1520 C.2   231  ARG231      0.2616
     90  O         26.2650  -20.4570   54.7920 O.2   231  ARG231     -0.2715
     91  CB        25.7590  -20.5150   52.0030 C.3   231  ARG231      0.0348
     92  CG        25.7530  -20.3330   50.4780 C.3   231  ARG231      0.0492
     93  CD        24.3620  -20.5840   49.9000 C.3   231  ARG231      0.2205
     94  NE        24.1040  -22.0230   49.7780 N.pl3 231  ARG231     -0.0865
     95  CZ        22.9140  -22.6160   49.8600 C.cat 231  ARG231      0.5346
     96  NH1       21.8100  -21.8930   50.0200 N.pl3 231  ARG231      0.1354
     97  NH2       22.8160  -23.9340   49.7600 N.pl3 231  ARG231      0.1354
     98  N         27.7750  -22.1220   54.7480 N.am  232  LYS232     -0.1977
     99  CA        27.8350  -22.3220   56.1930 C.3   232  LYS232      0.1596
    100  C         28.3760  -21.1210   56.9960 C.2   232  LYS232      0.2287
    101  O         27.8450  -20.8420   58.0610 O.2   232  LYS232     -0.2864
    102  CB        28.6280  -23.5910   56.5310 C.3   232  LYS232      0.0298
    103  CG        27.9080  -24.8720   56.1270 C.3   232  LYS232      0.0038
    104  CD        28.8710  -26.0600   56.0570 C.3   232  LYS232      0.0206
    105  CE        29.1780  -26.7140   57.3890 C.3   232  LYS232      0.1093
    106  NZ        30.4240  -27.5290   57.3290 N.3   232  LYS232     -0.1314
    107  N         25.9350  -18.5080   57.9830 N.3   235  GLN235     -0.1245
    108  CA        24.9440  -19.0150   58.9340 C.3   235  GLN235      0.1566
    109  C         25.3910  -18.8710   60.3810 C.2   235  GLN235      0.2260
    110  O         24.5370  -18.9070   61.2710 O.2   235  GLN235     -0.2867
    111  CB        24.6140  -20.4680   58.6490 C.3   235  GLN235      0.0367
    112  CG        23.9740  -20.7120   57.3100 C.3   235  GLN235      0.0905
    113  CD        23.9240  -22.2010   57.0170 C.2   235  GLN235      0.2608
    114  OE1       23.6050  -23.0470   57.8810 O.2   235  GLN235     -0.2717
    115  NE2       24.2000  -22.5480   55.7880 N.am  235  GLN235     -0.0878
    116  N         18.7640  -12.5150   55.5760 N.3   246  LYS246     -0.1231
    117  CA        19.1520  -13.7130   56.3370 C.3   246  LYS246      0.1693
    118  C         19.4540  -14.9440   55.5010 C.2   246  LYS246      0.2592
    119  O         20.3690  -15.6750   55.8330 O.2   246  LYS246     -0.2718
    120  CB        18.0710  -14.0870   57.3710 C.3   246  LYS246      0.0285
    121  CG        18.5370  -14.0150   58.8220 C.3   246  LYS246      0.0035
    122  CD        17.9910  -15.1800   59.6740 C.3   246  LYS246      0.0206
    123  CE        16.4780  -15.2810   59.7460 C.3   246  LYS246      0.1093
    124  NZ        16.0180  -16.6940   59.6630 N.3   246  LYS246     -0.1314
    125  N         18.6790  -15.1820   54.4380 N.am  247  ASN247     -0.1974
    126  CA        18.8260  -16.3910   53.6400 C.3   247  ASN247      0.1688
    127  C         19.5470  -16.1920   52.2980 C.2   247  ASN247      0.2292
    128  O         19.5890  -17.1260   51.4990 O.2   247  ASN247     -0.2864
    129  CB        17.4570  -17.0630   53.4580 C.3   247  ASN247      0.1181
    130  CG        16.8030  -17.5060   54.7600 C.2   247  ASN247      0.2629
    131  OD1       15.5900  -17.5070   54.8970 O.2   247  ASN247     -0.2716
    132  ND2       17.5700  -17.8840   55.7530 N.am  247  ASN247     -0.0877
    133  N         23.0700  -15.7600   51.0760 N.3   249  LEU249     -0.1245
    134  CA        24.4170  -15.9220   51.6230 C.3   249  LEU249      0.1561
    135  C         25.5310  -16.1230   50.6020 C.2   249  LEU249      0.2260
    136  O         25.2540  -16.5850   49.4880 O.2   249  LEU249     -0.2867
    137  CB        24.4110  -17.0810   52.6450 C.3   249  LEU249      0.0270
    138  CG        23.3890  -16.9610   53.8030 C.3   249  LEU249      0.0019
    139  CD1       23.2110  -18.2770   54.5550 C.3   249  LEU249      0.0001
    140  CD2       23.7370  -15.8690   54.7390 C.3   249  LEU249      0.0001
@<TRIPOS>BOND
     1    80    79    1
     2    79    78   ar
     3    79    77   ar
     4    78    76   ar
     5    77    75   ar
     6    76    74   ar
     7    61    62    1
     8    75    74   ar
     9    74    73    1
    10    66    67    1
    11    66    68    1
    12    66    65    1
    13    62    65    1
    14    62    63    1
    15    12    13    1
    16     4     3    2
    17    20    18   ar
    18    69    63   am
    19    69    70    1
    20    73    70    1
    21    63    64    2
    22    17    18    1
    23    17    16    1
    24    18    19   ar
    25     3     2    1
    26    70    71    1
    27    13    16    1
    28    13    14    1
    29    14    15    2
    30     5     2    1
    31     5     6    1
    32     2     1    1
    33    71    72    2
    34    71    81   am
    35    21    22    1
    36    25    22    1
    37    25    26    1
    38   136   135    2
    39    29    27   am
    40    81    82    1
    41     6     8   ar
    42     6     7   ar
    43    22    23    1
    44    97    95    1
    45    94    95    2
    46    94    93    1
    47    27    28    2
    48    27    26    1
    49    95    96    1
    50    93    92    1
    51     8    10   ar
    52    92    91    1
    53     7     9   ar
    54   135   134    1
    55    84    83    2
    56   133   134    1
    57    82    83    1
    58    82    85    1
    59    23    30   am
    60    23    24    2
    61    83    87   am
    62    30    31    1
    63    10    11   ar
    64   128   127    2
    65   134   137    1
    66     9    11   ar
    67    86    85    1
    68    91    88    1
    69    87    88    1
    70   127   126    1
    71    88    89    1
    72   137   138    1
    73    34    31    1
    74    34    35    1
    75    31    32    1
    76    32    33    2
    77   129   126    1
    78   129   130    1
    79   126   125    1
    80   138   139    1
    81   138   140    1
    82    35    37   ar
    83    35    36   ar
    84    89    98   am
    85    89    90    2
    86    42    43    1
    87   125   118   am
    88    37    39   ar
    89    98    99    1
    90   130   131    2
    91   130   132   am
    92    36    38   ar
    93    46    43    1
    94    46    47    1
    95    43    44    1
    96   118   119    2
    97   118   117    1
    98   116   117    1
    99    50    48   ar
   100   115   113   am
   101    39    40   ar
   102   104   103    1
   103   104   105    1
   104   103   102    1
   105    99   102    1
   106    99   100    1
   107    47    48    1
   108    38    40   ar
   109   117   120    1
   110    57    59   ar
   111    57    56   ar
   112    48    49   ar
   113    40    41    1
   114    51    44   am
   115    51    52    1
   116    59    60   ar
   117    44    45    2
   118   100   101    2
   119   113   112    1
   120   113   114    2
   121   112   111    1
   122   106   105    1
   123   120   121    1
   124    54    53    2
   125    56    55    1
   126    56    58   ar
   127    55    52    1
   128    52    53    1
   129   107   108    1
   130    60    58   ar
   131   111   108    1
   132   121   122    1
   133   108   109    1
   134   124   123    1
   135   122   123    1
   136   109   110    2
