@<TRIPOS>MOLECULE
tmp/6bmuB00.pdb
 153 146 0 0 0
SMALL
GASTEIGER

@<TRIPOS>ATOM
      1  N         10.7100  -29.3750   27.9750 N.3   100  THR100     -0.1218
      2  CA        10.9650  -28.0540   27.3550 C.3   100  THR100      0.1862
      3  C         12.1470  -27.3080   27.9470 C.2   100  THR100      0.2287
      4  O         12.8310  -26.6050   27.2010 O.2   100  THR100     -0.2866
      5  CB         9.7250  -27.1530   27.3110 C.3   100  THR100      0.1770
      6  OG1        9.0610  -27.1740   28.5750 O.3   100  THR100     -0.2211
      7  CG2        8.7550  -27.5430   26.1930 C.3   100  THR100      0.0375
      8  N         14.9280  -28.6950   29.1250 N.3   102  GLU102     -0.1231
      9  CA        16.1240  -29.5290   29.0260 C.3   102  GLU102      0.1699
     10  C         17.0670  -28.9750   27.9730 C.2   102  GLU102      0.2592
     11  O         16.6060  -28.5790   26.8980 O.2   102  GLU102     -0.2718
     12  CB        15.7600  -30.9860   28.7220 C.3   102  GLU102      0.0402
     13  CG        15.0630  -31.7020   29.8700 C.3   102  GLU102      0.1161
     14  CD        15.8950  -32.0400   31.0970 C.2   102  GLU102      0.3649
     15  OE1       17.0910  -31.6690   31.1580 O.co2 102  GLU102     -0.2457
     16  OE2       15.3300  -32.6710   32.0170 O.co2 102  GLU102     -0.2457
     17  N         18.3920  -28.9620   28.2750 N.am  103  ARG103     -0.1980
     18  CA        19.4450  -28.4460   27.3860 C.3   103  ARG103      0.1597
     19  C         19.5040  -29.1820   26.0490 C.2   103  ARG103      0.2287
     20  O         19.8050  -28.5840   25.0160 O.2   103  ARG103     -0.2864
     21  CB        20.7960  -28.5770   28.0660 C.3   103  ARG103      0.0334
     22  CG        21.3420  -27.3010   28.6480 C.3   103  ARG103      0.0492
     23  CD        21.7290  -27.4560   30.1010 C.3   103  ARG103      0.2205
     24  NE        22.5710  -28.6160   30.4000 N.pl3 103  ARG103     -0.0865
     25  CZ        23.8890  -28.6620   30.2450 C.cat 103  ARG103      0.5346
     26  NH1       24.5610  -29.7620   30.5620 N.pl3 103  ARG103      0.1354
     27  NH2       24.5450  -27.6170   29.7500 N.pl3 103  ARG103      0.1354
     28  N         16.7780  -30.9140   24.6200 N.3   105  PHE105     -0.1227
     29  CA        15.4950  -31.0190   23.9030 C.3   105  PHE105      0.1736
     30  C         15.2630  -29.8800   22.9040 C.2   105  PHE105      0.2595
     31  O         15.2620  -28.7160   23.2980 O.2   105  PHE105     -0.2718
     32  CB        14.3250  -31.1620   24.8780 C.3   105  PHE105      0.0547
     33  CG        13.0010  -31.4310   24.2050 C.ar  105  PHE105     -0.0202
     34  CD1       12.7310  -32.6700   23.6300 C.ar  105  PHE105     -0.0042
     35  CD2       12.0230  -30.4430   24.1350 C.ar  105  PHE105     -0.0042
     36  CE1       11.5100  -32.9140   22.9960 C.ar  105  PHE105     -0.0003
     37  CE2       10.8030  -30.6890   23.4960 C.ar  105  PHE105     -0.0003
     38  CZ        10.5540  -31.9250   22.9370 C.ar  105  PHE105     -0.0000
     39  N         15.0390  -30.2220   21.6240 N.am  106  HIS106     -0.1975
     40  CA        14.8710  -29.2460   20.5440 C.3   106  HIS106      0.1656
     41  C         13.5480  -29.3120   19.7780 C.2   106  HIS106      0.2291
     42  O         13.4800  -28.7760   18.6690 O.2   106  HIS106     -0.2864
     43  CB        16.0460  -29.3430   19.5640 C.3   106  HIS106      0.0771
     44  CG        17.3550  -28.9940   20.1880 C.ar  106  HIS106      0.0820
     45  ND1       17.8690  -27.7190   20.1110 N.ar  106  HIS106     -0.2267
     46  CD2       18.1990  -29.7640   20.9140 C.ar  106  HIS106      0.1154
     47  CE1       19.0150  -27.7540   20.7730 C.ar  106  HIS106      0.1986
     48  NE2       19.2550  -28.9640   21.2740 N.ar  106  HIS106     -0.2212
     49  N         24.1610  -30.9100   22.8160 N.3   191  LEU191     -0.1231
     50  CA        24.7680  -30.1150   21.7540 C.3   191  LEU191      0.1693
     51  C         24.6050  -28.6140   22.0980 C.2   191  LEU191      0.2592
     52  O         23.5220  -28.2150   22.5060 O.2   191  LEU191     -0.2718
     53  CB        24.1290  -30.4400   20.3900 C.3   191  LEU191      0.0284
     54  CG        24.4220  -29.4320   19.2770 C.3   191  LEU191      0.0019
     55  CD1       25.7780  -29.6470   18.6810 C.3   191  LEU191      0.0001
     56  CD2       23.3410  -29.4220   18.2570 C.3   191  LEU191      0.0001
     57  N         25.6770  -27.8110   21.9790 N.am  192  ASN192     -0.1960
     58  CA        25.5970  -26.3730   22.2780 C.3   192  ASN192      0.1819
     59  C         24.9460  -25.6080   21.1400 C.2   192  ASN192      0.2622
     60  O         25.4750  -25.5590   20.0150 O.2   192  ASN192     -0.2715
     61  CB        26.9630  -25.7740   22.6180 C.3   192  ASN192      0.1195
     62  CG        26.9090  -24.3040   22.9740 C.2   192  ASN192      0.2630
     63  OD1       26.3510  -23.4680   22.2560 O.2   192  ASN192     -0.2716
     64  ND2       27.5280  -23.9470   24.0690 N.am  192  ASN192     -0.0877
     65  N         23.8350  -24.9460   21.4580 N.am  193  THR193     -0.1937
     66  CA        23.0850  -24.1520   20.4840 C.3   193  THR193      0.2028
     67  C         22.9930  -22.6580   20.8900 C.2   193  THR193      0.2642
     68  O         22.4330  -21.8590   20.1450 O.2   193  THR193     -0.2714
     69  CB        21.6990  -24.7820   20.2700 C.3   193  THR193      0.1808
     70  OG1       21.0210  -24.8620   21.5250 O.3   193  THR193     -0.2208
     71  CG2       21.7770  -26.1650   19.6230 C.3   193  THR193      0.0379
     72  N         23.5500  -22.2830   22.0570 N.am  194  THR194     -0.1950
     73  CA        23.4480  -20.9050   22.5560 C.3   194  THR194      0.1897
     74  C         24.6580  -20.0410   22.2240 C.2   194  THR194      0.2313
     75  O         24.5160  -18.8140   22.1670 O.2   194  THR194     -0.2863
     76  CB        23.1420  -20.8960   24.0490 C.3   194  THR194      0.1794
     77  OG1       24.1150  -21.7180   24.7100 O.3   194  THR194     -0.2208
     78  CG2       21.7230  -21.3660   24.3490 C.3   194  THR194      0.0378
     79  N         12.2390  -19.4640   26.9710 N.3   215  GLU215     -0.1231
     80  CA        12.6740  -20.8580   26.9020 C.3   215  GLU215      0.1699
     81  C         14.1430  -21.0020   27.3050 C.2   215  GLU215      0.2592
     82  O         14.4510  -21.8040   28.1760 O.2   215  GLU215     -0.2718
     83  CB        12.4210  -21.4460   25.5010 C.3   215  GLU215      0.0402
     84  CG        12.5880  -22.9570   25.4580 C.3   215  GLU215      0.1161
     85  CD        12.0470  -23.6860   24.2410 C.2   215  GLU215      0.3649
     86  OE1       11.9440  -24.9330   24.3100 O.co2 215  GLU215     -0.2457
     87  OE2       11.7430  -23.0250   23.2200 O.co2 215  GLU215     -0.2457
     88  N         15.0310  -20.2040   26.7040 N.am  216  GLU216     -0.1979
     89  CA        16.4590  -20.2170   26.9940 C.3   216  GLU216      0.1602
     90  C         16.7580  -19.8540   28.4660 C.2   216  GLU216      0.2287
     91  O         17.6290  -20.4660   29.0850 O.2   216  GLU216     -0.2864
     92  CB        17.1900  -19.2910   26.0360 C.3   216  GLU216      0.0415
     93  CG        18.6330  -19.6750   25.8290 C.3   216  GLU216      0.1163
     94  CD        19.3590  -18.7220   24.9080 C.2   216  GLU216      0.3649
     95  OE1       19.9220  -17.7320   25.4190 O.co2 216  GLU216     -0.2457
     96  OE2       19.3570  -18.9530   23.6780 O.co2 216  GLU216     -0.2457
     97  N         15.6150  -22.7610   30.8360 N.3   219  THR219     -0.1203
     98  CA        16.5500  -23.8830   30.6220 C.3   219  THR219      0.1994
     99  C         17.8260  -23.6180   31.4650 C.2   219  THR219      0.2617
    100  O         18.3840  -24.5390   32.0700 O.2   219  THR219     -0.2717
    101  CB        16.8210  -24.0340   29.1110 C.3   219  THR219      0.1784
    102  OG1       15.5670  -24.2110   28.4780 O.3   219  THR219     -0.2211
    103  CG2       17.7040  -25.2080   28.7820 C.3   219  THR219      0.0376
    104  N         18.2440  -22.3420   31.5370 N.am  220  LEU220     -0.1979
    105  CA        19.3480  -21.9150   32.3840 C.3   220  LEU220      0.1596
    106  C         18.8880  -22.0250   33.8710 C.2   220  LEU220      0.2287
    107  O         19.6460  -22.5300   34.6940 O.2   220  LEU220     -0.2864
    108  CB        19.8000  -20.4810   32.0160 C.3   220  LEU220      0.0297
    109  CG        20.8070  -19.8010   32.9720 C.3   220  LEU220      0.0022
    110  CD1       22.1800  -20.4390   32.8690 C.3   220  LEU220      0.0001
    111  CD2       20.9070  -18.3130   32.6780 C.3   220  LEU220      0.0001
    112  N         19.1380  -25.3940   35.5240 N.3   223  GLN223     -0.1245
    113  CA        20.4910  -25.8160   35.9130 C.3   223  GLN223      0.1566
    114  C         20.9770  -25.2590   37.2770 C.2   223  GLN223      0.2260
    115  O         22.1140  -25.5410   37.6860 O.2   223  GLN223     -0.2867
    116  CB        21.4920  -25.4750   34.7930 C.3   223  GLN223      0.0367
    117  CG        21.2630  -26.2650   33.4900 C.3   223  GLN223      0.0905
    118  CD        21.3650  -27.7650   33.6590 C.2   223  GLN223      0.2608
    119  OE1       22.4290  -28.3070   33.8960 O.2   223  GLN223     -0.2717
    120  NE2       20.2510  -28.4650   33.5860 N.am  223  GLN223     -0.0878
    121  N         28.4410  -16.6040   24.5550 N.3   438  ASP438     -0.1239
    122  CA        27.4340  -17.5720   25.0060 C.3   438  ASP438      0.1674
    123  C         26.8830  -17.0640   26.3310 C.2   438  ASP438      0.2266
    124  O         27.4610  -17.3410   27.3800 O.2   438  ASP438     -0.2867
    125  CB        28.0780  -18.9820   25.1690 C.3   438  ASP438      0.1410
    126  CG        27.0950  -20.1250   25.3550 C.2   438  ASP438      0.3668
    127  OD1       25.9550  -19.8680   25.7720 O.co2 438  ASP438     -0.2456
    128  OD2       27.4800  -21.2760   25.1260 O.co2 438  ASP438     -0.2456
    129  N         24.0510  -17.6570   28.4030 N.3   440  PRO440     -0.2102
    130  CA        23.7840  -18.5570   29.5530 C.3   440  PRO440      0.1504
    131  C         25.0290  -19.2390   30.1180 C.2   440  PRO440      0.2575
    132  O         25.0910  -19.4750   31.3260 O.2   440  PRO440     -0.2718
    133  CB        22.8000  -19.5930   28.9840 C.3   440  PRO440      0.0282
    134  CG        23.0000  -19.5450   27.4870 C.3   440  PRO440      0.0208
    135  CD        23.3280  -18.1100   27.1850 C.3   440  PRO440      0.0893
    136  N         26.0180  -19.5660   29.2540 N.am  441  LYS441     -0.1980
    137  CA        27.2490  -20.1830   29.7250 C.3   441  LYS441      0.1596
    138  C         27.9710  -19.2080   30.6640 C.2   441  LYS441      0.2287
    139  O         28.4900  -19.6410   31.6830 O.2   441  LYS441     -0.2864
    140  CB        28.1640  -20.6000   28.5630 C.3   441  LYS441      0.0298
    141  CG        29.4720  -21.3230   28.9970 C.3   441  LYS441      0.0038
    142  CD        30.1400  -22.0260   27.8190 C.3   441  LYS441      0.0206
    143  CE        31.6460  -22.0630   27.9130 C.3   441  LYS441      0.1093
    144  NZ        32.1340  -23.1710   28.7770 N.3   441  LYS441     -0.1314
    145  N         25.9680  -18.9330   34.0190 N.3   444  GLN444     -0.1245
    146  CA        26.1490  -20.1560   34.8180 C.3   444  GLN444      0.1566
    147  C         27.4740  -20.1270   35.5490 C.2   444  GLN444      0.2260
    148  O         27.5360  -20.4840   36.7230 O.2   444  GLN444     -0.2867
    149  CB        26.0240  -21.4380   33.9460 C.3   444  GLN444      0.0367
    150  CG        25.9820  -22.7530   34.7580 C.3   444  GLN444      0.0905
    151  CD        24.7240  -22.9840   35.5710 C.2   444  GLN444      0.2608
    152  OE1       23.8010  -22.1530   35.6210 O.2   444  GLN444     -0.2717
    153  NE2       24.6850  -24.1070   36.2840 N.am  444  GLN444     -0.0878
@<TRIPOS>BOND
     1    56    54    1
     2    42    41    2
     3    55    54    1
     4    54    53    1
     5    43    44    1
     6    43    40    1
     7    71    69    1
     8    41    40    1
     9    60    59    2
    10    45    44   ar
    11    45    47   ar
    12    68    67    2
    13    44    46   ar
    14    69    66    1
    15    69    70    1
    16    53    50    1
    17    66    67    1
    18    66    65    1
    19    40    39    1
    20    47    48   ar
    21    67    72   am
    22    46    48   ar
    23    59    65   am
    24    59    58    1
    25    39    30   am
    26    50    51    1
    27    50    49    1
    28    57    51   am
    29    57    58    1
    30    72    73    1
    31    51    52    2
    32    75    74    2
    33    74    73    1
    34    63    62    2
    35    58    61    1
    36    73    76    1
    37    61    62    1
    38    30    31    2
    39    30    29    1
    40    38    36   ar
    41    38    37   ar
    42    62    64   am
    43    36    34   ar
    44    87    85   ar
    45    37    35   ar
    46    34    33   ar
    47    96    94   ar
    48    29    28    1
    49    29    32    1
    50    76    78    1
    51    76    77    1
    52    35    33   ar
    53    33    32    1
    54    85    86   ar
    55    85    84    1
    56   121   122    1
    57    94    95   ar
    58    94    93    1
    59   122   125    1
    60   122   123    1
    61    20    19    2
    62   128   126   ar
    63   125   126    1
    64   126   127   ar
    65    84    83    1
    66    83    80    1
    67    93    92    1
    68    92    89    1
    69    19    18    1
    70     7     5    1
    71   123   124    2
    72    88    89    1
    73    88    81   am
    74    11    10    2
    75    80    79    1
    76    80    81    1
    77    89    90    1
    78   135   134    1
    79   135   129    1
    80     4     3    2
    81    81    82    2
    82     5     2    1
    83     5     6    1
    84     2     3    1
    85     2     1    1
    86    18    21    1
    87    18    17    1
    88   134   133    1
    89   142   143    1
    90   142   141    1
    91   143   144    1
    92    10    17   am
    93    10     9    1
    94    21    22    1
    95   129   130    1
    96    90    91    2
    97   102   101    1
    98   140   141    1
    99   140   137    1
   100    22    23    1
   101    12     9    1
   102    12    13    1
   103   103   101    1
   104   133   130    1
   105     9     8    1
   106   101    98    1
   107   136   137    1
   108   136   131   am
   109   130   131    1
   110   137   138    1
   111    27    25    1
   112    13    14    1
   113    23    24    1
   114   131   132    2
   115    25    24    2
   116    25    26    1
   117    98    97    1
   118    98    99    1
   119   138   139    2
   120    14    15   ar
   121    14    16   ar
   122    99   104   am
   123    99   100    2
   124   104   105    1
   125   108   105    1
   126   108   109    1
   127   105   106    1
   128   111   109    1
   129   110   109    1
   130   117   118    1
   131   117   116    1
   132   120   118   am
   133   118   119    2
   134   106   107    2
   135   149   150    1
   136   149   146    1
   137   145   146    1
   138   150   151    1
   139   116   113    1
   140   146   147    1
   141   112   113    1
   142   147   148    2
   143   151   152    2
   144   151   153   am
   145   113   114    1
   146   114   115    2
