@<TRIPOS>MOLECULE
tmp/6bmvA00.pdb
 140 136 0 0 0
SMALL
GASTEIGER

@<TRIPOS>ATOM
      1  N         22.6110   32.8490   26.9450 N.3    69  PHE69      -0.1241
      2  CA        21.7340   33.7820   26.2590 C.3    69  PHE69       0.1605
      3  C         21.4120   33.3380   24.8480 C.2    69  PHE69       0.2264
      4  O         22.1560   32.5620   24.2510 O.2    69  PHE69      -0.2867
      5  CB        22.3900   35.1910   26.2460 C.3    69  PHE69       0.0534
      6  CG        22.4750   35.8130   27.6110 C.ar   69  PHE69      -0.0203
      7  CD1       21.4140   36.5460   28.1220 C.ar   69  PHE69      -0.0042
      8  CD2       23.5940   35.6160   28.4120 C.ar   69  PHE69      -0.0042
      9  CE1       21.4960   37.1270   29.3800 C.ar   69  PHE69      -0.0003
     10  CE2       23.6360   36.1270   29.7080 C.ar   69  PHE69      -0.0003
     11  CZ        22.5980   36.8970   30.1790 C.ar   69  PHE69      -0.0000
     12  N         20.7710   40.3990   23.4440 N.3    74  GLU74      -0.1245
     13  CA        19.9890   40.0630   24.6360 C.3    74  GLU74       0.1567
     14  C         20.8830   40.0250   25.8810 C.2    74  GLU74       0.2260
     15  O         20.4530   40.4160   26.9790 O.2    74  GLU74      -0.2867
     16  CB        19.1960   38.7440   24.4470 C.3    74  GLU74       0.0388
     17  CG        17.9610   38.9430   23.5660 C.3    74  GLU74       0.1160
     18  CD        16.9100   37.8460   23.4490 C.2    74  GLU74       0.3649
     19  OE1       17.1530   36.7210   23.9390 O.co2  74  GLU74      -0.2457
     20  OE2       15.8330   38.1160   22.8680 O.co2  74  GLU74      -0.2457
     21  N         21.7950   43.7630   26.6190 N.3    77  GLN77      -0.1231
     22  CA        20.6130   44.4030   27.2260 C.3    77  GLN77       0.1698
     23  C         20.5090   43.9770   28.6860 C.2    77  GLN77       0.2592
     24  O         20.4510   44.8350   29.5630 O.2    77  GLN77      -0.2718
     25  CB        19.3260   44.0380   26.4600 C.3    77  GLN77       0.0381
     26  CG        18.1120   44.8930   26.8330 C.3    77  GLN77       0.0905
     27  CD        16.7990   44.3000   26.3510 C.2    77  GLN77       0.2608
     28  OE1       16.5940   43.0820   26.3300 O.2    77  GLN77      -0.2717
     29  NE2       15.8920   45.1510   25.9330 N.am   77  GLN77      -0.0878
     30  N         20.5600   42.6430   28.9570 N.am   78  TYR78      -0.1976
     31  CA        20.4940   42.1090   30.3200 C.3    78  TYR78       0.1639
     32  C         21.5510   42.7180   31.2670 C.2    78  TYR78       0.2290
     33  O         21.1890   43.2320   32.3130 O.2    78  TYR78      -0.2864
     34  CB        20.5420   40.5430   30.3420 C.3    78  TYR78       0.0560
     35  CG        20.3530   39.9670   31.7270 C.ar   78  TYR78      -0.0198
     36  CD1       19.0860   39.8800   32.3030 C.ar   78  TYR78      -0.0009
     37  CD2       21.4430   39.5450   32.4820 C.ar   78  TYR78      -0.0009
     38  CE1       18.9140   39.4100   33.6070 C.ar   78  TYR78       0.0417
     39  CE2       21.2820   39.0440   33.7710 C.ar   78  TYR78       0.0417
     40  CZ        20.0170   38.9800   34.3300 C.ar   78  TYR78       0.1957
     41  OH        19.8760   38.5140   35.6080 O.3    78  TYR78      -0.2866
     42  N         21.1980   46.4610   32.1890 N.3    81  GLU81      -0.1231
     43  CA        20.0700   46.7320   33.0850 C.3    81  GLU81       0.1699
     44  C         20.2200   46.0750   34.4770 C.2    81  GLU81       0.2592
     45  O         19.7550   46.6500   35.4600 O.2    81  GLU81      -0.2718
     46  CB        18.7420   46.3490   32.3980 C.3    81  GLU81       0.0402
     47  CG        17.4920   46.3480   33.2660 C.3    81  GLU81       0.1161
     48  CD        16.9440   47.6830   33.7400 C.2    81  GLU81       0.3649
     49  OE1       16.6080   48.5350   32.8850 O.co2  81  GLU81      -0.2457
     50  OE2       16.7460   47.8290   34.9670 O.co2  81  GLU81      -0.2457
     51  N         20.8660   44.9120   34.5780 N.am   82  HIS82      -0.1976
     52  CA        21.0370   44.2160   35.8690 C.3    82  HIS82       0.1656
     53  C         22.4970   44.2150   36.3160 C.2    82  HIS82       0.2291
     54  O         23.2960   43.4010   35.8530 O.2    82  HIS82      -0.2864
     55  CB        20.4370   42.7840   35.8280 C.3    82  HIS82       0.0771
     56  CG        19.0340   42.7460   35.2990 C.ar   82  HIS82       0.0820
     57  ND1       18.7790   42.7040   33.9340 N.ar   82  HIS82      -0.2267
     58  CD2       17.8570   42.8190   35.9620 C.ar   82  HIS82       0.1154
     59  CE1       17.4610   42.7230   33.8180 C.ar   82  HIS82       0.1986
     60  NE2       16.8640   42.7940   35.0110 N.ar   82  HIS82      -0.2212
     61  N         14.3490   42.9870   20.1720 N.3   237  LEU237     -0.1231
     62  CA        14.3610   42.9340   21.6390 C.3   237  LEU237      0.1693
     63  C         12.9360   43.1390   22.1910 C.2   237  LEU237      0.2592
     64  O         12.6610   44.1010   22.9240 O.2   237  LEU237     -0.2718
     65  CB        15.3930   43.9130   22.2190 C.3   237  LEU237      0.0284
     66  CG        16.8880   43.6480   21.8110 C.3   237  LEU237      0.0019
     67  CD1       17.7740   44.8130   22.2170 C.3   237  LEU237      0.0001
     68  CD2       17.4360   42.3160   22.3950 C.3   237  LEU237      0.0001
     69  N         12.0300   42.2190   21.8060 N.am  238  TYR238     -0.1962
     70  CA        10.6030   42.2370   22.1810 C.3   238  TYR238      0.1771
     71  C         10.4100   41.7780   23.6090 C.2   238  TYR238      0.2620
     72  O         11.2890   41.1010   24.1410 O.2   238  TYR238     -0.2715
     73  CB         9.7650   41.3860   21.2110 C.3   238  TYR238      0.0574
     74  CG         9.9100   41.7440   19.7480 C.ar  238  TYR238     -0.0198
     75  CD1        9.7310   43.0540   19.3060 C.ar  238  TYR238     -0.0009
     76  CD2       10.2070   40.7740   18.8030 C.ar  238  TYR238     -0.0009
     77  CE1        9.8570   43.3850   17.9540 C.ar  238  TYR238      0.0417
     78  CE2       10.3030   41.0860   17.4500 C.ar  238  TYR238      0.0417
     79  CZ        10.1240   42.3890   17.0290 C.ar  238  TYR238      0.1957
     80  OH        10.2290   42.6690   15.6890 O.3   238  TYR238     -0.2866
     81  N          9.2820   42.1500   24.2560 N.am  239  SER239     -0.1936
     82  CA         9.1270   41.7760   25.6570 C.3   239  SER239      0.2055
     83  C          9.0620   40.2530   25.8530 C.2   239  SER239      0.2643
     84  O          8.5240   39.5100   25.0120 O.2   239  SER239     -0.2714
     85  CB         7.9640   42.5020   26.3420 C.3   239  SER239      0.2130
     86  OG         6.6840   42.0450   25.9650 O.3   239  SER239     -0.2179
     87  N          9.7180   39.8100   26.9280 N.am  240  ARG240     -0.1963
     88  CA         9.7850   38.4210   27.3810 C.3   240  ARG240      0.1729
     89  C          9.4330   38.4240   28.8990 C.2   240  ARG240      0.2616
     90  O         10.0770   37.7530   29.6890 O.2   240  ARG240     -0.2715
     91  CB        11.2000   37.8840   27.1290 C.3   240  ARG240      0.0348
     92  CG        11.5710   37.6490   25.6510 C.3   240  ARG240      0.0492
     93  CD        13.0600   37.9570   25.4350 C.3   240  ARG240      0.2205
     94  NE        13.2830   39.4090   25.4960 N.pl3 240  ARG240     -0.0865
     95  CZ        14.4240   40.0250   25.7920 C.cat 240  ARG240      0.5346
     96  NH1       14.5000   41.3470   25.7470 N.pl3 240  ARG240      0.1354
     97  NH2       15.5090   39.3220   26.1000 N.pl3 240  ARG240      0.1354
     98  N          8.4230   39.2150   29.2900 N.am  241  LYS241     -0.1977
     99  CA         7.9760   39.3700   30.6790 C.3   241  LYS241      0.1596
    100  C          7.3350   38.1340   31.2770 C.2   241  LYS241      0.2287
    101  O          7.5430   37.8830   32.4620 O.2   241  LYS241     -0.2864
    102  CB         7.0310   40.5750   30.8350 C.3   241  LYS241      0.0298
    103  CG         7.6930   41.9210   30.5200 C.3   241  LYS241      0.0038
    104  CD         7.0410   43.0990   31.2440 C.3   241  LYS241      0.0206
    105  CE         5.6910   43.5110   30.7050 C.3   241  LYS241      0.1093
    106  NZ         5.7890   44.0950   29.3490 N.3   241  LYS241     -0.1314
    107  N          9.6480   35.7230   32.9360 N.3   244  GLN244     -0.1245
    108  CA        10.3860   36.2920   34.0780 C.3   244  GLN244      0.1566
    109  C          9.6390   36.1050   35.3730 C.2   244  GLN244      0.2260
    110  O         10.2540   36.2180   36.4160 O.2   244  GLN244     -0.2867
    111  CB        10.6630   37.8020   33.8830 C.3   244  GLN244      0.0367
    112  CG        11.5940   38.0920   32.7260 C.3   244  GLN244      0.0905
    113  CD        11.6300   39.5570   32.3830 C.2   244  GLN244      0.2608
    114  OE1       11.5330   40.4420   33.2410 O.2   244  GLN244     -0.2717
    115  NE2       11.8580   39.8430   31.1270 N.am  244  GLN244     -0.0878
    116  N         17.2730   30.3640   32.6010 N.3   255  LYS255     -0.1231
    117  CA        16.6170   31.5510   33.1580 C.3   255  LYS255      0.1693
    118  C         16.5950   32.7520   32.2260 C.2   255  LYS255      0.2592
    119  O         15.6210   33.4930   32.2530 O.2   255  LYS255     -0.2718
    120  CB        17.2110   31.9400   34.5320 C.3   255  LYS255      0.0285
    121  CG        18.6880   32.3970   34.5320 C.3   255  LYS255      0.0035
    122  CD        19.2930   32.4990   35.9470 C.3   255  LYS255      0.0206
    123  CE        18.9750   33.7930   36.6660 C.3   255  LYS255      0.1093
    124  NZ        19.6890   33.9120   37.9680 N.3   255  LYS255     -0.1314
    125  N         17.6320   32.9420   31.3840 N.am  256  ASN256     -0.1974
    126  CA        17.6530   34.1150   30.5230 C.3   256  ASN256      0.1688
    127  C         17.3750   33.8040   29.0410 C.2   256  ASN256      0.2292
    128  O         17.5900   34.6710   28.1830 O.2   256  ASN256     -0.2864
    129  CB        18.9580   34.9200   30.7260 C.3   256  ASN256      0.1181
    130  CG        19.1640   35.3650   32.1520 C.2   256  ASN256      0.2629
    131  OD1       18.2370   35.7560   32.8670 O.2   256  ASN256     -0.2716
    132  ND2       20.3830   35.3070   32.5990 N.am  256  ASN256     -0.0877
    133  N         14.1970   33.0250   26.9930 N.3   258  LEU258     -0.1245
    134  CA        12.7460   33.1810   27.1680 C.3   258  LEU258      0.1561
    135  C         11.9140   33.3380   25.9040 C.2   258  LEU258      0.2260
    136  O         12.3930   33.8880   24.9110 O.2   258  LEU258     -0.2867
    137  CB        12.5080   34.4020   28.0860 C.3   258  LEU258      0.0270
    138  CG        13.1780   34.3710   29.4700 C.3   258  LEU258      0.0019
    139  CD1       12.8900   35.6530   30.2430 C.3   258  LEU258      0.0001
    140  CD2       12.7510   33.1750   30.2670 C.3   258  LEU258      0.0001
@<TRIPOS>BOND
     1    80    79    1
     2    79    78   ar
     3    79    77   ar
     4    78    76   ar
     5    77    75   ar
     6    76    74   ar
     7    75    74   ar
     8    74    73    1
     9    61    62    1
    10    73    70    1
    11    62    63    1
    12    62    65    1
    13    69    70    1
    14    69    63   am
    15    66    67    1
    16    66    65    1
    17    66    68    1
    18    70    71    1
    19    63    64    2
    20    20    18   ar
    21    12    13    1
    22    18    17    1
    23    18    19   ar
    24    17    16    1
    25    71    72    2
    26    71    81   am
    27     4     3    2
    28    81    82    1
    29    16    13    1
    30    13    14    1
    31     3     2    1
    32   136   135    2
    33    84    83    2
    34    93    94    1
    35    93    92    1
    36    94    95    2
    37    92    91    1
    38    82    83    1
    39    82    85    1
    40    96    95    1
    41    95    97    1
    42    83    87   am
    43    14    15    2
    44   135   134    1
    45    29    27   am
    46    86    85    1
    47     5     2    1
    48     5     6    1
    49     2     1    1
    50    28    27    2
    51    27    26    1
    52    25    26    1
    53    25    22    1
    54    21    22    1
    55    87    88    1
    56   133   134    1
    57    91    88    1
    58   134   137    1
    59    22    23    1
    60    88    89    1
    61     6     7   ar
    62     6     8   ar
    63   137   138    1
    64     7     9   ar
    65   128   127    2
    66     8    10   ar
    67    23    30   am
    68    23    24    2
    69    89    98   am
    70    89    90    2
    71    30    31    1
    72   127   126    1
    73    98    99    1
    74   106   105    1
    75     9    11   ar
    76   138   139    1
    77   138   140    1
    78    10    11   ar
    79    31    34    1
    80    31    32    1
    81    34    35    1
    82   103   102    1
    83   103   104    1
    84   126   129    1
    85   126   125    1
    86    99   102    1
    87    99   100    1
    88   105   104    1
    89   129   130    1
    90   115   113   am
    91    32    33    2
    92   100   101    2
    93   125   118   am
    94    35    36   ar
    95    35    37   ar
    96   130   132   am
    97   130   131    2
    98    42    43    1
    99   118   119    2
   100   118   117    1
   101    36    38   ar
   102   113   112    1
   103   113   114    2
   104    46    43    1
   105    46    47    1
   106    37    39   ar
   107   116   117    1
   108   112   111    1
   109    49    48   ar
   110   107   108    1
   111    43    44    1
   112   117   120    1
   113    47    48    1
   114    38    40   ar
   115    48    50   ar
   116    39    40   ar
   117    59    57   ar
   118    59    60   ar
   119   111   108    1
   120    57    56   ar
   121   108   109    1
   122    40    41    1
   123    44    51   am
   124    44    45    2
   125   121   120    1
   126   121   122    1
   127    51    52    1
   128    60    58   ar
   129    56    55    1
   130    56    58   ar
   131   109   110    2
   132    55    52    1
   133    54    53    2
   134    52    53    1
   135   122   123    1
   136   123   124    1
