@<TRIPOS>MOLECULE
tmp/6bmxA00.pdb
 158 152 0 0 0
SMALL
GASTEIGER

@<TRIPOS>ATOM
      1  N         22.8580   32.4330   26.7280 N.3    69  PHE69      -0.1241
      2  CA        21.9080   33.3430   26.0810 C.3    69  PHE69       0.1605
      3  C         21.5760   32.9300   24.6600 C.2    69  PHE69       0.2264
      4  O         22.3740   32.2380   24.0230 O.2    69  PHE69      -0.2867
      5  CB        22.4730   34.8010   26.0800 C.3    69  PHE69       0.0534
      6  CG        22.6070   35.3950   27.4670 C.ar   69  PHE69      -0.0203
      7  CD1       23.7420   35.1620   28.2330 C.ar   69  PHE69      -0.0042
      8  CD2       21.6120   36.2020   27.9920 C.ar   69  PHE69      -0.0042
      9  CE1       23.8550   35.6740   29.5150 C.ar   69  PHE69      -0.0003
     10  CE2       21.7400   36.7470   29.2640 C.ar   69  PHE69      -0.0003
     11  CZ        22.8630   36.4850   30.0190 C.ar   69  PHE69      -0.0000
     12  N         21.0400   40.0060   23.3230 N.3    74  GLU74      -0.1245
     13  CA        20.3150   39.5950   24.5310 C.3    74  GLU74       0.1567
     14  C         21.2690   39.5160   25.7220 C.2    74  GLU74       0.2260
     15  O         20.9310   39.9700   26.8050 O.2    74  GLU74      -0.2867
     16  CB        19.5320   38.2740   24.3190 C.3    74  GLU74       0.0388
     17  CG        18.2320   38.5170   23.5750 C.3    74  GLU74       0.1160
     18  CD        17.2150   37.3980   23.4330 C.2    74  GLU74       0.3649
     19  OE1       17.4300   36.2890   23.9730 O.co2  74  GLU74      -0.2457
     20  OE2       16.1890   37.6420   22.7610 O.co2  74  GLU74      -0.2457
     21  N         22.3280   43.3060   26.4960 N.3    77  GLN77      -0.1231
     22  CA        21.1640   43.9850   27.0970 C.3    77  GLN77       0.1698
     23  C         20.9560   43.5520   28.5430 C.2    77  GLN77       0.2592
     24  O         20.6460   44.3770   29.4050 O.2    77  GLN77      -0.2718
     25  CB        19.8920   43.6950   26.2850 C.3    77  GLN77       0.0381
     26  CG        18.6250   44.3580   26.8280 C.3    77  GLN77       0.0905
     27  CD        17.3450   43.7420   26.3240 C.2    77  GLN77       0.2608
     28  OE1       17.1190   42.5180   26.3860 O.2    77  GLN77      -0.2717
     29  NE2       16.4240   44.6080   25.9440 N.am   77  GLN77      -0.0878
     30  N         21.1740   42.2680   28.8170 N.am   78  TYR78      -0.1976
     31  CA        20.9950   41.7130   30.1450 C.3    78  TYR78       0.1639
     32  C         21.9910   42.2920   31.1390 C.2    78  TYR78       0.2290
     33  O         21.5710   42.8700   32.1340 O.2    78  TYR78      -0.2864
     34  CB        21.0560   40.1690   30.0990 C.3    78  TYR78       0.0560
     35  CG        20.9730   39.5150   31.4590 C.ar   78  TYR78      -0.0198
     36  CD1       19.7450   39.3000   32.0760 C.ar   78  TYR78      -0.0009
     37  CD2       22.1220   39.1410   32.1460 C.ar   78  TYR78      -0.0009
     38  CE1       19.6640   38.7440   33.3500 C.ar   78  TYR78       0.0417
     39  CE2       22.0500   38.5770   33.4200 C.ar   78  TYR78       0.0417
     40  CZ        20.8180   38.3770   34.0130 C.ar   78  TYR78       0.1957
     41  OH        20.7400   37.8150   35.2560 O.3    78  TYR78      -0.2866
     42  N         21.7160   45.9360   32.0640 N.3    81  GLU81      -0.1231
     43  CA        20.5360   46.2200   32.8730 C.3    81  GLU81       0.1699
     44  C         20.6310   45.6090   34.2600 C.2    81  GLU81       0.2592
     45  O         20.2070   46.2440   35.2090 O.2    81  GLU81      -0.2718
     46  CB        19.2550   45.7700   32.1440 C.3    81  GLU81       0.0402
     47  CG        17.9450   46.0030   32.8930 C.3    81  GLU81       0.1161
     48  CD        17.5830   47.4400   33.2160 C.2    81  GLU81       0.3649
     49  OE1       17.0670   48.1510   32.3230 O.co2  81  GLU81      -0.2457
     50  OE2       17.7860   47.8450   34.3810 O.co2  81  GLU81      -0.2457
     51  N         21.1790   44.3960   34.3830 N.am   82  HIS82      -0.1976
     52  CA        21.3120   43.6850   35.6520 C.3    82  HIS82       0.1656
     53  C         22.7760   43.5610   36.0780 C.2    82  HIS82       0.2291
     54  O         23.5110   42.7130   35.5570 O.2    82  HIS82      -0.2864
     55  CB        20.6190   42.3050   35.5770 C.3    82  HIS82       0.0771
     56  CG        19.2300   42.3530   35.0180 C.ar   82  HIS82       0.0820
     57  ND1       18.9830   42.0720   33.6910 N.ar   82  HIS82      -0.2267
     58  CD2       18.0590   42.6580   35.6260 C.ar   82  HIS82       0.1154
     59  CE1       17.6750   42.2060   33.5290 C.ar   82  HIS82       0.1986
     60  NE2       17.0740   42.5560   34.6660 N.ar   82  HIS82      -0.2212
     61  N         26.0380   40.5270   38.3190 N.3    85  GLN85      -0.1245
     62  CA        25.8060   39.1970   37.7720 C.3    85  GLN85       0.1566
     63  C         27.0160   38.5660   37.1010 C.2    85  GLN85       0.2260
     64  O         27.1290   37.3400   37.1120 O.2    85  GLN85      -0.2867
     65  CB        24.6310   39.2510   36.7960 C.3    85  GLN85       0.0367
     66  CG        23.7120   38.0610   36.8790 C.3    85  GLN85       0.0905
     67  CD        22.7520   38.1460   38.0340 C.2    85  GLN85       0.2608
     68  OE1       22.8590   37.4070   39.0120 O.2    85  GLN85      -0.2717
     69  NE2       21.7750   39.0230   37.9310 N.am   85  GLN85      -0.0878
     70  N         14.6740   42.6280   20.1330 N.3   238  LEU238     -0.1231
     71  CA        14.6670   42.5630   21.6020 C.3   238  LEU238      0.1693
     72  C         13.2570   42.7800   22.1960 C.2   238  LEU238      0.2592
     73  O         13.0590   43.6940   23.0010 O.2   238  LEU238     -0.2718
     74  CB        15.7300   43.4910   22.2380 C.3   238  LEU238      0.0284
     75  CG        17.2050   43.0830   21.9490 C.3   238  LEU238      0.0019
     76  CD1       18.1340   44.3050   21.9860 C.3   238  LEU238      0.0001
     77  CD2       17.7130   42.0050   22.9350 C.3   238  LEU238      0.0001
     78  N         12.2750   41.9210   21.8030 N.am  239  TYR239     -0.1962
     79  CA        10.8720   41.9710   22.2850 C.3   239  TYR239      0.1771
     80  C         10.7600   41.5030   23.7430 C.2   239  TYR239      0.2620
     81  O         11.6980   40.8920   24.2570 O.2   239  TYR239     -0.2715
     82  CB         9.9320   41.1500   21.3810 C.3   239  TYR239      0.0574
     83  CG        10.0230   41.4630   19.8960 C.ar  239  TYR239     -0.0198
     84  CD1        9.7830   42.7480   19.4150 C.ar  239  TYR239     -0.0009
     85  CD2       10.2880   40.4590   18.9680 C.ar  239  TYR239     -0.0009
     86  CE1        9.8630   43.0390   18.0580 C.ar  239  TYR239      0.0417
     87  CE2       10.3620   40.7380   17.6030 C.ar  239  TYR239      0.0417
     88  CZ        10.1100   42.0220   17.1510 C.ar  239  TYR239      0.1957
     89  OH        10.1290   42.2910   15.8060 O.3   239  TYR239     -0.2866
     90  N          9.6610   41.8390   24.4370 N.am  240  SER240     -0.1936
     91  CA         9.5630   41.4380   25.8400 C.3   240  SER240      0.2055
     92  C          9.4270   39.9370   26.0410 C.2   240  SER240      0.2643
     93  O          8.7980   39.2270   25.2230 O.2   240  SER240     -0.2714
     94  CB         8.4630   42.1910   26.5960 C.3   240  SER240      0.2130
     95  OG         7.1360   41.8920   26.2180 O.3   240  SER240     -0.2179
     96  N         10.0630   39.4760   27.1420 N.am  241  ARG241     -0.1963
     97  CA        10.0710   38.1100   27.6280 C.3   241  ARG241      0.1729
     98  C          9.7090   38.1720   29.1440 C.2   241  ARG241      0.2616
     99  O         10.2550   37.3990   29.9400 O.2   241  ARG241     -0.2715
    100  CB        11.4550   37.4730   27.4020 C.3   241  ARG241      0.0348
    101  CG        11.7870   37.1000   25.9500 C.3   241  ARG241      0.0492
    102  CD        12.6580   38.1300   25.2930 C.3   241  ARG241      0.2205
    103  NE        14.0020   38.2000   25.8450 N.pl3 241  ARG241     -0.0865
    104  CZ        14.7150   39.3180   25.9490 C.cat 241  ARG241      0.5346
    105  NH1       14.2000   40.4840   25.5660 N.pl3 241  ARG241      0.1354
    106  NH2       15.9410   39.2830   26.4590 N.pl3 241  ARG241      0.1354
    107  N          8.7600   39.0710   29.5180 N.am  242  LYS242     -0.1977
    108  CA         8.2550   39.2930   30.8780 C.3   242  LYS242      0.1596
    109  C          7.5980   38.0590   31.5350 C.2   242  LYS242      0.2287
    110  O          7.9490   37.7250   32.6620 O.2   242  LYS242     -0.2864
    111  CB         7.2890   40.5040   30.9380 C.3   242  LYS242      0.0298
    112  CG         7.9400   41.8610   30.6550 C.3   242  LYS242      0.0038
    113  CD         7.0080   43.0000   31.0590 C.3   242  LYS242      0.0206
    114  CE         7.6600   44.3540   31.0070 C.3   242  LYS242      0.1093
    115  NZ         6.8140   45.3520   30.2830 N.3   242  LYS242     -0.1314
    116  N          9.7510   35.4280   32.9610 N.3   245  GLN245     -0.1245
    117  CA        10.5210   35.9700   34.0830 C.3   245  GLN245      0.1566
    118  C          9.7990   35.8220   35.4410 C.2   245  GLN245      0.2260
    119  O         10.4430   35.9660   36.4870 O.2   245  GLN245     -0.2867
    120  CB        10.8170   37.4520   33.8360 C.3   245  GLN245      0.0367
    121  CG        11.8870   37.6820   32.8080 C.3   245  GLN245      0.0905
    122  CD        11.9720   39.1210   32.4150 C.2   245  GLN245      0.2608
    123  OE1       11.8400   40.0140   33.2420 O.2   245  GLN245     -0.2717
    124  NE2       12.2960   39.3700   31.1580 N.am  245  GLN245     -0.0878
    125  N          9.9880   30.4100   36.6460 N.3   250  LYS250     -0.1245
    126  CA        11.4430   30.2790   36.6690 C.3   250  LYS250      0.1561
    127  C         11.9230   28.8330   36.5080 C.2   250  LYS250      0.2260
    128  O         12.8240   28.5790   35.7070 O.2   250  LYS250     -0.2867
    129  CB        12.0340   30.9420   37.9170 C.3   250  LYS250      0.0271
    130  CG        12.2020   32.4430   37.7700 C.3   250  LYS250      0.0035
    131  CD        12.4400   33.1480   39.1180 C.3   250  LYS250      0.0206
    132  CE        12.5820   34.6410   38.9010 C.3   250  LYS250      0.1093
    133  NZ        12.7990   35.3800   40.1730 N.3   250  LYS250     -0.1314
    134  N         17.8510   29.7730   32.4030 N.3   256  LYS256     -0.1231
    135  CA        17.4120   30.9630   33.1530 C.3   256  LYS256      0.1693
    136  C         17.0830   32.1870   32.2430 C.2   256  LYS256      0.2592
    137  O         16.0140   32.8030   32.3910 O.2   256  LYS256     -0.2718
    138  CB        18.5280   31.3180   34.1700 C.3   256  LYS256      0.0285
    139  CG        18.2180   32.4260   35.1390 C.3   256  LYS256      0.0035
    140  CD        19.5010   33.0710   35.6420 C.3   256  LYS256      0.0206
    141  CE        19.2300   34.3840   36.3720 C.3   256  LYS256      0.1093
    142  NZ        18.8450   35.5020   35.4500 N.3   256  LYS256     -0.1314
    143  N         17.9880   32.4730   31.2550 N.am  257  ASN257     -0.1974
    144  CA        17.9320   33.6410   30.3810 C.3   257  ASN257      0.1688
    145  C         17.5360   33.4110   28.9260 C.2   257  ASN257      0.2292
    146  O         17.5880   34.3520   28.1460 O.2   257  ASN257     -0.2864
    147  CB        19.2820   34.3660   30.4280 C.3   257  ASN257      0.1181
    148  CG        19.7780   34.7000   31.8060 C.2   257  ASN257      0.2629
    149  OD1       19.0410   35.0560   32.7200 O.2   257  ASN257     -0.2716
    150  ND2       21.0540   34.6030   31.9770 N.am  257  ASN257     -0.0877
    151  N         14.4440   32.8240   27.1040 N.3   259  LEU259     -0.1245
    152  CA        13.0060   32.9070   27.3460 C.3   259  LEU259      0.1561
    153  C         12.1670   33.0640   26.0980 C.2   259  LEU259      0.2260
    154  O         12.6870   33.5080   25.0880 O.2   259  LEU259     -0.2867
    155  CB        12.7220   34.0800   28.2920 C.3   259  LEU259      0.0270
    156  CG        13.4700   34.1220   29.6130 C.3   259  LEU259      0.0019
    157  CD1       13.3700   35.4780   30.2230 C.3   259  LEU259      0.0001
    158  CD2       13.0380   33.0550   30.5290 C.3   259  LEU259      0.0001
@<TRIPOS>BOND
     1    89    88    1
     2    88    87   ar
     3    88    86   ar
     4    87    85   ar
     5    86    84   ar
     6    85    83   ar
     7    84    83   ar
     8    83    82    1
     9    70    71    1
    10    82    79    1
    11    71    72    1
    12    71    74    1
    13    78    72   am
    14    78    79    1
    15    75    76    1
    16    75    74    1
    17    75    77    1
    18    72    73    2
    19    79    80    1
    20    20    18   ar
    21    12    13    1
    22    18    17    1
    23    18    19   ar
    24    17    16    1
    25    80    81    2
    26    80    90   am
    27     4     3    2
    28    16    13    1
    29    90    91    1
    30    13    14    1
    31     3     2    1
    32   154   153    2
    33    93    92    2
    34   102   103    1
    35   102   101    1
    36   105   104    1
    37    14    15    2
    38    91    92    1
    39    91    94    1
    40   103   104    2
    41    29    27   am
    42   104   106    1
    43   101   100    1
    44    92    96   am
    45     5     2    1
    46     5     6    1
    47     2     1    1
    48   153   152    1
    49    95    94    1
    50    25    26    1
    51    25    22    1
    52    27    28    2
    53    27    26    1
    54    21    22    1
    55    22    23    1
    56   151   152    1
    57    96    97    1
    58   152   155    1
    59   100    97    1
    60     6     8   ar
    61     6     7   ar
    62    97    98    1
    63     8    10   ar
    64   146   145    2
    65     7     9   ar
    66   155   156    1
    67    23    30   am
    68    23    24    2
    69    30    31    1
    70   145   144    1
    71    98   107   am
    72    98    99    2
    73    10    11   ar
    74     9    11   ar
    75   107   108    1
    76   156   157    1
    77   156   158    1
    78    34    31    1
    79    34    35    1
    80    31    32    1
    81   115   114    1
    82   144   147    1
    83   144   143    1
    84   147   148    1
    85   112   111    1
    86   112   113    1
    87   108   111    1
    88   108   109    1
    89   114   113    1
    90    32    33    2
    91   124   122   am
    92   143   136   am
    93    35    36   ar
    94    35    37   ar
    95   109   110    2
    96   148   150   am
    97   148   149    2
    98    42    43    1
    99    36    38   ar
   100    46    43    1
   101    46    47    1
   102    37    39   ar
   103   136   137    2
   104   136   135    1
   105    49    48   ar
   106   134   135    1
   107   122   121    1
   108   122   123    2
   109   121   120    1
   110    43    44    1
   111    47    48    1
   112   116   117    1
   113   135   138    1
   114    48    50   ar
   115    38    40   ar
   116    39    40   ar
   117    59    57   ar
   118    59    60   ar
   119    57    56   ar
   120   120   117    1
   121    40    41    1
   122   117   118    1
   123   138   139    1
   124    44    51   am
   125    44    45    2
   126    51    52    1
   127    60    58   ar
   128    56    55    1
   129    56    58   ar
   130   139   140    1
   131   118   119    2
   132   142   141    1
   133    54    53    2
   134    55    52    1
   135   140   141    1
   136    52    53    1
   137   128   127    2
   138   127   126    1
   139   125   126    1
   140   126   129    1
   141    65    66    1
   142    65    62    1
   143    66    67    1
   144    63    64    2
   145    63    62    1
   146   130   129    1
   147   130   131    1
   148    62    61    1
   149    69    67   am
   150    67    68    2
   151   132   131    1
   152   132   133    1
