@<TRIPOS>MOLECULE
tmp/6bmyA01.pdb
 158 152 0 0 0
SMALL
GASTEIGER

@<TRIPOS>ATOM
      1  N         22.6170   32.2790   26.8920 N.3    67  PHE67      -0.1241
      2  CA        21.7460   33.2440   26.2110 C.3    67  PHE67       0.1605
      3  C         21.4040   32.8560   24.8070 C.2    67  PHE67       0.2264
      4  O         22.1730   32.1580   24.1520 O.2    67  PHE67      -0.2867
      5  CB        22.4120   34.6510   26.1980 C.3    67  PHE67       0.0534
      6  CG        22.5460   35.2480   27.5720 C.ar   67  PHE67      -0.0203
      7  CD1       21.5260   36.0140   28.1170 C.ar   67  PHE67      -0.0042
      8  CD2       23.6870   35.0330   28.3320 C.ar   67  PHE67      -0.0042
      9  CE1       21.6530   36.5630   29.4000 C.ar   67  PHE67      -0.0003
     10  CE2       23.7890   35.5410   29.6220 C.ar   67  PHE67      -0.0003
     11  CZ        22.7780   36.3160   30.1420 C.ar   67  PHE67      -0.0000
     12  N         20.8540   39.9320   23.5690 N.3    72  GLU72      -0.1245
     13  CA        20.1190   39.5860   24.7990 C.3    72  GLU72       0.1567
     14  C         21.0560   39.4660   25.9630 C.2    72  GLU72       0.2260
     15  O         20.6950   39.8800   27.0650 O.2    72  GLU72      -0.2867
     16  CB        19.2920   38.2960   24.6430 C.3    72  GLU72       0.0388
     17  CG        18.0650   38.4840   23.7610 C.3    72  GLU72       0.1160
     18  CD        17.0750   37.3370   23.6440 C.2    72  GLU72       0.3649
     19  OE1       17.1510   36.3740   24.4420 O.co2  72  GLU72      -0.2457
     20  OE2       16.1690   37.4420   22.7860 O.co2  72  GLU72      -0.2457
     21  N         22.1460   43.1620   26.6590 N.3    75  GLN75      -0.1231
     22  CA        20.9980   43.8640   27.2450 C.3    75  GLN75       0.1698
     23  C         20.8310   43.4580   28.7130 C.2    75  GLN75       0.2592
     24  O         20.6640   44.3260   29.5600 O.2    75  GLN75      -0.2718
     25  CB        19.7160   43.6000   26.4450 C.3    75  GLN75       0.0381
     26  CG        18.5220   44.3910   26.9460 C.3    75  GLN75       0.0905
     27  CD        17.1970   43.8200   26.5030 C.2    75  GLN75       0.2608
     28  OE1       16.9480   42.6120   26.5640 O.2    75  GLN75      -0.2717
     29  NE2       16.3120   44.6940   26.0580 N.am   75  GLN75      -0.0878
     30  N         20.9360   42.1440   29.0180 N.am   76  TYR76      -0.1976
     31  CA        20.7640   41.6290   30.3770 C.3    76  TYR76       0.1639
     32  C         21.8310   42.1510   31.3570 C.2    76  TYR76       0.2290
     33  O         21.4740   42.6170   32.4330 O.2    76  TYR76      -0.2864
     34  CB        20.6810   40.0790   30.3640 C.3    76  TYR76       0.0560
     35  CG        20.6620   39.4230   31.7240 C.ar   76  TYR76      -0.0198
     36  CD1       19.4640   39.1890   32.3890 C.ar   76  TYR76      -0.0009
     37  CD2       21.8410   39.0200   32.3420 C.ar   76  TYR76      -0.0009
     38  CE1       19.4430   38.6020   33.6540 C.ar   76  TYR76       0.0417
     39  CE2       21.8280   38.4100   33.6020 C.ar   76  TYR76       0.0417
     40  CZ        20.6280   38.2180   34.2560 C.ar   76  TYR76       0.1957
     41  OH        20.6110   37.5880   35.4750 O.3    76  TYR76      -0.2866
     42  N         21.7080   45.8510   32.3100 N.3    79  GLU79      -0.1231
     43  CA        20.5450   46.0800   33.1570 C.3    79  GLU79       0.1699
     44  C         20.6440   45.4260   34.5410 C.2    79  GLU79       0.2592
     45  O         20.1410   46.0110   35.4970 O.2    79  GLU79      -0.2718
     46  CB        19.2670   45.6200   32.4380 C.3    79  GLU79       0.0402
     47  CG        17.9590   45.9900   33.1370 C.3    79  GLU79       0.1161
     48  CD        17.5900   47.4620   33.1220 C.2    79  GLU79       0.3649
     49  OE1       17.9790   48.1760   32.1670 O.co2  79  GLU79      -0.2457
     50  OE2       16.8800   47.8940   34.0580 O.co2  79  GLU79      -0.2457
     51  N         21.2650   44.2300   34.6540 N.am   80  HIS80      -0.1976
     52  CA        21.3570   43.4790   35.9210 C.3    80  HIS80       0.1656
     53  C         22.7820   43.3530   36.4430 C.2    80  HIS80       0.2291
     54  O         23.4740   42.3700   36.1580 O.2    80  HIS80      -0.2864
     55  CB        20.6740   42.1040   35.8010 C.3    80  HIS80       0.0771
     56  CG        19.3060   42.1790   35.1970 C.ar   80  HIS80       0.0820
     57  ND1       19.1180   42.0770   33.8330 N.ar   80  HIS80      -0.2267
     58  CD2       18.1100   42.4130   35.7850 C.ar   80  HIS80       0.1154
     59  CE1       17.8180   42.2040   33.6400 C.ar   80  HIS80       0.1986
     60  NE2       17.1700   42.4010   34.7870 N.ar   80  HIS80      -0.2212
     61  N         25.8690   40.2090   38.2560 N.3    83  GLN83      -0.1245
     62  CA        25.7110   38.8630   37.7130 C.3    83  GLN83       0.1566
     63  C         26.9670   38.3210   37.0280 C.2    83  GLN83       0.2260
     64  O         27.1430   37.1020   36.9790 O.2    83  GLN83      -0.2867
     65  CB        24.4840   38.7550   36.7930 C.3    83  GLN83       0.0367
     66  CG        23.1320   39.1270   37.4260 C.3    83  GLN83       0.0905
     67  CD        22.5790   38.1990   38.5010 C.2    83  GLN83       0.2608
     68  OE1       21.5770   38.5150   39.1490 O.2    83  GLN83      -0.2717
     69  NE2       23.1820   37.0390   38.7250 N.am   83  GLN83      -0.0878
     70  N         14.6420   42.5890   20.4340 N.3   229  LEU229     -0.1231
     71  CA        14.6090   42.4950   21.9020 C.3   229  LEU229      0.1693
     72  C         13.2050   42.7400   22.4760 C.2   229  LEU229      0.2592
     73  O         13.0070   43.6520   23.2750 O.2   229  LEU229     -0.2718
     74  CB        15.6760   43.3980   22.5670 C.3   229  LEU229      0.0284
     75  CG        17.1260   43.0670   22.1090 C.3   229  LEU229      0.0019
     76  CD1       18.0390   44.2760   22.2440 C.3   229  LEU229      0.0001
     77  CD2       17.6690   41.8490   22.8450 C.3   229  LEU229      0.0001
     78  N         12.2420   41.8870   22.0890 N.am  230  TYR230     -0.1962
     79  CA        10.8350   41.9410   22.5260 C.3   230  TYR230      0.1771
     80  C         10.7140   41.5330   23.9820 C.2   230  TYR230      0.2620
     81  O         11.5850   40.8250   24.4990 O.2   230  TYR230     -0.2715
     82  CB         9.9560   41.0390   21.6330 C.3   230  TYR230      0.0574
     83  CG        10.0020   41.4160   20.1660 C.ar  230  TYR230     -0.0198
     84  CD1        9.6560   42.7010   19.7420 C.ar  230  TYR230     -0.0009
     85  CD2       10.4330   40.5110   19.2090 C.ar  230  TYR230     -0.0009
     86  CE1        9.7390   43.0680   18.3990 C.ar  230  TYR230      0.0417
     87  CE2       10.4920   40.8560   17.8620 C.ar  230  TYR230      0.0417
     88  CZ        10.1330   42.1320   17.4600 C.ar  230  TYR230      0.1957
     89  OH        10.1950   42.4790   16.1370 O.3   230  TYR230     -0.2866
     90  N          9.6400   41.9750   24.6580 N.am  231  SER231     -0.1936
     91  CA         9.4540   41.6190   26.0610 C.3   231  SER231      0.2055
     92  C          9.2880   40.1210   26.2370 C.2   231  SER231      0.2643
     93  O          8.6650   39.4500   25.3900 O.2   231  SER231     -0.2714
     94  CB         8.2790   42.3720   26.6790 C.3   231  SER231      0.2130
     95  OG         7.0040   41.8760   26.3260 O.3   231  SER231     -0.2179
     96  N          9.8880   39.6100   27.3240 N.am  232  ARG232     -0.1963
     97  CA         9.8470   38.2250   27.7690 C.3   232  ARG232      0.1729
     98  C          9.5090   38.2650   29.2580 C.2   232  ARG232      0.2616
     99  O         10.1160   37.5580   30.0640 O.2   232  ARG232     -0.2715
    100  CB        11.1960   37.5170   27.5040 C.3   232  ARG232      0.0348
    101  CG        11.5860   37.4020   26.0140 C.3   232  ARG232      0.0492
    102  CD        13.0610   37.6870   25.8100 C.3   232  ARG232      0.2205
    103  NE        13.3430   39.1320   25.7720 N.pl3 232  ARG232     -0.0865
    104  CZ        14.5140   39.6980   26.0600 C.cat 232  ARG232      0.5346
    105  NH1       14.6600   41.0110   25.9790 N.pl3 232  ARG232      0.1354
    106  NH2       15.5390   38.9580   26.4590 N.pl3 232  ARG232      0.1354
    107  N          8.5010   39.0780   29.6160 N.am  233  LYS233     -0.1977
    108  CA         8.0650   39.2530   31.0090 C.3   233  LYS233      0.1596
    109  C          7.4410   38.0170   31.6480 C.2   233  LYS233      0.2287
    110  O          7.7670   37.6970   32.8060 O.2   233  LYS233     -0.2864
    111  CB         7.1040   40.4670   31.1350 C.3   233  LYS233      0.0298
    112  CG         7.7400   41.7710   30.6390 C.3   233  LYS233      0.0038
    113  CD         7.0340   43.0280   31.1230 C.3   233  LYS233      0.0206
    114  CE         8.0550   44.0340   31.6140 C.3   233  LYS233      0.1093
    115  NZ         7.5470   45.4320   31.5730 N.3   233  LYS233     -0.1314
    116  N          9.7360   35.4600   33.1670 N.3   236  GLN236     -0.1245
    117  CA        10.4600   35.9750   34.3290 C.3   236  GLN236      0.1566
    118  C          9.6780   35.8390   35.6180 C.2   236  GLN236      0.2260
    119  O         10.2770   35.9970   36.6770 O.2   236  GLN236     -0.2867
    120  CB        10.7780   37.4670   34.1400 C.3   236  GLN236      0.0367
    121  CG        11.7570   37.7850   33.0360 C.3   236  GLN236      0.0905
    122  CD        11.8760   39.2690   32.8430 C.2   236  GLN236      0.2608
    123  OE1       12.0020   40.0440   33.8030 O.2   236  GLN236     -0.2717
    124  NE2       11.9350   39.6870   31.5960 N.am  236  GLN236     -0.0878
    125  N          9.8070   30.6210   36.7480 N.3   241  LYS241     -0.1245
    126  CA        11.2720   30.4460   36.7570 C.3   241  LYS241      0.1561
    127  C         11.7410   29.0010   36.5680 C.2   241  LYS241      0.2260
    128  O         12.5940   28.7710   35.7180 O.2   241  LYS241     -0.2867
    129  CB        11.9280   31.0650   38.0090 C.3   241  LYS241      0.0271
    130  CG        11.8090   32.5930   38.0730 C.3   241  LYS241      0.0035
    131  CD        13.1710   33.2830   38.2880 C.3   241  LYS241      0.0206
    132  CE        13.2770   34.6690   37.6690 C.3   241  LYS241      0.1093
    133  NZ        13.3040   34.6330   36.1770 N.3   241  LYS241     -0.1314
    134  N         17.5410   29.6350   32.5440 N.3   247  LYS247     -0.1231
    135  CA        16.8870   30.7880   33.1810 C.3   247  LYS247      0.1693
    136  C         16.8290   32.0590   32.3400 C.2   247  LYS247      0.2592
    137  O         15.8390   32.7750   32.4300 O.2   247  LYS247     -0.2718
    138  CB        17.4630   31.1000   34.5780 C.3   247  LYS247      0.0285
    139  CG        18.9450   31.4790   34.6580 C.3   247  LYS247      0.0035
    140  CD        19.1690   32.3180   35.9260 C.3   247  LYS247      0.0206
    141  CE        20.5360   32.1590   36.5470 C.3   247  LYS247      0.1093
    142  NZ        20.8690   33.2850   37.4640 N.3   247  LYS247     -0.1314
    143  N         17.8240   32.3010   31.4880 N.am  248  ASN248     -0.1974
    144  CA        17.8880   33.5070   30.6640 C.3   248  ASN248      0.1688
    145  C         17.4350   33.3120   29.1880 C.2   248  ASN248      0.2292
    146  O         17.5130   34.2530   28.4070 O.2   248  ASN248     -0.2864
    147  CB        19.3090   34.1210   30.7770 C.3   248  ASN248      0.1181
    148  CG        19.5750   34.6620   32.1840 C.2   248  ASN248      0.2629
    149  OD1       18.6730   34.8690   32.9890 O.2   248  ASN248     -0.2716
    150  ND2       20.8020   34.9240   32.5220 N.am  248  ASN248     -0.0877
    151  N         14.2260   32.7550   27.2010 N.3   250  LEU250     -0.1245
    152  CA        12.7940   32.9140   27.4380 C.3   250  LEU250      0.1561
    153  C         11.9710   33.1090   26.2060 C.2   250  LEU250      0.2260
    154  O         12.4880   33.6780   25.2410 O.2   250  LEU250     -0.2867
    155  CB        12.5940   34.1260   28.3970 C.3   250  LEU250      0.0270
    156  CG        13.3770   34.1020   29.7360 C.3   250  LEU250      0.0019
    157  CD1       13.2380   35.4310   30.4810 C.3   250  LEU250      0.0001
    158  CD2       12.9490   32.9720   30.6000 C.3   250  LEU250      0.0001
@<TRIPOS>BOND
     1    89    88    1
     2    88    87   ar
     3    88    86   ar
     4    87    85   ar
     5    86    84   ar
     6    85    83   ar
     7    84    83   ar
     8    83    82    1
     9    70    71    1
    10    82    79    1
    11    71    72    1
    12    71    74    1
    13    78    72   am
    14    78    79    1
    15    75    76    1
    16    75    74    1
    17    75    77    1
    18    72    73    2
    19    79    80    1
    20    20    18   ar
    21    12    13    1
    22    18    17    1
    23    18    19   ar
    24    17    16    1
    25    80    81    2
    26    80    90   am
    27     4     3    2
    28    16    13    1
    29    90    91    1
    30    13    14    1
    31     3     2    1
    32   154   153    2
    33    93    92    2
    34   103   102    1
    35   103   104    2
    36   102   101    1
    37    14    15    2
    38   105   104    1
    39   101   100    1
    40    29    27   am
    41   104   106    1
    42    91    92    1
    43    91    94    1
    44     5     2    1
    45     5     6    1
    46   153   152    1
    47     2     1    1
    48    92    96   am
    49    95    94    1
    50    25    26    1
    51    25    22    1
    52    27    28    2
    53    27    26    1
    54    21    22    1
    55   151   152    1
    56    22    23    1
    57    96    97    1
    58   152   155    1
    59   100    97    1
    60     6     7   ar
    61     6     8   ar
    62    97    98    1
    63     7     9   ar
    64     8    10   ar
    65   155   156    1
    66   146   145    2
    67    23    30   am
    68    23    24    2
    69    30    31    1
    70   145   144    1
    71    98   107   am
    72    98    99    2
    73     9    11   ar
    74   107   108    1
    75    10    11   ar
    76   156   157    1
    77   156   158    1
    78    34    31    1
    79    34    35    1
    80    31    32    1
    81   112   113    1
    82   112   111    1
    83   144   147    1
    84   144   143    1
    85   147   148    1
    86   108   111    1
    87   108   109    1
    88   113   114    1
    89    32    33    2
    90   143   136   am
    91   115   114    1
    92   124   122   am
    93   109   110    2
    94    35    37   ar
    95    35    36   ar
    96    49    48   ar
    97   148   150   am
    98   148   149    2
    99    42    43    1
   100   136   137    2
   101   136   135    1
   102    37    39   ar
   103    36    38   ar
   104    46    47    1
   105    46    43    1
   106   134   135    1
   107   122   121    1
   108   122   123    2
   109   121   120    1
   110    48    47    1
   111    48    50   ar
   112    43    44    1
   113   116   117    1
   114   135   138    1
   115    39    40   ar
   116    59    57   ar
   117    59    60   ar
   118    38    40   ar
   119    57    56   ar
   120   120   117    1
   121    40    41    1
   122   117   118    1
   123    44    51   am
   124    44    45    2
   125   138   139    1
   126    51    52    1
   127   139   140    1
   128    60    58   ar
   129    56    58   ar
   130    56    55    1
   131   118   119    2
   132   128   127    2
   133    55    52    1
   134    52    53    1
   135   140   141    1
   136    54    53    2
   137   133   132    1
   138   141   142    1
   139   127   126    1
   140   125   126    1
   141   126   129    1
   142    65    66    1
   143    65    62    1
   144    64    63    2
   145    63    62    1
   146    66    67    1
   147   132   131    1
   148    62    61    1
   149   129   130    1
   150   130   131    1
   151    67    69   am
   152    67    68    2
