@<TRIPOS>MOLECULE
tmp/6bn5B00.pdb
 130 121 0 0 0
SMALL
GASTEIGER

@<TRIPOS>ATOM
      1  N         68.2200   78.3940   27.6110 N.3    91  ARG91      -0.1245
      2  CA        66.9570   78.5590   28.3730 C.3    91  ARG91       0.1563
      3  C         66.8250   77.6280   29.5810 C.2    91  ARG91       0.2260
      4  O         66.4900   78.0960   30.6790 O.2    91  ARG91      -0.2867
      5  CB        65.6880   78.4920   27.5080 C.3    91  ARG91       0.0307
      6  CG        65.3790   79.7990   26.8150 C.3    91  ARG91       0.0489
      7  CD        64.2130   79.6740   25.8590 C.3    91  ARG91       0.2205
      8  NE        62.9200   79.5630   26.5400 N.pl3  91  ARG91      -0.0865
      9  CZ        61.8930   78.8730   26.0600 C.cat  91  ARG91       0.5346
     10  NH1       62.0010   78.2260   24.9050 N.pl3  91  ARG91       0.1354
     11  NH2       60.7480   78.8240   26.7300 N.pl3  91  ARG91       0.1354
     12  N         60.9950   79.5310   33.5590 N.3   172  ASN172     -0.1225
     13  CA        61.0850   80.9600   33.2510 C.3   172  ASN172      0.1785
     14  C         61.9640   81.6800   34.2900 C.2   172  ASN172      0.2598
     15  O         61.7250   81.5620   35.4940 O.2   172  ASN172     -0.2718
     16  CB        59.6930   81.5920   33.1440 C.3   172  ASN172      0.1169
     17  CG        59.6950   82.9290   32.4390 C.2   172  ASN172      0.2627
     18  OD1       60.2620   83.9150   32.9230 O.2   172  ASN172     -0.2716
     19  ND2       59.0740   82.9950   31.2680 N.am  172  ASN172     -0.0877
     20  N         62.9920   82.4030   33.8130 N.am  173  THR173     -0.1939
     21  CA        63.9870   83.1100   34.6300 C.3   173  THR173      0.2028
     22  C         64.0010   84.6270   34.3610 C.2   173  THR173      0.2642
     23  O         64.6000   85.3880   35.1330 O.2   173  THR173     -0.2714
     24  CB        65.4110   82.4600   34.4220 C.3   173  THR173      0.1808
     25  OG1       66.4400   83.4580   34.3440 O.3   173  THR173     -0.2208
     26  CG2       65.5040   81.5800   33.1740 C.3   173  THR173      0.0379
     27  N         63.3530   85.0550   33.2680 N.am  174  THR174     -0.1950
     28  CA        63.3750   86.4300   32.7590 C.3   174  THR174      0.1897
     29  C         62.1520   87.3180   33.1400 C.2   174  THR174      0.2313
     30  O         62.2540   88.5400   33.0340 O.2   174  THR174     -0.2863
     31  CB        63.5760   86.3740   31.2440 C.3   174  THR174      0.1794
     32  OG1       62.4810   85.6620   30.6680 O.3   174  THR174     -0.2208
     33  CG2       64.8910   85.6650   30.8440 C.3   174  THR174      0.0378
     34  N         71.7170   87.0180   28.3910 N.3   196  GLU196     -0.1245
     35  CA        70.2590   86.9060   28.2160 C.3   196  GLU196      0.1567
     36  C         69.8770   87.1530   26.7550 C.2   196  GLU196      0.2260
     37  O         68.9990   86.4740   26.2210 O.2   196  GLU196     -0.2867
     38  CB        69.5010   87.8670   29.1480 C.3   196  GLU196      0.0388
     39  CG        68.0450   87.4610   29.3350 C.3   196  GLU196      0.1160
     40  CD        67.2420   88.2140   30.3790 C.2   196  GLU196      0.3649
     41  OE1       66.1230   88.6650   30.0410 O.co2 196  GLU196     -0.2457
     42  OE2       67.6790   88.2710   31.5520 O.co2 196  GLU196     -0.2457
     43  N         70.8450   84.2320   24.5580 N.3   199  THR199     -0.1203
     44  CA        69.8860   83.1710   24.9070 C.3   199  THR199      0.1994
     45  C         68.6310   83.4200   24.0400 C.2   199  THR199      0.2617
     46  O         67.9870   82.4710   23.5890 O.2   199  THR199     -0.2717
     47  CB        69.6200   83.1850   26.4340 C.3   199  THR199      0.1784
     48  OG1       70.7710   82.6660   27.0850 O.3   199  THR199     -0.2211
     49  CG2       68.4110   82.3610   26.8540 C.3   199  THR199      0.0376
     50  N         68.3260   84.7130   23.7750 N.am  200  LEU200     -0.1979
     51  CA        67.2060   85.1290   22.9340 C.3   200  LEU200      0.1596
     52  C         67.4270   84.8630   21.4580 C.2   200  LEU200      0.2287
     53  O         66.4860   84.5040   20.7620 O.2   200  LEU200     -0.2864
     54  CB        66.8340   86.6050   23.1840 C.3   200  LEU200      0.0297
     55  CG        65.5900   87.1550   22.4490 C.3   200  LEU200      0.0022
     56  CD1       64.3450   86.3710   22.8010 C.3   200  LEU200      0.0001
     57  CD2       65.4190   88.6110   22.7320 C.3   200  LEU200      0.0001
     58  N         66.9860   81.3320   19.9740 N.3   203  GLN203     -0.1245
     59  CA        65.5790   80.9690   19.8320 C.3   203  GLN203      0.1566
     60  C         64.9680   81.3520   18.4850 C.2   203  GLN203      0.2260
     61  O         63.8210   80.9810   18.2420 O.2   203  GLN203     -0.2867
     62  CB        64.7480   81.6180   20.9640 C.3   203  GLN203      0.0367
     63  CG        65.1960   81.3160   22.3920 C.3   203  GLN203      0.0905
     64  CD        65.5280   79.8660   22.6650 C.2   203  GLN203      0.2608
     65  OE1       64.6840   78.9780   22.5430 O.2   203  GLN203     -0.2717
     66  NE2       66.7610   79.6060   23.0890 N.am  203  GLN203     -0.0878
     67  N         63.3780   78.7120   16.0230 N.3   206  LYS206     -0.1231
     68  CA        62.2490   77.9820   16.6060 C.3   206  LYS206      0.1693
     69  C         60.9050   78.6830   16.2850 C.2   206  LYS206      0.2591
     70  O         59.8530   78.2930   16.8030 O.2   206  LYS206     -0.2718
     71  CB        62.4670   77.7950   18.1260 C.3   206  LYS206      0.0285
     72  CG        63.5690   76.7790   18.4620 C.3   206  LYS206      0.0035
     73  CD        64.1180   76.9700   19.8750 C.3   206  LYS206      0.0206
     74  CE        63.9610   75.7640   20.7680 C.3   206  LYS206      0.1093
     75  NZ        62.5560   75.5720   21.2260 N.3   206  LYS206     -0.1314
     76  N         60.9530   79.7040   15.4020 N.am  207  LEU207     -0.1980
     77  CA        59.8040   80.4820   14.9420 C.3   207  LEU207      0.1596
     78  C         59.4120   80.0110   13.5550 C.2   207  LEU207      0.2287
     79  O         60.2780   79.9070   12.6860 O.2   207  LEU207     -0.2864
     80  CB        60.1340   81.9900   14.9350 C.3   207  LEU207      0.0297
     81  CG        60.4870   82.6030   16.2850 C.3   207  LEU207      0.0022
     82  CD1       61.1400   83.9580   16.1300 C.3   207  LEU207      0.0001
     83  CD2       59.2840   82.6340   17.2210 C.3   207  LEU207      0.0001
     84  N         58.1180   90.2370   30.8980 N.3   413  ASP413     -0.1239
     85  CA        59.1090   89.3500   30.3170 C.3   413  ASP413      0.1674
     86  C         59.5580   89.9730   28.9760 C.2   413  ASP413      0.2266
     87  O         58.8900   89.8210   27.9520 O.2   413  ASP413     -0.2867
     88  CB        58.5020   87.9440   30.1760 C.3   413  ASP413      0.1410
     89  CG        59.4820   86.8010   30.0670 C.2   413  ASP413      0.3668
     90  OD1       60.5650   87.0080   29.4940 O.co2 413  ASP413     -0.2456
     91  OD2       59.1040   85.6630   30.4190 O.co2 413  ASP413     -0.2456
     92  N         62.3970   89.3400   26.9690 N.3   415  PRO415     -0.2102
     93  CA        62.6530   88.4290   25.8390 C.3   415  PRO415      0.1504
     94  C         61.4400   87.6500   25.3290 C.2   415  PRO415      0.2575
     95  O         61.4560   87.2420   24.1620 O.2   415  PRO415     -0.2718
     96  CB        63.7530   87.5110   26.3670 C.3   415  PRO415      0.0282
     97  CG        63.5790   87.5210   27.8060 C.3   415  PRO415      0.0208
     98  CD        63.1110   88.8810   28.1810 C.3   415  PRO415      0.0893
     99  N         60.3920   87.4370   26.1680 N.am  416  LYS416     -0.1980
    100  CA        59.1970   86.7260   25.6820 C.3   416  LYS416      0.1596
    101  C         58.4570   87.6420   24.6930 C.2   416  LYS416      0.2287
    102  O         58.0260   87.1960   23.6340 O.2   416  LYS416     -0.2864
    103  CB        58.2790   86.2680   26.8280 C.3   416  LYS416      0.0298
    104  CG        57.0400   85.4960   26.3670 C.3   416  LYS416      0.0038
    105  CD        56.3700   84.7700   27.5110 C.3   416  LYS416      0.0206
    106  CE        55.2350   83.8940   27.0390 C.3   416  LYS416      0.1093
    107  NZ        53.9170   84.5560   27.2170 N.3   416  LYS416     -0.1314
    108  N         60.3490   87.8170   21.3930 N.3   419  GLN419     -0.1231
    109  CA        60.0340   86.5640   20.6810 C.3   419  GLN419      0.1698
    110  C         58.6300   86.5810   20.0320 C.2   419  GLN419      0.2592
    111  O         58.5230   86.2250   18.8710 O.2   419  GLN419     -0.2718
    112  CB        60.2030   85.3340   21.6240 C.3   419  GLN419      0.0381
    113  CG        60.3570   83.9750   20.9200 C.3   419  GLN419      0.0905
    114  CD        61.6370   83.7780   20.1320 C.2   419  GLN419      0.2608
    115  OE1       62.5100   84.6570   20.0190 O.2   419  GLN419     -0.2717
    116  NE2       61.7640   82.6050   19.5480 N.am  419  GLN419     -0.0878
    117  N         57.5830   87.0050   20.7630 N.am  420  MET420     -0.1979
    118  CA        56.2100   87.1690   20.2630 C.3   420  MET420      0.1605
    119  C         56.1760   88.1390   19.0420 C.2   420  MET420      0.2287
    120  O         55.4770   87.9000   18.0570 O.2   420  MET420     -0.2864
    121  CB        55.3170   87.7190   21.3820 C.3   420  MET420      0.0413
    122  CG        53.8260   87.7140   21.0410 C.3   420  MET420      0.0598
    123  SD        53.1770   89.2960   20.3910 S.3   420  MET420     -0.1393
    124  CE        53.8540   90.5060   21.6710 C.3   420  MET420      0.0692
    125  N         58.1050   86.6050   16.0130 N.3   423  SER423     -0.1217
    126  CA        57.2880   85.5680   15.3700 C.3   423  SER423      0.1889
    127  C         56.3420   86.1930   14.3260 C.2   423  SER423      0.2288
    128  O         55.7790   85.4760   13.4930 O.2   423  SER423     -0.2866
    129  CB        56.5180   84.7430   16.4060 C.3   423  SER423      0.2089
    130  OG        55.5470   85.4890   17.1230 O.3   423  SER423     -0.2183
@<TRIPOS>BOND
     1    79    78    2
     2   128   127    2
     3    78    77    1
     4   127   126    1
     5    80    77    1
     6    80    81    1
     7    77    76    1
     8   126   125    1
     9   126   129    1
    10    76    69   am
    11    67    68    1
    12    82    81    1
    13    69    68    1
    14    69    70    2
    15    81    83    1
    16   129   130    1
    17    68    71    1
    18   120   119    2
    19    71    72    1
    20    61    60    2
    21    72    73    1
    22    60    59    1
    23   111   110    2
    24   119   118    1
    25   116   114   am
    26    59    58    1
    27    59    62    1
    28    73    74    1
    29   115   114    2
    30   110   109    1
    31   110   117   am
    32   114   113    1
    33   118   117    1
    34   118   121    1
    35   123   122    1
    36   123   124    1
    37   109   108    1
    38   109   112    1
    39    53    52    2
    40    74    75    1
    41   113   112    1
    42    62    63    1
    43   122   121    1
    44    52    51    1
    45    63    64    1
    46    55    57    1
    47    55    56    1
    48    55    54    1
    49    65    64    2
    50    64    66   am
    51    51    54    1
    52    51    50    1
    53    46    45    2
    54   102   101    2
    55    50    45   am
    56    45    44    1
    57    95    94    2
    58    43    44    1
    59   101   100    1
    60    10     9    1
    61    44    47    1
    62    94    93    1
    63    94    99   am
    64   100    99    1
    65   100   103    1
    66    93    96    1
    67    93    92    1
    68     7     8    1
    69     7     6    1
    70     9     8    2
    71     9    11    1
    72    37    36    2
    73    96    97    1
    74   104   103    1
    75   104   105    1
    76    47    49    1
    77    47    48    1
    78    36    35    1
    79     6     5    1
    80    92    98    1
    81   106   107    1
    82   106   105    1
    83     5     2    1
    84     1     2    1
    85    97    98    1
    86    87    86    2
    87    35    34    1
    88    35    38    1
    89     2     3    1
    90    86    85    1
    91    38    39    1
    92    39    40    1
    93    90    89   ar
    94     3     4    2
    95    41    40   ar
    96    89    88    1
    97    89    91   ar
    98    88    85    1
    99    85    84    1
   100    40    42   ar
   101    32    31    1
   102    33    31    1
   103    31    28    1
   104    19    17   am
   105    17    18    2
   106    17    16    1
   107    28    29    1
   108    28    27    1
   109    30    29    2
   110    16    13    1
   111    26    24    1
   112    13    12    1
   113    13    14    1
   114    27    22   am
   115    20    14   am
   116    20    21    1
   117    14    15    2
   118    25    24    1
   119    22    21    1
   120    22    23    2
   121    24    21    1
