@<TRIPOS>MOLECULE
tmp/6bn6A00.pdb
 245 235 0 0 0
SMALL
GASTEIGER

@<TRIPOS>ATOM
      1  N        -23.0720  -23.9460    6.4360 N.3    21  CYS21      -0.1221
      2  CA       -21.9050  -24.2540    5.5740 C.3    21  CYS21       0.1808
      3  C        -20.4980  -23.9540    6.1840 C.2    21  CYS21       0.2601
      4  O        -19.5110  -24.2720    5.5180 O.2    21  CYS21      -0.2717
      5  CB       -22.0480  -23.6150    4.1900 C.3    21  CYS21       0.0970
      6  SG       -22.2720  -21.8130    4.2190 S.3    21  CYS21      -0.0800
      7  N        -20.4070  -23.4320    7.4370 N.am   22  GLN22      -0.1965
      8  CA       -19.2220  -23.0560    8.2360 C.3    22  GLN22       0.1733
      9  C        -18.6090  -21.7490    7.7150 C.2    22  GLN22       0.2616
     10  O        -18.6560  -20.7270    8.4090 O.2    22  GLN22      -0.2715
     11  CB       -18.1920  -24.2020    8.3760 C.3    22  GLN22       0.0408
     12  CG       -17.1260  -23.9720    9.4320 C.3    22  GLN22       0.0908
     13  CD       -16.4880  -25.2450    9.9270 C.2    22  GLN22       0.2608
     14  OE1      -16.6770  -26.3350    9.3800 O.2    22  GLN22      -0.2717
     15  NE2      -15.7100  -25.1260   10.9790 N.am   22  GLN22      -0.0878
     16  N        -18.0950  -21.7730    6.4710 N.am   23  LEU23      -0.1977
     17  CA       -17.4970  -20.6130    5.7990 C.3    23  LEU23       0.1596
     18  C        -18.2120  -20.3820    4.4720 C.2    23  LEU23       0.2287
     19  O        -18.5410  -21.3480    3.7760 O.2    23  LEU23      -0.2864
     20  CB       -15.9880  -20.8430    5.5550 C.3    23  LEU23       0.0297
     21  CG       -15.1400  -21.1960    6.7840 C.3    23  LEU23       0.0022
     22  CD1      -13.8760  -21.9310    6.3940 C.3    23  LEU23       0.0001
     23  CD2      -14.8490  -19.9820    7.6410 C.3    23  LEU23       0.0001
     24  N        -14.0100  -18.1700    1.0140 N.3    28  LEU28      -0.1245
     25  CA       -13.0180  -19.2080    0.6970 C.3    28  LEU28       0.1561
     26  C        -12.2820  -18.9160   -0.6040 C.2    28  LEU28       0.2260
     27  O        -11.0520  -19.0240   -0.6420 O.2    28  LEU28      -0.2867
     28  CB       -13.6530  -20.6240    0.6620 C.3    28  LEU28       0.0270
     29  CG       -13.9880  -21.2610    2.0330 C.3    28  LEU28       0.0019
     30  CD1      -14.9830  -22.3930    1.8810 C.3    28  LEU28       0.0001
     31  CD2      -12.7160  -21.7290    2.7640 C.3    28  LEU28       0.0001
     32  N         -2.4420  -33.7330   15.7580 N.3    53  TRP53      -0.1241
     33  CA        -3.6610  -34.5200   15.9490 C.3    53  TRP53       0.1605
     34  C         -4.6580  -33.8110   16.8100 C.2    53  TRP53       0.2264
     35  O         -5.8340  -33.7920   16.4640 O.2    53  TRP53      -0.2867
     36  CB        -3.3820  -35.9410   16.4630 C.3    53  TRP53       0.0550
     37  CG        -3.0890  -36.9380   15.3680 C.ar   53  TRP53       0.0003
     38  CD1       -1.9130  -37.5990   15.1460 C.ar   53  TRP53       0.0946
     39  CD2       -4.0000  -37.3820   14.3430 C.ar   53  TRP53       0.0152
     40  NE1       -2.0330  -38.4320   14.0540 N.ar   53  TRP53      -0.2442
     41  CE2       -3.2990  -38.3040   13.5310 C.ar   53  TRP53       0.0810
     42  CE3       -5.3480  -37.0800   14.0280 C.ar   53  TRP53       0.0012
     43  CZ2       -3.9010  -38.9410   12.4330 C.ar   53  TRP53       0.0191
     44  CZ3       -5.9370  -37.7010   12.9340 C.ar   53  TRP53       0.0001
     45  CH2       -5.2260  -38.6390   12.1650 C.ar   53  TRP53       0.0015
     46  N         -6.1230  -30.8000   14.6080 N.3    56  CYS56      -0.1221
     47  CA        -6.9680  -31.3550   13.5430 C.3    56  CYS56       0.1808
     48  C         -8.2360  -31.9750   14.0710 C.2    56  CYS56       0.2601
     49  O         -9.2980  -31.7860   13.4530 O.2    56  CYS56      -0.2717
     50  CB        -6.1760  -32.3160   12.6530 C.3    56  CYS56       0.0970
     51  SG        -4.8190  -31.5110   11.7500 S.3    56  CYS56      -0.0800
     52  N         -8.1460  -32.6440   15.2480 N.am   57  ALA57      -0.1979
     53  CA        -9.2910  -33.2360   15.9760 C.3    57  ALA57       0.1597
     54  C        -10.2760  -32.1500   16.3690 C.2    57  ALA57       0.2287
     55  O        -11.4730  -32.3670   16.2690 O.2    57  ALA57      -0.2864
     56  CB        -8.8210  -33.9900   17.2220 C.3    57  ALA57       0.0319
     57  N        -10.5990  -29.1320   14.7910 N.3    59  HIS59      -0.1226
     58  CA       -11.1850  -28.6310   13.5420 C.3    59  HIS59       0.1752
     59  C        -12.1950  -29.6000   12.9270 C.2    59  HIS59       0.2595
     60  O        -13.1710  -29.1460   12.3260 O.2    59  HIS59      -0.2718
     61  CB       -10.1030  -28.2950   12.5100 C.3    59  HIS59       0.0759
     62  CG        -9.1420  -27.2680   12.9800 C.ar   59  HIS59       0.0818
     63  ND1       -7.7800  -27.4570   12.8600 N.ar   59  HIS59      -0.2268
     64  CD2       -9.3720  -26.1060   13.6350 C.ar   59  HIS59       0.1154
     65  CE1       -7.2320  -26.3900   13.4010 C.ar   59  HIS59       0.1986
     66  NE2       -8.1500  -25.5470   13.8710 N.ar   59  HIS59      -0.2212
     67  N        -11.9570  -30.9110   13.0640 N.am   60  LEU60      -0.1980
     68  CA       -12.8690  -31.9280   12.5700 C.3    60  LEU60       0.1596
     69  C        -14.1440  -31.9400   13.4240 C.2    60  LEU60       0.2287
     70  O        -15.2510  -32.0130   12.8660 O.2    60  LEU60      -0.2864
     71  CB       -12.2050  -33.3130   12.5460 C.3    60  LEU60       0.0297
     72  CG       -13.0690  -34.4490   12.0010 C.3    60  LEU60       0.0022
     73  CD1      -13.3580  -34.2660   10.5010 C.3    60  LEU60       0.0001
     74  CD2      -12.4170  -35.7840   12.2640 C.3    60  LEU60       0.0001
     75  N        -16.2780  -29.0660   12.4350 N.3    63  ALA63      -0.1245
     76  CA       -16.8600  -29.3520   11.1200 C.3    63  ALA63       0.1562
     77  C        -18.0750  -30.2920   11.2290 C.2    63  ALA63       0.2260
     78  O        -19.1050  -30.0330   10.6110 O.2    63  ALA63      -0.2867
     79  CB       -15.8010  -29.9420   10.1910 C.3    63  ALA63       0.0290
     80  N        -18.9260  -37.9280    8.5590 N.3    94  MET94      -0.1245
     81  CA       -17.5570  -37.8660    8.0450 C.3    94  MET94       0.1570
     82  C        -17.5300  -37.8350    6.5280 C.2    94  MET94       0.2261
     83  O        -16.6870  -37.1500    5.9340 O.2    94  MET94      -0.2867
     84  CB       -16.6800  -39.0180    8.6130 C.3    94  MET94       0.0387
     85  CG       -15.1640  -38.8950    8.2850 C.3    94  MET94       0.0595
     86  SD       -14.4010  -37.3590    8.9150 S.3    94  MET94      -0.1393
     87  CE       -12.9330  -37.1810    7.7880 C.3    94  MET94       0.0692
     88  N        -18.4930  -34.2890    5.6690 N.3    97  VAL97      -0.1245
     89  CA       -17.3150  -33.4410    5.9360 C.3    97  VAL97       0.1561
     90  C        -16.3200  -33.5680    4.7680 C.2    97  VAL97       0.2260
     91  O        -15.8490  -32.5440    4.2800 O.2    97  VAL97      -0.2867
     92  CB       -16.6300  -33.7580    7.3160 C.3    97  VAL97       0.0252
     93  CG1      -15.2270  -33.1660    7.4010 C.3    97  VAL97       0.0019
     94  CG2      -17.4760  -33.2880    8.4840 C.3    97  VAL97       0.0019
     95  N        -17.8490  -31.7330    1.7170 N.3   100  ARG100     -0.1231
     96  CA       -17.7890  -30.2830    2.0030 C.3   100  ARG100      0.1694
     97  C        -16.3860  -29.6590    1.8420 C.2   100  ARG100      0.2591
     98  O        -16.2980  -28.4800    1.5140 O.2   100  ARG100     -0.2718
     99  CB       -18.3230  -29.9680    3.4020 C.3   100  ARG100      0.0321
    100  CG       -19.8260  -30.0110    3.5420 C.3   100  ARG100      0.0489
    101  CD       -20.2090  -29.8300    5.0020 C.3   100  ARG100      0.2205
    102  NE       -21.6320  -29.5220    5.1430 N.pl3 100  ARG100     -0.0865
    103  CZ       -22.1360  -28.6090    5.9620 C.cat 100  ARG100      0.5346
    104  NH1      -21.3330  -27.8840    6.7380 N.pl3 100  ARG100      0.1354
    105  NH2      -23.4460  -28.4090    6.0160 N.pl3 100  ARG100      0.1354
    106  N        -15.3090  -30.4450    2.0830 N.am  101  MET101     -0.1979
    107  CA       -13.8950  -30.0530    1.9780 C.3   101  MET101      0.1605
    108  C        -13.4790  -29.5010    0.6410 C.2   101  MET101      0.2287
    109  O        -12.5620  -28.6860    0.6120 O.2   101  MET101     -0.2864
    110  CB       -12.9890  -31.2450    2.2530 C.3   101  MET101      0.0413
    111  CG       -12.7840  -31.5160    3.7020 C.3   101  MET101      0.0598
    112  SD       -11.4890  -32.7710    3.9140 S.3   101  MET101     -0.1393
    113  CE       -10.0650  -31.7210    3.8470 C.3   101  MET101      0.0692
    114  N        -14.7170  -27.3680   -1.2830 N.3   103  ARG103     -0.1231
    115  CA       -14.9730  -25.9300   -1.3550 C.3   103  ARG103      0.1694
    116  C        -13.7630  -25.1350   -0.8980 C.2   103  ARG103      0.2591
    117  O        -13.5280  -24.0320   -1.4160 O.2   103  ARG103     -0.2718
    118  CB       -16.1760  -25.5490   -0.4940 C.3   103  ARG103      0.0321
    119  CG       -17.4610  -26.2840   -0.8510 C.3   103  ARG103      0.0489
    120  CD       -18.4870  -26.1460    0.2480 C.3   103  ARG103      0.2205
    121  NE       -18.9950  -24.7720    0.4040 N.pl3 103  ARG103     -0.0865
    122  CZ       -18.7740  -23.9780    1.4520 C.cat 103  ARG103      0.5346
    123  NH1      -18.0330  -24.3970    2.4730 N.pl3 103  ARG103      0.1354
    124  NH2      -19.3200  -22.7720    1.5020 N.pl3 103  ARG103      0.1354
    125  N        -13.0040  -25.6890    0.0890 N.am  104  ALA104     -0.1980
    126  CA       -11.7960  -25.1010    0.6710 C.3   104  ALA104      0.1597
    127  C        -10.5450  -25.5950   -0.0480 C.2   104  ALA104      0.2287
    128  O         -9.4350  -25.3480    0.4070 O.2   104  ALA104     -0.2864
    129  CB       -11.7230  -25.4600    2.1480 C.3   104  ALA104      0.0319
    130  N         -5.1460  -26.3800    0.3080 N.3   112  VAL112     -0.1231
    131  CA        -6.3740  -26.4920    1.0870 C.3   112  VAL112      0.1692
    132  C         -6.3900  -25.3810    2.1060 C.2   112  VAL112      0.2592
    133  O         -5.3240  -24.9430    2.5490 O.2   112  VAL112     -0.2718
    134  CB        -6.5010  -27.9310    1.7110 C.3   112  VAL112      0.0266
    135  CG1       -5.6480  -28.1040    2.9660 C.3   112  VAL112      0.0020
    136  CG2       -7.9520  -28.3030    1.9840 C.3   112  VAL112      0.0020
    137  N         -7.5830  -24.9060    2.4790 N.am  113  PHE113     -0.1962
    138  CA        -7.6870  -23.8650    3.4910 C.3   113  PHE113      0.1771
    139  C         -7.5570  -24.5270    4.8540 C.2   113  PHE113      0.2620
    140  O         -8.3200  -25.4300    5.1740 O.2   113  PHE113     -0.2715
    141  CB        -9.0000  -23.0710    3.3560 C.3   113  PHE113      0.0574
    142  CG        -9.0980  -21.8240    4.2090 C.ar  113  PHE113     -0.0200
    143  CD1       -8.3400  -20.6930    3.9100 C.ar  113  PHE113     -0.0042
    144  CD2       -9.9950  -21.7580    5.2730 C.ar  113  PHE113     -0.0042
    145  CE1       -8.4600  -19.5280    4.6750 C.ar  113  PHE113     -0.0003
    146  CE2      -10.1170  -20.5940    6.0390 C.ar  113  PHE113     -0.0003
    147  CZ        -9.3370  -19.4900    5.7470 C.ar  113  PHE113     -0.0000
    148  N         -6.5280  -24.1380    5.6140 N.am  114  PHE114     -0.1960
    149  CA        -6.2190  -24.6980    6.9350 C.3   114  PHE114      0.1771
    150  C         -5.7400  -23.5820    7.8330 C.2   114  PHE114      0.2619
    151  O         -4.8000  -22.8850    7.4790 O.2   114  PHE114     -0.2715
    152  CB        -5.1480  -25.8290    6.8230 C.3   114  PHE114      0.0574
    153  CG        -4.6540  -26.4010    8.1380 C.ar  114  PHE114     -0.0200
    154  CD1       -5.4030  -27.3540    8.8310 C.ar  114  PHE114     -0.0042
    155  CD2       -3.4250  -26.0080    8.6700 C.ar  114  PHE114     -0.0042
    156  CE1       -4.9500  -27.8720   10.0520 C.ar  114  PHE114     -0.0003
    157  CE2       -2.9720  -26.5390    9.8840 C.ar  114  PHE114     -0.0003
    158  CZ        -3.7400  -27.4670   10.5690 C.ar  114  PHE114     -0.0000
    159  N         -6.3960  -23.4060    8.9850 N.am  115  GLU115     -0.1977
    160  CA        -6.0650  -22.4070   10.0060 C.3   115  GLU115      0.1602
    161  C         -5.7780  -20.9930    9.4620 C.2   115  GLU115      0.2287
    162  O         -4.7490  -20.3870    9.7900 O.2   115  GLU115     -0.2864
    163  CB        -4.8970  -22.9090   10.8860 C.3   115  GLU115      0.0415
    164  CG        -5.2310  -24.1710   11.6580 C.3   115  GLU115      0.1163
    165  CD        -4.2500  -24.5700   12.7370 C.2   115  GLU115      0.3649
    166  OE1       -3.1260  -24.0210   12.7580 O.co2 115  GLU115     -0.2457
    167  OE2       -4.6060  -25.4280   13.5730 O.co2 115  GLU115     -0.2457
    168  N          0.8720  -31.2190    6.5300 N.3   124  PHE124     -0.1241
    169  CA         0.3640  -32.3170    7.3630 C.3   124  PHE124      0.1605
    170  C          1.3650  -33.4350    7.6140 C.2   124  PHE124      0.2264
    171  O          0.9900  -34.4770    8.1510 O.2   124  PHE124     -0.2867
    172  CB        -0.9380  -32.8640    6.7390 C.3   124  PHE124      0.0534
    173  CG        -2.0240  -31.8090    6.6500 C.ar  124  PHE124     -0.0203
    174  CD1       -2.7670  -31.4510    7.7790 C.ar  124  PHE124     -0.0042
    175  CD2       -2.2550  -31.1230    5.4580 C.ar  124  PHE124     -0.0042
    176  CE1       -3.7200  -30.4370    7.7150 C.ar  124  PHE124     -0.0003
    177  CE2       -3.2220  -30.1170    5.3920 C.ar  124  PHE124     -0.0003
    178  CZ        -3.9330  -29.7680    6.5260 C.ar  124  PHE124     -0.0000
    179  N          1.7140  -35.7380   11.0270 N.3   127  LEU127     -0.1245
    180  CA         0.6840  -36.7660   11.2580 C.3   127  LEU127      0.1561
    181  C          1.1310  -38.1730   10.9070 C.2   127  LEU127      0.2260
    182  O          0.6100  -39.1110   11.4930 O.2   127  LEU127     -0.2867
    183  CB        -0.6220  -36.4670   10.5120 C.3   127  LEU127      0.0270
    184  CG        -1.3920  -35.2090   10.8720 C.3   127  LEU127      0.0019
    185  CD1       -2.5710  -35.0520    9.9580 C.3   127  LEU127      0.0001
    186  CD2       -1.8600  -35.2290   12.3030 C.3   127  LEU127      0.0001
    187  N          0.6420  -39.7590    8.0020 N.3   129  CYS129     -0.1235
    188  CA        -0.4290  -40.3740    7.2100 C.3   129  CYS129      0.1677
    189  C         -0.3460  -39.8130    5.7980 C.2   129  CYS129      0.2270
    190  O         -1.3300  -39.2360    5.3470 O.2   129  CYS129     -0.2867
    191  CB        -1.8070  -40.0620    7.8050 C.3   129  CYS129      0.0956
    192  SG        -1.9440  -40.2050    9.5990 S.3   129  CYS129     -0.0801
    193  N         -3.2430  -41.1500    3.5450 N.3   132  LEU132     -0.1231
    194  CA        -4.5210  -40.6310    4.0100 C.3   132  LEU132      0.1693
    195  C         -4.7190  -39.1770    3.5530 C.2   132  LEU132      0.2591
    196  O         -5.7850  -38.8470    3.0580 O.2   132  LEU132     -0.2718
    197  CB        -4.5370  -40.7000    5.5330 C.3   132  LEU132      0.0284
    198  CG        -5.7300  -41.3810    6.1840 C.3   132  LEU132      0.0019
    199  CD1       -5.7560  -42.8870    5.8780 C.3   132  LEU132      0.0001
    200  CD2       -5.7030  -41.1470    7.6820 C.3   132  LEU132      0.0001
    201  N         -3.6880  -38.3280    3.6890 N.am  133  ILE133     -0.1980
    202  CA        -3.6920  -36.9200    3.2720 C.3   133  ILE133      0.1595
    203  C         -3.7660  -36.8120    1.7440 C.2   133  ILE133      0.2287
    204  O         -4.5310  -35.9910    1.2420 O.2   133  ILE133     -0.2864
    205  CB        -2.5020  -36.0980    3.8830 C.3   133  ILE133      0.0276
    206  CG1       -2.4540  -36.1880    5.4420 C.3   133  ILE133      0.0022
    207  CG2       -2.4890  -34.6450    3.3920 C.3   133  ILE133      0.0022
    208  CD1       -3.6460  -35.4770    6.2920 C.3   133  ILE133      0.0001
    209  N         -7.2910  -37.4280    0.5040 N.3   136  ILE136     -0.1231
    210  CA        -8.1330  -36.2580    0.7290 C.3   136  ILE136      0.1692
    211  C         -7.9180  -35.2410   -0.3930 C.2   136  ILE136      0.2592
    212  O         -8.8950  -34.7040   -0.9220 O.2   136  ILE136     -0.2718
    213  CB        -7.9000  -35.6680    2.1560 C.3   136  ILE136      0.0266
    214  CG1       -8.8220  -36.3600    3.1600 C.3   136  ILE136      0.0019
    215  CG2       -8.0670  -34.1300    2.2090 C.3   136  ILE136      0.0020
    216  CD1       -8.6470  -35.8880    4.6440 C.3   136  ILE136      0.0001
    217  N         -6.6410  -34.9650   -0.7330 N.am  137  PHE137     -0.1976
    218  CA        -6.2620  -34.0420   -1.7980 C.3   137  PHE137      0.1639
    219  C         -6.7440  -34.5420   -3.1740 C.2   137  PHE137      0.2290
    220  O         -7.3220  -33.7530   -3.9090 O.2   137  PHE137     -0.2864
    221  CB        -4.7530  -33.7290   -1.7500 C.3   137  PHE137      0.0560
    222  CG        -4.3720  -32.6360   -0.7630 C.ar  137  PHE137     -0.0200
    223  CD1       -4.5050  -32.8350    0.6140 C.ar  137  PHE137     -0.0042
    224  CD2       -3.9020  -31.4050   -1.2090 C.ar  137  PHE137     -0.0042
    225  CE1       -4.2010  -31.8090    1.5190 C.ar  137  PHE137     -0.0003
    226  CE2       -3.5680  -30.3920   -0.3040 C.ar  137  PHE137     -0.0003
    227  CZ        -3.7280  -30.5940    1.0530 C.ar  137  PHE137     -0.0000
    228  N        -10.0560  -42.9230    7.2800 N.3   215  HIS215     -0.1241
    229  CA        -9.9610  -41.7340    8.1290 C.3   215  HIS215      0.1621
    230  C        -10.4780  -41.9460    9.5590 C.2   215  HIS215      0.2264
    231  O         -9.8550  -41.4390   10.4960 O.2   215  HIS215     -0.2867
    232  CB       -10.6200  -40.5320    7.4510 C.3   215  HIS215      0.0745
    233  CG        -9.9390  -40.2010    6.1570 C.ar  215  HIS215      0.0817
    234  ND1       -8.7360  -39.5260    6.1310 N.ar  215  HIS215     -0.2268
    235  CD2      -10.2550  -40.5700    4.8930 C.ar  215  HIS215      0.1154
    236  CE1       -8.3900  -39.4610    4.8560 C.ar  215  HIS215      0.1986
    237  NE2       -9.2710  -40.0770    4.0760 N.ar  215  HIS215     -0.2212
    238  N         -8.1600  -42.0780   13.1570 N.3   219  LEU219     -0.1245
    239  CA        -8.6930  -41.1760   14.1770 C.3   219  LEU219      0.1561
    240  C         -8.6800  -41.8010   15.5830 C.2   219  LEU219      0.2260
    241  O         -8.2850  -41.1260   16.5370 O.2   219  LEU219     -0.2867
    242  CB       -10.1200  -40.7790   13.8040 C.3   219  LEU219      0.0270
    243  CG       -10.3430  -39.3490   13.3720 C.3   219  LEU219      0.0019
    244  CD1      -11.6500  -39.2430   12.6030 C.3   219  LEU219      0.0001
    245  CD2      -10.3640  -38.4090   14.5750 C.3   219  LEU219      0.0001
@<TRIPOS>BOND
     1   220   219    2
     2   219   218    1
     3   218   221    1
     4   218   217    1
     5   221   222    1
     6   117   116    2
     7   115   114    1
     8   115   116    1
     9   115   118    1
    10   224   222   ar
    11   224   226   ar
    12   212   211    2
    13   116   125   am
    14   119   118    1
    15   119   120    1
    16   222   223   ar
    17   217   211   am
    18    27    26    2
    19    26    25    1
    20   211   210    1
    21   226   227   ar
    22   127   128    2
    23   127   126    1
    24   125   126    1
    25   120   121    1
    26   130   131    1
    27   121   122    2
    28   209   210    1
    29   109   108    2
    30   223   225   ar
    31   108   107    1
    32    28    25    1
    33    28    29    1
    34   126   129    1
    35    25    24    1
    36   210   213    1
    37   227   225   ar
    38   131   134    1
    39   131   132    1
    40   204   203    2
    41   122   124    1
    42   122   123    1
    43    98    97    2
    44   134   136    1
    45   134   135    1
    46    95    96    1
    47   203   202    1
    48    97    96    1
    49    97   106   am
    50    30    29    1
    51   107   106    1
    52   107   110    1
    53    96    99    1
    54    29    31    1
    55   132   137   am
    56   132   133    2
    57   213   215    1
    58   213   214    1
    59   110   111    1
    60   137   138    1
    61   196   195    2
    62   214   216    1
    63   202   201    1
    64   202   205    1
    65   141   138    1
    66   141   142    1
    67   207   205    1
    68    99   100    1
    69   138   139    1
    70   100   101    1
    71   193   194    1
    72   195   201   am
    73   195   194    1
    74   111   112    1
    75    19    18    2
    76   113   112    1
    77   205   206    1
    78   143   142   ar
    79   143   145   ar
    80   194   197    1
    81   237   236   ar
    82   237   235   ar
    83     5     6    1
    84     5     2    1
    85   142   144   ar
    86    91    90    2
    87    18    17    1
    88   145   147   ar
    89    90    89    1
    90   139   140    2
    91   139   148   am
    92   236   234   ar
    93   235   233   ar
    94   101   102    1
    95   102   103    2
    96   144   146   ar
    97   190   189    2
    98   177   175   ar
    99   177   178   ar
   100   206   208    1
   101   175   173   ar
   102     4     3    2
   103   197   198    1
   104    20    17    1
   105    20    21    1
   106     2     3    1
   107     2     1    1
   108   148   149    1
   109    88    89    1
   110   147   146   ar
   111   189   188    1
   112    17    16    1
   113   199   198    1
   114    83    82    2
   115    89    92    1
   116   103   105    1
   117   103   104    1
   118   234   233   ar
   119   233   232    1
   120   198   200    1
   121     3     7   am
   122    22    21    1
   123    16     9   am
   124   178   176   ar
   125    82    81    1
   126   168   169    1
   127   173   172    1
   128   173   174   ar
   129   172   169    1
   130    21    23    1
   131   152   149    1
   132   152   153    1
   133   149   150    1
   134   188   191    1
   135   188   187    1
   136   228   229    1
   137    92    93    1
   138    92    94    1
   139   169   170    1
   140     7     8    1
   141   232   229    1
   142   151   150    2
   143   170   171    2
   144   176   174   ar
   145     9     8    1
   146     9    10    2
   147    87    86    1
   148   191   192    1
   149   150   159   am
   150    81    80    1
   151    81    84    1
   152   229   230    1
   153   153   155   ar
   154   153   154   ar
   155     8    11    1
   156    85    84    1
   157    85    86    1
   158    11    12    1
   159   155   157   ar
   160   154   156   ar
   161   159   160    1
   162    14    13    2
   163    12    13    1
   164   161   162    2
   165   161   160    1
   166   230   231    2
   167   157   158   ar
   168    13    15   am
   169   185   184    1
   170   160   163    1
   171   156   158   ar
   172    79    76    1
   173    73    72    1
   174   183   184    1
   175   183   180    1
   176    78    77    2
   177   184   186    1
   178   163   164    1
   179   181   180    1
   180   181   182    2
   181   179   180    1
   182    76    77    1
   183    76    75    1
   184   164   165    1
   185    51    50    1
   186    72    74    1
   187    72    71    1
   188    45    43   ar
   189    45    44   ar
   190    60    59    2
   191    43    41   ar
   192    61    62    1
   193    61    58    1
   194    71    68    1
   195    68    67    1
   196    68    69    1
   197   244   243    1
   198    50    47    1
   199   165   166   ar
   200   165   167   ar
   201    63    62   ar
   202    63    65   ar
   203    70    69    2
   204    59    67   am
   205    59    58    1
   206    44    42   ar
   207    62    64   ar
   208   238   239    1
   209   243   242    1
   210   243   245    1
   211    65    66   ar
   212    49    48    2
   213    41    40   ar
   214    41    39   ar
   215    58    57    1
   216    47    48    1
   217    47    46    1
   218    64    66   ar
   219   242   239    1
   220    42    39   ar
   221    40    38   ar
   222    48    52   am
   223   239   240    1
   224    39    37   ar
   225    38    37   ar
   226    52    53    1
   227    37    36    1
   228   240   241    2
   229    32    33    1
   230    33    36    1
   231    33    34    1
   232    53    54    1
   233    53    56    1
   234    55    54    2
   235    35    34    2
