@<TRIPOS>MOLECULE
tmp/6bn7C00.pdb
 159 157 0 0 0
SMALL
GASTEIGER

@<TRIPOS>ATOM
      1  N         72.9460   50.2610   56.9900 N.3    37  GLN37      -0.1245
      2  CA        72.3380   49.7500   55.7660 C.3    37  GLN37       0.1566
      3  C         72.5530   48.2540   55.5870 C.2    37  GLN37       0.2260
      4  O         71.8950   47.6430   54.7370 O.2    37  GLN37      -0.2867
      5  CB        72.8840   50.4750   54.5360 C.3    37  GLN37       0.0367
      6  CG        74.3670   50.2700   54.3050 C.3    37  GLN37       0.0905
      7  CD        74.8020   50.7280   52.9280 C.2    37  GLN37       0.2608
      8  OE1       74.6480   50.0010   51.9460 O.2    37  GLN37      -0.2717
      9  NE2       75.3520   51.9320   52.8490 N.am   37  GLN37      -0.0878
     10  N         69.8410   44.7020   57.9940 N.3    40  TRP40      -0.1228
     11  CA        68.5900   43.9770   57.7820 C.3    40  TRP40       0.1722
     12  C         68.6870   42.4550   57.9040 C.2    40  TRP40       0.2437
     13  O         67.7200   41.8540   58.4030 O.2    40  TRP40      -0.2733
     14  CB        67.9770   44.3800   56.4330 C.3    40  TRP40       0.0563
     15  CG        68.8190   44.0850   55.2360 C.ar   40  TRP40       0.0003
     16  CD1       69.7420   44.9070   54.6580 C.ar   40  TRP40       0.0946
     17  CD2       68.8300   42.8720   54.4760 C.ar   40  TRP40       0.0152
     18  NE1       70.3200   44.2830   53.5790 N.ar   40  TRP40      -0.2442
     19  CE2       69.7800   43.0310   53.4490 C.ar   40  TRP40       0.0810
     20  CE3       68.1340   41.6650   54.5700 C.ar   40  TRP40       0.0012
     21  CZ2       70.0460   42.0300   52.5200 C.ar   40  TRP40       0.0191
     22  CZ3       68.3970   40.6750   53.6470 C.ar   40  TRP40       0.0001
     23  CH2       69.3440   40.8610   52.6360 C.ar   40  TRP40       0.0015
     24  N         69.7640   41.7690   57.4900 N.am   41  PRO41      -0.2718
     25  CA        69.7730   40.3030   57.6440 C.3    41  PRO41       0.1535
     26  C         69.8120   39.8480   59.0890 C.2    41  PRO41       0.2599
     27  O         69.4890   38.6870   59.3650 O.2    41  PRO41      -0.2715
     28  CB        71.0440   39.8710   56.8980 C.3    41  PRO41       0.0310
     29  CG        71.4000   41.0300   56.0370 C.3    41  PRO41       0.0237
     30  CD        71.0070   42.2220   56.8400 C.3    41  PRO41       0.0939
     31  N         70.1900   40.7230   60.0170 N.am   42  PHE42      -0.1960
     32  CA        70.3690   40.3550   61.4120 C.3    42  PHE42       0.1771
     33  C         69.2600   40.8750   62.3130 C.2    42  PHE42       0.2619
     34  O         69.3010   40.6380   63.5230 O.2    42  PHE42      -0.2715
     35  CB        71.7230   40.8690   61.9120 C.3    42  PHE42       0.0574
     36  CG        72.8820   40.4410   61.0580 C.ar   42  PHE42      -0.0200
     37  CD1       73.5030   39.2220   61.2660 C.ar   42  PHE42      -0.0042
     38  CD2       73.3440   41.2580   60.0390 C.ar   42  PHE42      -0.0042
     39  CE1       74.5690   38.8270   60.4780 C.ar   42  PHE42      -0.0003
     40  CE2       74.4080   40.8680   59.2480 C.ar   42  PHE42      -0.0003
     41  CZ        75.0210   39.6540   59.4680 C.ar   42  PHE42      -0.0000
     42  N         68.2680   41.5680   61.7580 N.am   43  GLN43      -0.1963
     43  CA        67.2120   42.1810   62.5530 C.3    43  GLN43       0.1733
     44  C         66.1580   41.1870   63.0190 C.2    43  GLN43       0.2616
     45  O         65.2240   41.5870   63.7240 O.2    43  GLN43      -0.2715
     46  CB        66.5470   43.3040   61.7560 C.3    43  GLN43       0.0408
     47  CG        67.3970   44.5550   61.6430 C.3    43  GLN43       0.0908
     48  CD        66.7420   45.6290   60.8040 C.2    43  GLN43       0.2608
     49  OE1       65.9500   45.3370   59.9070 O.2    43  GLN43      -0.2717
     50  NE2       67.0660   46.8840   61.0920 N.am   43  GLN43      -0.0878
     51  N         66.2790   39.9150   62.6560 N.am   44  GLN44      -0.1964
     52  CA        65.2940   38.9080   63.0190 C.3    44  GLN44       0.1718
     53  C         65.9620   37.5440   62.9550 C.2    44  GLN44       0.2458
     54  O         67.0060   37.3930   62.3070 O.2    44  GLN44      -0.2730
     55  CB        64.0660   38.9580   62.0920 C.3    44  GLN44       0.0407
     56  CG        64.3720   38.7650   60.6130 C.3    44  GLN44       0.0908
     57  CD        65.0390   39.9770   59.9950 C.2    44  GLN44       0.2608
     58  OE1       64.5430   41.0980   60.1130 O.2    44  GLN44      -0.2717
     59  NE2       66.1840   39.7640   59.3600 N.am   44  GLN44      -0.0878
     60  N         65.4010   36.5400   63.6300 N.am   45  PRO45      -0.2716
     61  CA        65.9630   35.1890   63.5350 C.3    45  PRO45       0.1536
     62  C         66.0310   34.7170   62.0900 C.2    45  PRO45       0.2598
     63  O         65.2260   35.1110   61.2430 O.2    45  PRO45      -0.2715
     64  CB        64.9850   34.3400   64.3530 C.3    45  PRO45       0.0310
     65  CG        64.4010   35.2910   65.3310 C.3    45  PRO45       0.0237
     66  CD        64.3180   36.6150   64.6270 C.3    45  PRO45       0.0939
     67  N         67.0230   33.8740   61.8150 N.am   46  VAL46      -0.1964
     68  CA        67.1650   33.2830   60.4910 C.3    46  VAL46       0.1727
     69  C         65.9840   32.3560   60.2350 C.2    46  VAL46       0.2616
     70  O         65.7390   31.4100   60.9940 O.2    46  VAL46      -0.2715
     71  CB        68.4960   32.5360   60.3650 C.3    46  VAL46       0.0290
     72  CG1       68.4960   31.6510   59.1260 C.3    46  VAL46       0.0023
     73  CG2       69.6500   33.5250   60.3240 C.3    46  VAL46       0.0023
     74  N         65.2390   32.6290   59.1690 N.am   47  ASP47      -0.1971
     75  CA        64.1060   31.7910   58.7830 C.3    47  ASP47       0.1709
     76  C         64.6640   30.6860   57.8980 C.2    47  ASP47       0.2293
     77  O         64.7790   30.8330   56.6800 O.2    47  ASP47      -0.2864
     78  CB        63.0350   32.6190   58.0820 C.3    47  ASP47       0.1436
     79  CG        61.7430   31.8480   57.8510 C.2    47  ASP47       0.3671
     80  OD1       61.7780   30.6010   57.7840 O.co2  47  ASP47      -0.2456
     81  OD2       60.6830   32.4980   57.7370 O.co2  47  ASP47      -0.2456
     82  N         64.5740   30.4540   53.6100 N.3    51  LEU51      -0.1245
     83  CA        65.8850   30.5090   52.9780 C.3    51  LEU51       0.1561
     84  C         66.3640   29.1490   52.4860 C.2    51  LEU51       0.2260
     85  O         67.4190   29.0810   51.8450 O.2    51  LEU51      -0.2867
     86  CB        66.9100   31.1040   53.9470 C.3    51  LEU51       0.0270
     87  CG        66.6340   32.5320   54.4280 C.3    51  LEU51       0.0019
     88  CD1       67.6130   32.9330   55.5210 C.3    51  LEU51       0.0001
     89  CD2       66.6790   33.5230   53.2760 C.3    51  LEU51       0.0001
     90  N         67.5610   26.4040   54.1330 N.3    53  LEU53      -0.1245
     91  CA        68.8400   26.1100   54.7770 C.3    53  LEU53       0.1561
     92  C         68.6110   25.0660   55.8630 C.2    53  LEU53       0.2260
     93  O         68.6800   25.3690   57.0600 O.2    53  LEU53      -0.2867
     94  CB        69.4570   27.3800   55.3620 C.3    53  LEU53       0.0270
     95  CG        69.6580   28.5510   54.4030 C.3    53  LEU53       0.0019
     96  CD1       70.1090   29.7680   55.1780 C.3    53  LEU53       0.0001
     97  CD2       70.6640   28.2010   53.3200 C.3    53  LEU53       0.0001
     98  N         71.2860   24.7540   58.6650 N.3    56  TYR56      -0.1241
     99  CA        71.7170   25.9240   59.4260 C.3    56  TYR56       0.1605
    100  C         71.7130   25.6400   60.9220 C.2    56  TYR56       0.2264
    101  O         72.7270   25.8240   61.6050 O.2    56  TYR56      -0.2867
    102  CB        70.8290   27.1290   59.1110 C.3    56  TYR56       0.0534
    103  CG        71.3350   28.4050   59.7510 C.ar   56  TYR56      -0.0201
    104  CD1       72.3120   29.1720   59.1300 C.ar   56  TYR56      -0.0009
    105  CD2       70.8600   28.8290   60.9860 C.ar   56  TYR56      -0.0009
    106  CE1       72.7900   30.3320   59.7120 C.ar   56  TYR56       0.0417
    107  CE2       71.3340   29.9880   61.5780 C.ar   56  TYR56       0.0417
    108  CZ        72.2980   30.7360   60.9350 C.ar   56  TYR56       0.1957
    109  OH        72.7770   31.8900   61.5100 O.3    56  TYR56      -0.2866
    110  N         77.4270   33.6210   61.9440 N.3    95  CYS95      -0.1235
    111  CA        77.4660   34.0480   60.5490 C.3    95  CYS95       0.1677
    112  C         78.7400   33.5770   59.8600 C.2    95  CYS95       0.2270
    113  O         78.6940   33.0820   58.7270 O.2    95  CYS95      -0.2867
    114  CB        77.3450   35.5690   60.4600 C.3    95  CYS95       0.0956
    115  SG        77.2090   36.1920   58.7680 S.3    95  CYS95      -0.0801
    116  N         78.6590   29.4580   59.4360 N.3    98  TYR98      -0.1227
    117  CA        77.8000   28.8250   58.4390 C.3    98  TYR98       0.1736
    118  C         78.2420   29.1530   57.0170 C.2    98  TYR98       0.2595
    119  O         78.1980   28.2870   56.1360 O.2    98  TYR98      -0.2718
    120  CB        76.3420   29.2260   58.6390 C.3    98  TYR98       0.0548
    121  CG        75.4250   28.4810   57.6970 C.ar   98  TYR98      -0.0200
    122  CD1       75.1350   27.1390   57.9010 C.ar   98  TYR98      -0.0009
    123  CD2       74.8710   29.1100   56.5900 C.ar   98  TYR98      -0.0009
    124  CE1       74.3090   26.4460   57.0390 C.ar   98  TYR98       0.0417
    125  CE2       74.0410   28.4260   55.7210 C.ar   98  TYR98       0.0417
    126  CZ        73.7630   27.0940   55.9510 C.ar   98  TYR98       0.1957
    127  OH        72.9370   26.4070   55.0890 O.3    98  TYR98      -0.2866
    128  N         78.6660   30.3860   56.7710 N.am   99  ASN99      -0.1974
    129  CA        78.9980   30.8120   55.4210 C.3    99  ASN99       0.1688
    130  C         80.4910   30.6150   55.1530 C.2    99  ASN99       0.2292
    131  O         81.2340   30.0820   55.9820 O.2    99  ASN99      -0.2864
    132  CB        78.5650   32.2590   55.2050 C.3    99  ASN99       0.1181
    133  CG        77.0910   32.4630   55.4640 C.2    99  ASN99       0.2629
    134  OD1       76.6940   32.9340   56.5290 O.2    99  ASN99      -0.2716
    135  ND2       76.2640   32.1060   54.4870 N.am   99  ASN99      -0.0877
    136  N         79.1650   37.6410   50.4300 N.3   104  ASP104     -0.1225
    137  CA        78.6170   38.9730   50.6760 C.3   104  ASP104      0.1805
    138  C         78.1860   39.1300   52.1290 C.2   104  ASP104      0.2597
    139  O         78.5180   40.1250   52.7860 O.2   104  ASP104     -0.2718
    140  CB        77.4410   39.2380   49.7350 C.3   104  ASP104      0.1424
    141  CG        77.8820   39.5060   48.3090 C.2   104  ASP104      0.3668
    142  OD1       79.0430   39.9240   48.1100 O.co2 104  ASP104     -0.2456
    143  OD2       77.0640   39.3040   47.3860 O.co2 104  ASP104     -0.2456
    144  N         77.4450   38.1500   52.6500 N.am  105  ILE105     -0.1980
    145  CA        76.9880   38.2210   54.0340 C.3   105  ILE105      0.1595
    146  C         78.1670   38.1890   54.9990 C.2   105  ILE105      0.2287
    147  O         78.1200   38.8120   56.0660 O.2   105  ILE105     -0.2864
    148  CB        75.9760   37.0920   54.3200 C.3   105  ILE105      0.0276
    149  CG1       75.3600   37.2630   55.7110 C.3   105  ILE105      0.0022
    150  CG2       76.6200   35.7170   54.1560 C.3   105  ILE105      0.0022
    151  CD1       74.6780   38.5990   55.9210 C.3   105  ILE105      0.0001
    152  N         79.5060   41.6950   55.0590 N.3   108  MET108     -0.1245
    153  CA        78.5790   42.5350   55.8130 C.3   108  MET108      0.1570
    154  C         78.7460   42.3230   57.3140 C.2   108  MET108      0.2261
    155  O         78.7860   43.2860   58.0920 O.2   108  MET108     -0.2867
    156  CB        77.1440   42.2330   55.3770 C.3   108  MET108      0.0387
    157  CG        76.8710   42.5390   53.9170 C.3   108  MET108      0.0595
    158  SD        75.2770   41.9110   53.3630 S.3   108  MET108     -0.1393
    159  CE        74.1790   43.2020   53.9420 C.3   108  MET108      0.0692
@<TRIPOS>BOND
     1   143   141   ar
     2   142   141   ar
     3   141   140    1
     4   140   137    1
     5   136   137    1
     6   137   138    1
     7    85    84    2
     8     8     7    2
     9   138   144   am
    10   138   139    2
    11    84    83    1
    12    21    23   ar
    13    21    19   ar
    14    23    22   ar
    15   144   145    1
    16     9     7   am
    17     7     6    1
    18    83    82    1
    19    83    86    1
    20    89    87    1
    21    97    95    1
    22   158   157    1
    23   158   159    1
    24    19    18   ar
    25    19    17   ar
    26    18    16   ar
    27    22    20   ar
    28   157   156    1
    29    86    87    1
    30   145   148    1
    31   145   146    1
    32    90    91    1
    33   150   148    1
    34     6     5    1
    35   148   149    1
    36    95    96    1
    37    95    94    1
    38    87    88    1
    39    17    20   ar
    40    17    15   ar
    41   135   133   am
    42     5     2    1
    43    16    15   ar
    44     4     3    2
    45    91    94    1
    46    91    92    1
    47   146   147    2
    48   152   153    1
    49   127   126    1
    50   130   129    1
    51   130   131    2
    52   132   129    1
    53   132   133    1
    54    15    14    1
    55   156   153    1
    56   129   128    1
    57   133   134    2
    58     3     2    1
    59   149   151    1
    60   125   126   ar
    61   125   123   ar
    62     2     1    1
    63   153   154    1
    64    92    93    2
    65   126   124   ar
    66    29    30    1
    67    29    28    1
    68   119   118    2
    69    14    11    1
    70   123   121   ar
    71    77    76    2
    72   128   118   am
    73    30    24    1
    74    28    25    1
    75   118   117    1
    76   124   122   ar
    77   154   155    2
    78    24    25    1
    79    24    12   am
    80    25    26    1
    81   121   122   ar
    82   121   120    1
    83    81    79   ar
    84    11    12    1
    85    11    10    1
    86    80    79   ar
    87    79    78    1
    88    76    75    1
    89    12    13    2
    90    78    75    1
    91   117   120    1
    92   117   116    1
    93    98    99    1
    94   113   112    2
    95   115   114    1
    96    75    74    1
    97    26    27    2
    98    26    31   am
    99   102    99    1
   100   102   103    1
   101    72    71    1
   102   104   106   ar
   103   104   103   ar
   104    74    69   am
   105    40    41   ar
   106    40    38   ar
   107    59    57   am
   108    99   100    1
   109    41    39   ar
   110   106   108   ar
   111   103   105   ar
   112   112   111    1
   113    49    48    2
   114    57    58    2
   115    57    56    1
   116    31    32    1
   117    38    36   ar
   118    69    68    1
   119    69    70    2
   120    73    71    1
   121    71    68    1
   122   114   111    1
   123    39    37   ar
   124    68    67    1
   125   111   110    1
   126    56    55    1
   127    48    50   am
   128    48    47    1
   129   100   101    2
   130   108   109    1
   131   108   107   ar
   132   105   107   ar
   133    36    37   ar
   134    36    35    1
   135    63    62    2
   136    32    35    1
   137    32    33    1
   138    47    46    1
   139    46    43    1
   140    42    33   am
   141    42    43    1
   142    67    62   am
   143    62    61    1
   144    55    52    1
   145    54    53    2
   146    33    34    2
   147    43    44    1
   148    51    52    1
   149    51    44   am
   150    53    52    1
   151    53    60   am
   152    44    45    2
   153    61    60    1
   154    61    64    1
   155    60    66    1
   156    64    65    1
   157    66    65    1
