@<TRIPOS>MOLECULE
tmp/6bn7B00.pdb
 130 134 0 0 0
SMALL
GASTEIGER

@<TRIPOS>ATOM
      1  N         81.5240   47.1080   47.8000 N.3    59  PHE59      -0.1241
      2  CA        82.1890   46.9770   49.0860 C.3    59  PHE59       0.1605
      3  C         83.2960   45.9300   49.0970 C.2    59  PHE59       0.2264
      4  O         84.0850   45.9060   50.0490 O.2    59  PHE59      -0.2867
      5  CB        81.1720   46.6470   50.1920 C.3    59  PHE59       0.0534
      6  CG        80.2030   45.5540   49.8290 C.ar   59  PHE59      -0.0203
      7  CD1       79.0260   45.8440   49.1570 C.ar   59  PHE59      -0.0042
      8  CD2       80.4670   44.2370   50.1680 C.ar   59  PHE59      -0.0042
      9  CE1       78.1340   44.8400   48.8250 C.ar   59  PHE59      -0.0003
     10  CE2       79.5790   43.2290   49.8380 C.ar   59  PHE59      -0.0003
     11  CZ        78.4120   43.5310   49.1660 C.ar   59  PHE59      -0.0000
     12  N         70.1710   49.0630   45.2150 N.3   299  ASN299     -0.1226
     13  CA        69.6010   48.8000   46.5250 C.3   299  ASN299      0.1770
     14  C         70.7090   48.6200   47.5730 C.2   299  ASN299      0.2439
     15  O         71.8940   48.5560   47.2300 O.2   299  ASN299     -0.2733
     16  CB        68.6880   47.5660   46.4390 C.3   299  ASN299      0.1168
     17  CG        69.4450   46.2580   46.5160 C.2   299  ASN299      0.2627
     18  OD1       70.5940   46.1570   46.0880 O.2   299  ASN299     -0.2716
     19  ND2       68.7930   45.2400   47.0610 N.am  299  ASN299     -0.0877
     20  N         70.3600   48.5570   48.8690 N.am  300  PRO300     -0.2718
     21  CA        71.4120   48.5750   49.9050 C.3   300  PRO300      0.1535
     22  C         72.3840   47.4070   49.8590 C.2   300  PRO300      0.2598
     23  O         73.4670   47.5170   50.4430 O.2   300  PRO300     -0.2715
     24  CB        70.6180   48.5680   51.2190 C.3   300  PRO300      0.0310
     25  CG        69.2890   49.0820   50.8690 C.3   300  PRO300      0.0237
     26  CD        69.0190   48.6150   49.4800 C.3   300  PRO300      0.0939
     27  N         72.0460   46.2960   49.2100 N.am  301  HIS301     -0.1974
     28  CA        72.9420   45.1500   49.1640 C.3   301  HIS301      0.1656
     29  C         73.6190   44.9870   47.8050 C.2   301  HIS301      0.2291
     30  O         74.2860   43.9740   47.5660 O.2   301  HIS301     -0.2864
     31  CB        72.1890   43.8850   49.6130 C.3   301  HIS301      0.0771
     32  CG        71.7500   42.9800   48.5020 C.ar  301  HIS301      0.0820
     33  ND1       70.5800   43.1780   47.8030 N.ar  301  HIS301     -0.2267
     34  CD2       72.2960   41.8440   48.0060 C.ar  301  HIS301      0.1154
     35  CE1       70.4370   42.2210   46.9050 C.ar  301  HIS301      0.1986
     36  NE2       71.4660   41.3990   47.0070 N.ar  301  HIS301     -0.2212
     37  N         68.1980   47.0730   39.9970 N.3   305  HIS305     -0.1241
     38  CA        66.8880   46.7490   39.4530 C.3   305  HIS305      0.1621
     39  C         66.4690   47.8350   38.4750 C.2   305  HIS305      0.2264
     40  O         66.5890   49.0280   38.7760 O.2   305  HIS305     -0.2867
     41  CB        65.8350   46.6220   40.5570 C.3   305  HIS305      0.0745
     42  CG        66.0330   45.4400   41.4530 C.ar  305  HIS305      0.0817
     43  ND1       66.0450   45.5430   42.8270 N.ar  305  HIS305     -0.2268
     44  CD2       66.2200   44.1290   41.1720 C.ar  305  HIS305      0.1154
     45  CE1       66.2350   44.3470   43.3540 C.ar  305  HIS305      0.1986
     46  NE2       66.3440   43.4720   42.3710 N.ar  305  HIS305     -0.2212
     47  N         58.3310   50.7820   54.2680 N.3   323  SER323     -0.1217
     48  CA        59.5860   51.2900   54.8010 C.3   323  SER323      0.1889
     49  C         60.1110   52.3980   53.9020 C.2   323  SER323      0.2288
     50  O         60.0220   52.3050   52.6740 O.2   323  SER323     -0.2866
     51  CB        60.6310   50.1710   54.9240 C.3   323  SER323      0.2089
     52  OG        61.8580   50.6630   55.4310 O.3   323  SER323     -0.2183
     53  N         63.3590   53.3550   54.3520 N.3   325  GLU325     -0.1231
     54  CA        64.8040   53.1770   54.3870 C.3   325  GLU325      0.1699
     55  C         65.3320   52.9270   52.9810 C.2   325  GLU325      0.2592
     56  O         64.9060   51.9780   52.3130 O.2   325  GLU325     -0.2718
     57  CB        65.1730   52.0190   55.3110 C.3   325  GLU325      0.0402
     58  CG        64.6940   52.1820   56.7430 C.3   325  GLU325      0.1161
     59  CD        65.3730   53.3320   57.4590 C.2   325  GLU325      0.3649
     60  OE1       66.5210   53.6680   57.0970 O.co2 325  GLU325     -0.2457
     61  OE2       64.7600   53.9000   58.3880 O.co2 325  GLU325     -0.2457
     62  N         66.2510   53.7850   52.5320 N.am  326  HIS326     -0.1962
     63  CA        66.9210   53.6240   51.2430 C.3   326  HIS326      0.1787
     64  C         65.9250   53.6070   50.0870 C.2   326  HIS326      0.2621
     65  O         66.1690   52.9800   49.0540 O.2   326  HIS326     -0.2715
     66  CB        67.7850   52.3580   51.2360 C.3   326  HIS326      0.0785
     67  CG        68.9910   52.4460   50.3530 C.ar  326  HIS326      0.0821
     68  ND1       68.9840   52.0360   49.0380 N.ar  326  HIS326     -0.2267
     69  CD2       70.2470   52.8860   50.6020 C.ar  326  HIS326      0.1154
     70  CE1       70.1820   52.2200   48.5140 C.ar  326  HIS326      0.1986
     71  NE2       70.9680   52.7380   49.4410 N.ar  326  HIS326     -0.2212
     72  N         64.7960   54.2960   50.2580 N.am  327  SER327     -0.1936
     73  CA        63.7590   54.3080   49.2330 C.3   327  SER327      0.2055
     74  C         64.2760   54.9520   47.9540 C.2   327  SER327      0.2643
     75  O         64.9550   55.9830   47.9940 O.2   327  SER327     -0.2714
     76  CB        62.5250   55.0600   49.7330 C.3   327  SER327      0.2130
     77  OG        61.7130   55.4810   48.6490 O.3   327  SER327     -0.2179
     78  N         63.9580   54.3400   46.8060 N.am  328  TRP328     -0.1973
     79  CA        64.4480   54.9210   45.5560 C.3   328  TRP328      0.1640
     80  C         63.7580   56.2410   45.2260 C.2   328  TRP328      0.2290
     81  O         64.3430   57.0800   44.5320 O.2   328  TRP328     -0.2864
     82  CB        64.2910   53.9430   44.3940 C.3   328  TRP328      0.0576
     83  CG        65.2860   52.8380   44.4430 C.ar  328  TRP328      0.0006
     84  CD1       66.5890   52.9250   44.8360 C.ar  328  TRP328      0.0946
     85  CD2       65.0630   51.4700   44.0910 C.ar  328  TRP328      0.0152
     86  NE1       67.1910   51.6930   44.7550 N.ar  328  TRP328     -0.2442
     87  CE2       66.2740   50.7820   44.3000 C.ar  328  TRP328      0.0810
     88  CE3       63.9550   50.7600   43.6210 C.ar  328  TRP328      0.0012
     89  CZ2       66.4090   49.4200   44.0490 C.ar  328  TRP328      0.0191
     90  CZ3       64.0910   49.4110   43.3760 C.ar  328  TRP328      0.0001
     91  CH2       65.3090   48.7530   43.5890 C.ar  328  TRP328      0.0015
     92  N         58.2450   51.8910   50.3660 N.3   334  TRP334     -0.1241
     93  CA        58.1070   50.7190   49.5180 C.3   334  TRP334      0.1605
     94  C         57.5800   49.5320   50.3140 C.2   334  TRP334      0.2264
     95  O         57.7820   49.4330   51.5270 O.2   334  TRP334     -0.2867
     96  CB        59.4470   50.3600   48.8760 C.3   334  TRP334      0.0550
     97  CG        60.5570   50.2220   49.8680 C.ar  334  TRP334      0.0003
     98  CD1       61.4510   51.1840   50.2350 C.ar  334  TRP334      0.0946
     99  CD2       60.9000   49.0470   50.6150 C.ar  334  TRP334      0.0152
    100  NE1       62.3260   50.6840   51.1680 N.ar  334  TRP334     -0.2442
    101  CE2       62.0090   49.3740   51.4180 C.ar  334  TRP334      0.0810
    102  CE3       60.3740   47.7540   50.6830 C.ar  334  TRP334      0.0012
    103  CZ2       62.6020   48.4540   52.2790 C.ar  334  TRP334      0.0191
    104  CZ3       60.9630   46.8430   51.5390 C.ar  334  TRP334      0.0001
    105  CH2       62.0660   47.1970   52.3250 C.ar  334  TRP334      0.0015
    106  N         57.5770   46.5610   43.9900 N.3   348  TRP348     -0.1241
    107  CA        57.2200   47.1970   45.2470 C.3   348  TRP348      0.1605
    108  C         56.0230   48.1120   45.0430 C.2   348  TRP348      0.2264
    109  O         55.8330   48.6820   43.9680 O.2   348  TRP348     -0.2867
    110  CB        58.3910   48.0030   45.8300 C.3   348  TRP348      0.0550
    111  CG        59.6570   47.2170   45.9690 C.ar  348  TRP348      0.0003
    112  CD1       60.1090   46.5830   47.0900 C.ar  348  TRP348      0.0946
    113  CD2       60.6350   46.9790   44.9510 C.ar  348  TRP348      0.0152
    114  NE1       61.3090   45.9670   46.8330 N.ar  348  TRP348     -0.2442
    115  CE2       61.6530   46.1940   45.5260 C.ar  348  TRP348      0.0810
    116  CE3       60.7490   47.3530   43.6100 C.ar  348  TRP348      0.0012
    117  CZ2       62.7690   45.7770   44.8060 C.ar  348  TRP348      0.0191
    118  CZ3       61.8560   46.9370   42.8970 C.ar  348  TRP348      0.0001
    119  CH2       62.8530   46.1590   43.4950 C.ar  348  TRP348      0.0015
    120  N         54.7430   51.5720   46.1850 N.3   350  PHE350     -0.1241
    121  CA        55.2250   52.8110   46.7780 C.3   350  PHE350      0.1605
    122  C         54.0320   53.6590   47.1950 C.2   350  PHE350      0.2264
    123  O         53.1640   53.9670   46.3710 O.2   350  PHE350     -0.2867
    124  CB        56.1110   53.5720   45.7960 C.3   350  PHE350      0.0534
    125  CG        57.4320   52.9150   45.5460 C.ar  350  PHE350     -0.0203
    126  CD1       57.5630   51.9520   44.5600 C.ar  350  PHE350     -0.0042
    127  CD2       58.5420   53.2550   46.2980 C.ar  350  PHE350     -0.0042
    128  CE1       58.7800   51.3430   44.3280 C.ar  350  PHE350     -0.0003
    129  CE2       59.7610   52.6500   46.0710 C.ar  350  PHE350     -0.0003
    130  CZ        59.8790   51.6920   45.0840 C.ar  350  PHE350     -0.0000
@<TRIPOS>BOND
     1    39    40    2
     2    39    38    1
     3    38    37    1
     4    38    41    1
     5    41    42    1
     6    44    42   ar
     7    44    46   ar
     8    42    43   ar
     9    46    45   ar
    10    43    45   ar
    11   118   119   ar
    12   118   116   ar
    13    90    91   ar
    14    90    88   ar
    15   119   117   ar
    16    91    89   ar
    17   116   113   ar
    18    88    85   ar
    19   109   108    2
    20   106   107    1
    21    89    87   ar
    22    85    87   ar
    23    85    83   ar
    24    87    86   ar
    25   128   126   ar
    26   128   130   ar
    27    82    83    1
    28    82    79    1
    29    83    84   ar
    30    81    80    2
    31   126   125   ar
    32    86    84   ar
    33   117   115   ar
    34   113   115   ar
    35   113   111   ar
    36   108   107    1
    37   130   129   ar
    38    12    13    1
    39    80    79    1
    40   107   110    1
    41   115   114   ar
    42   125   124    1
    43   125   127   ar
    44    79    78    1
    45   124   121    1
    46   110   111    1
    47   111   112   ar
    48   129   127   ar
    49    18    17    2
    50   120   121    1
    51   123   122    2
    52    16    17    1
    53    16    13    1
    54    17    19   am
    55    13    14    1
    56   121   122    1
    57    78    74   am
    58   114   112   ar
    59    35    36   ar
    60    35    33   ar
    61    36    34   ar
    62    15    14    2
    63    30    29    2
    64    14    20   am
    65     1     2    1
    66    33    32   ar
    67    29    28    1
    68    74    75    2
    69    74    73    1
    70    34    32   ar
    71    32    31    1
    72    70    68   ar
    73    70    71   ar
    74    77    76    1
    75     9     7   ar
    76     9    11   ar
    77    20    26    1
    78    20    21    1
    79    96    93    1
    80    96    97    1
    81    68    67   ar
    82    65    64    2
    83     2     3    1
    84     2     5    1
    85     3     4    2
    86     7     6   ar
    87    28    27    1
    88    28    31    1
    89    11    10   ar
    90    27    22   am
    91    73    76    1
    92    73    72    1
    93    71    69   ar
    94    26    25    1
    95    93    94    1
    96    93    92    1
    97     6     8   ar
    98     6     5    1
    99    10     8   ar
   100    22    21    1
   101    22    23    2
   102    97    98   ar
   103    97    99   ar
   104    21    24    1
   105    64    72   am
   106    64    63    1
   107    98   100   ar
   108    94    95    2
   109    67    69   ar
   110    67    66    1
   111    99   102   ar
   112    99   101   ar
   113   102   104   ar
   114    25    24    1
   115   100   101   ar
   116    66    63    1
   117    63    62    1
   118   101   103   ar
   119   104   105   ar
   120   103   105   ar
   121    56    55    2
   122    62    55   am
   123    50    49    2
   124    55    54    1
   125    49    48    1
   126    47    48    1
   127    53    54    1
   128    54    57    1
   129    48    51    1
   130    51    52    1
   131    57    58    1
   132    58    59    1
   133    60    59   ar
   134    59    61   ar
