@<TRIPOS>MOLECULE
tmp/6bncB01.pdb
 95 90 0 0 0
SMALL
GASTEIGER

@<TRIPOS>ATOM
      1  N         25.8230   61.4920   18.6050 N.3   116  ASN116     -0.1225
      2  CA        25.7020   60.0980   19.0510 C.3   116  ASN116      0.1785
      3  C         26.9870   59.6690   19.7140 C.2   116  ASN116      0.2597
      4  O         27.0000   59.2630   20.8950 O.2   116  ASN116     -0.2718
      5  CB        25.3950   59.2460   17.7860 C.3   116  ASN116      0.1169
      6  CG        25.2120   57.7340   18.1250 C.2   116  ASN116      0.2627
      7  OD1       26.2240   57.0240   18.3410 O.2   116  ASN116     -0.2716
      8  ND2       23.9880   57.2600   18.2020 N.am  116  ASN116     -0.0877
      9  N         28.1010   59.7610   18.9760 N.am  117  SER117     -0.1952
     10  CA        29.3810   59.2360   19.4470 C.3   117  SER117      0.1924
     11  C         30.3970   59.8340   18.4830 C.2   117  SER117      0.2314
     12  O         30.9860   60.8850   18.7690 O.2   117  SER117     -0.2863
     13  CB        29.4200   57.6810   19.4550 C.3   117  SER117      0.2116
     14  OG        28.8990   57.1070   18.2430 O.3   117  SER117     -0.2180
     15  N         27.1570   66.6020   19.9930 N.3   135  LYS135     -0.1231
     16  CA        26.7570   66.0320   21.2960 C.3   135  LYS135      0.1693
     17  C         27.1860   66.9170   22.4400 C.2   135  LYS135      0.2592
     18  O         26.9060   66.6120   23.6020 O.2   135  LYS135     -0.2718
     19  CB        27.1730   64.5520   21.4500 C.3   135  LYS135      0.0285
     20  CG        28.5860   64.3330   21.5140 C.3   135  LYS135      0.0035
     21  CD        28.8470   62.7520   21.4960 C.3   135  LYS135      0.0206
     22  CE        30.3110   62.4870   21.7890 C.3   135  LYS135      0.1093
     23  NZ        31.1550   62.9920   20.6190 N.3   135  LYS135     -0.1314
     24  N         27.8110   68.0440   22.1240 N.am  136  ASN136     -0.1974
     25  CA        28.2550   69.0360   23.0880 C.3   136  ASN136      0.1688
     26  C         27.7770   70.4150   22.6320 C.2   136  ASN136      0.2292
     27  O         27.7160   70.6950   21.4270 O.2   136  ASN136     -0.2864
     28  CB        29.8230   69.1120   23.1280 C.3   136  ASN136      0.1181
     29  CG        30.4840   67.8370   23.7290 C.2   136  ASN136      0.2629
     30  OD1       30.8520   67.8780   24.8540 O.2   136  ASN136     -0.2716
     31  ND2       30.6210   66.7820   22.9610 N.am  136  ASN136     -0.0877
     32  N         31.1770   73.7160   25.6170 N.3   140  GLN140     -0.1245
     33  CA        31.7200   72.3790   25.8660 C.3   140  GLN140      0.1566
     34  C         32.6650   71.9400   24.7750 C.2   140  GLN140      0.2260
     35  O         33.2560   70.8500   24.9030 O.2   140  GLN140     -0.2867
     36  CB        30.5860   71.3490   25.9140 C.3   140  GLN140      0.0367
     37  CG        29.6430   71.4890   27.1100 C.3   140  GLN140      0.0905
     38  CD        28.5870   70.3640   27.2170 C.2   140  GLN140      0.2608
     39  OE1       27.7490   70.0790   26.2920 O.2   140  GLN140     -0.2717
     40  NE2       28.5980   69.7270   28.3910 N.am  140  GLN140     -0.0878
     41  N         20.9580   67.6660   27.9240 N.3   154  GLU154     -0.1231
     42  CA        21.3330   66.7350   26.8610 C.3   154  GLU154      0.1699
     43  C         21.1010   67.4090   25.5040 C.2   154  GLU154      0.2592
     44  O         20.0020   67.9330   25.2420 O.2   154  GLU154     -0.2718
     45  CB        20.5170   65.4440   26.9550 C.3   154  GLU154      0.0402
     46  CG        20.9620   64.4340   25.8760 C.3   154  GLU154      0.1161
     47  CD        20.4110   63.0420   26.1330 C.2   154  GLU154      0.3649
     48  OE1       20.6160   62.5300   27.2570 O.co2 154  GLU154     -0.2457
     49  OE2       19.7580   62.5020   25.2320 O.co2 154  GLU154     -0.2457
     50  N         22.1200   67.3740   24.6360 N.am  155  CYS155     -0.1970
     51  CA        21.9720   67.9370   23.3010 C.3   155  CYS155      0.1712
     52  C         20.9820   67.1250   22.4670 C.2   155  CYS155      0.2296
     53  O         20.9930   65.8640   22.4670 O.2   155  CYS155     -0.2864
     54  CB        23.3400   67.9250   22.6060 C.3   155  CYS155      0.0983
     55  SG        24.5140   69.0470   23.4510 S.3   155  CYS155     -0.0798
     56  N         21.2510   60.8000   18.2330 N.3   183  MET183     -0.1245
     57  CA        21.1610   60.0720   19.5110 C.3   183  MET183      0.1570
     58  C         19.9440   59.1550   19.5360 C.2   183  MET183      0.2261
     59  O         20.0060   58.0230   20.0590 O.2   183  MET183     -0.2867
     60  CB        21.0500   61.0900   20.6500 C.3   183  MET183      0.0387
     61  CG        21.0220   60.4560   22.0400 C.3   183  MET183      0.0595
     62  SD        22.4460   59.4730   22.4360 S.3   183  MET183     -0.1393
     63  CE        23.6560   60.7650   22.5260 C.3   183  MET183      0.0692
     64  N         18.7830   55.6640   21.9030 N.3   186  HIS186     -0.1226
     65  CA        19.7330   54.9500   22.7550 C.3   186  HIS186      0.1752
     66  C         19.2970   54.9590   24.1870 C.2   186  HIS186      0.2597
     67  O         18.7860   55.9780   24.6810 O.2   186  HIS186     -0.2718
     68  CB        21.1430   55.5890   22.6630 C.3   186  HIS186      0.0759
     69  CG        22.2490   54.5670   22.7650 C.ar  186  HIS186      0.0818
     70  ND1       22.5110   53.8430   23.9280 N.ar  186  HIS186     -0.2268
     71  CD2       23.0280   54.0490   21.7960 C.ar  186  HIS186      0.1154
     72  CE1       23.4720   52.9520   23.6700 C.ar  186  HIS186      0.1986
     73  NE2       23.8160   53.0870   22.3850 N.ar  186  HIS186     -0.2212
     74  N         19.4700   53.8200   24.8690 N.am  187  GLY187     -0.1943
     75  CA        19.1340   53.7070   26.2680 C.3   187  GLY187      0.1998
     76  C         20.4110   53.4660   27.0700 C.2   187  GLY187      0.2480
     77  O         21.4980   53.7190   26.5580 O.2   187  GLY187     -0.2729
     78  N         20.2870   53.0390   28.3190 N.am  188  PRO188     -0.2726
     79  CA        19.0360   52.5960   28.9310 C.3   188  PRO188      0.1402
     80  C         18.1060   53.7310   29.3690 C.2   188  PRO188      0.2269
     81  O         16.9380   53.4210   29.6360 O.2   188  PRO188     -0.2865
     82  CB        19.4720   51.8070   30.2060 C.3   188  PRO188      0.0296
     83  CG        20.8300   52.4710   30.5310 C.3   188  PRO188      0.0237
     84  CD        21.4580   52.7920   29.2020 C.3   188  PRO188      0.0939
     85  N         15.8270   60.9830   26.5290 N.3   193  ARG193     -0.1245
     86  CA        16.1090   61.1650   25.1040 C.3   193  ARG193      0.1563
     87  C         15.1560   62.1200   24.3820 C.2   193  ARG193      0.2260
     88  O         15.4110   62.4210   23.2030 O.2   193  ARG193     -0.2867
     89  CB        15.9820   59.7970   24.3890 C.3   193  ARG193      0.0307
     90  CG        17.0180   58.7530   24.8430 C.3   193  ARG193      0.0489
     91  CD        18.4890   59.1400   24.4310 C.3   193  ARG193      0.2205
     92  NE        19.2000   59.7870   25.5420 N.pl3 193  ARG193     -0.0865
     93  CZ        19.8280   59.1150   26.5310 C.cat 193  ARG193      0.5346
     94  NH1       19.7420   57.7710   26.5660 N.pl3 193  ARG193      0.1354
     95  NH2       20.4780   59.7710   27.5170 N.pl3 193  ARG193      0.1354
@<TRIPOS>BOND
     1     5     6    1
     2     5     2    1
     3     6     8   am
     4     6     7    2
     5    56    57    1
     6    14    13    1
     7    11    12    2
     8    11    10    1
     9     1     2    1
    10     9    10    1
    11     9     3   am
    12     2     3    1
    13    10    13    1
    14    57    58    1
    15    57    60    1
    16    58    59    2
    17     3     4    2
    18    15    16    1
    19    23    22    1
    20    60    61    1
    21    16    19    1
    22    16    17    1
    23    27    26    2
    24    19    20    1
    25    21    20    1
    26    21    22    1
    27    71    73   ar
    28    71    69   ar
    29    64    65    1
    30    61    62    1
    31    24    17   am
    32    24    25    1
    33    73    72   ar
    34    62    63    1
    35    17    18    2
    36    53    52    2
    37    52    51    1
    38    54    51    1
    39    54    55    1
    40    26    25    1
    41    68    65    1
    42    68    69    1
    43    65    66    1
    44    69    70   ar
    45    31    29   am
    46    25    28    1
    47    28    29    1
    48    88    87    2
    49    51    50    1
    50    72    70   ar
    51    29    30    2
    52    66    67    2
    53    66    74   am
    54    87    86    1
    55    89    90    1
    56    89    86    1
    57    91    90    1
    58    91    92    1
    59    50    43   am
    60    34    35    2
    61    34    33    1
    62    74    75    1
    63    86    85    1
    64    49    47   ar
    65    44    43    2
    66    43    42    1
    67    92    93    2
    68    32    33    1
    69    33    36    1
    70    46    47    1
    71    46    45    1
    72    36    37    1
    73    47    48   ar
    74    75    76    1
    75    39    38    2
    76    93    94    1
    77    93    95    1
    78    77    76    2
    79    42    45    1
    80    42    41    1
    81    76    78   am
    82    37    38    1
    83    38    40   am
    84    78    79    1
    85    78    84    1
    86    79    80    1
    87    79    82    1
    88    84    83    1
    89    80    81    2
    90    82    83    1
