@<TRIPOS>MOLECULE
tmp/6bncB02.pdb
 82 81 0 0 0
SMALL
GASTEIGER

@<TRIPOS>ATOM
      1  N          0.6500   60.0840    1.6710 N.3    56  LEU56      -0.1231
      2  CA         0.6960   61.0270    0.5350 C.3    56  LEU56       0.1693
      3  C          1.5730   60.5330   -0.6210 C.2    56  LEU56       0.2593
      4  O          1.5530   61.1360   -1.7090 O.2    56  LEU56      -0.2718
      5  CB         1.1990   62.4080    1.0160 C.3    56  LEU56       0.0284
      6  CG         0.2180   63.2170    1.9060 C.3    56  LEU56       0.0019
      7  CD1        0.9720   64.3200    2.5620 C.3    56  LEU56       0.0001
      8  CD2       -0.8360   63.7870    1.0160 C.3    56  LEU56       0.0001
      9  N          2.3290   59.4660   -0.4260 N.am   57  GLY57      -0.1942
     10  CA         3.2600   58.9860   -1.4280 C.3    57  GLY57       0.2014
     11  C          4.5720   59.7330   -1.4740 C.2    57  GLY57       0.2638
     12  O          5.3080   59.5740   -2.4540 O.2    57  GLY57      -0.2714
     13  N          4.8840   60.5510   -0.4670 N.am   58  GLN58      -0.1977
     14  CA         6.1390   61.2910   -0.4780 C.3    58  GLN58       0.1601
     15  C          7.2610   60.5010    0.1760 C.2    58  GLN58       0.2287
     16  O          8.4290   60.6360   -0.2130 O.2    58  GLN58      -0.2864
     17  CB         6.0120   62.5980    0.3060 C.3    58  GLN58       0.0394
     18  CG         5.1770   63.6680   -0.3820 C.3    58  GLN58       0.0908
     19  CD         5.2990   64.9600    0.4040 C.2    58  GLN58       0.2608
     20  OE1        6.3990   65.3260    0.9440 O.2    58  GLN58      -0.2717
     21  NE2        4.1880   65.6600    0.5030 N.am   58  GLN58      -0.0878
     22  N          8.6950   56.6990    1.1530 N.3    60  HIS60      -0.1241
     23  CA         8.6220   55.2750    0.8470 C.3    60  HIS60       0.1621
     24  C          9.1180   54.4760    2.0500 C.2    60  HIS60       0.2264
     25  O         10.2240   54.7390    2.5580 O.2    60  HIS60      -0.2867
     26  CB         9.5200   55.0450   -0.3700 C.3    60  HIS60       0.0745
     27  CG         9.1190   55.8970   -1.5210 C.ar   60  HIS60       0.0817
     28  ND1        8.1710   55.4950   -2.4320 N.ar   60  HIS60      -0.2268
     29  CD2        9.4570   57.1670   -1.8540 C.ar   60  HIS60       0.1154
     30  CE1        7.9790   56.4600   -3.3170 C.ar   60  HIS60       0.1986
     31  NE2        8.7230   57.4980   -2.9700 N.ar   60  HIS60      -0.2212
     32  N         12.4770   70.2540    1.6420 N.3   241  ALA241     -0.1245
     33  CA        11.4170   70.6910    0.7220 C.3   241  ALA241      0.1562
     34  C         11.5610   72.1410    0.3050 C.2   241  ALA241      0.2260
     35  O         11.0490   72.5220   -0.7610 O.2   241  ALA241     -0.2867
     36  CB        10.0660   70.4260    1.3850 C.3   241  ALA241      0.0290
     37  N         12.5630   59.6650    1.5510 N.3   287  TRP287     -0.1227
     38  CA        11.7590   60.7440    1.0130 C.3   287  TRP287      0.1737
     39  C         12.4480   61.3090   -0.2130 C.2   287  TRP287      0.2595
     40  O         13.6830   61.4430   -0.2170 O.2   287  TRP287     -0.2718
     41  CB        11.6620   61.8490    2.0870 C.3   287  TRP287      0.0564
     42  CG        10.9250   63.1050    1.6210 C.ar  287  TRP287      0.0003
     43  CD1        9.5890   63.3270    1.6690 C.ar  287  TRP287      0.0946
     44  CD2       11.4990   64.2800    1.0230 C.ar  287  TRP287      0.0152
     45  NE1        9.2570   64.5780    1.1460 N.ar  287  TRP287     -0.2442
     46  CE2       10.4310   65.1940    0.7810 C.ar  287  TRP287      0.0810
     47  CE3       12.8180   64.6770    0.7450 C.ar  287  TRP287      0.0012
     48  CZ2       10.6170   66.4540    0.2140 C.ar  287  TRP287      0.0191
     49  CZ3       13.0010   65.9310    0.1630 C.ar  287  TRP287      0.0001
     50  CH2       11.8980   66.8070   -0.0950 C.ar  287  TRP287      0.0015
     51  N         11.7050   61.6320   -1.2440 N.am  288  LEU288     -0.1966
     52  CA        12.2570   62.2720   -2.4400 C.3   288  LEU288      0.1728
     53  C         11.5470   63.6030   -2.6900 C.2   288  LEU288      0.2617
     54  O         10.3340   63.7130   -2.4620 O.2   288  LEU288     -0.2715
     55  CB        12.0600   61.3600   -3.6760 C.3   288  LEU288      0.0311
     56  CG        12.8620   60.0560   -3.5700 C.3   288  LEU288      0.0022
     57  CD1       12.3870   59.1050   -4.7090 C.3   288  LEU288      0.0001
     58  CD2       14.3210   60.2970   -3.6450 C.3   288  LEU288      0.0001
     59  N         12.3030   64.6030   -3.1610 N.am  289  GLY289     -0.1940
     60  CA        11.7410   65.9220   -3.4170 C.3   289  GLY289      0.2014
     61  C         10.8230   65.9730   -4.6200 C.2   289  GLY289      0.2639
     62  O         10.6710   65.0120   -5.3890 O.2   289  GLY289     -0.2714
     63  N         10.1560   67.1230   -4.7620 N.am  290  ALA290     -0.1963
     64  CA         9.2120   67.3120   -5.8640 C.3   290  ALA290      0.1728
     65  C          9.9050   67.0690   -7.1940 C.2   290  ALA290      0.2616
     66  O         11.0880   67.4000   -7.3810 O.2   290  ALA290     -0.2715
     67  CB         8.6700   68.7480   -5.8360 C.3   290  ALA290      0.0334
     68  N          9.1480   66.5050   -8.1520 N.am  291  ASP291     -0.1957
     69  CA         9.6630   66.2930   -9.5010 C.3   291  ASP291      0.1840
     70  C         10.9420   65.4740   -9.5080 C.2   291  ASP291      0.2622
     71  O         11.8660   65.7530  -10.2940 O.2   291  ASP291     -0.2715
     72  CB         9.8770   67.6270  -10.2250 C.3   291  ASP291      0.1450
     73  CG         8.6440   68.4770  -10.1940 C.2   291  ASP291      0.3671
     74  OD1        7.5610   67.8990  -10.4310 O.co2 291  ASP291     -0.2456
     75  OD2        8.7650   69.6870   -9.8970 O.co2 291  ASP291     -0.2456
     76  N         10.9870   64.4490   -8.6220 N.am  292  THR292     -0.1951
     77  CA        12.2080   63.6740   -8.4970 C.3   292  THR292      0.1897
     78  C         12.5250   62.9380   -9.7970 C.2   292  THR292      0.2313
     79  O         11.6130   62.4000  -10.4570 O.2   292  THR292     -0.2863
     80  CB        12.1000   62.6820   -7.3360 C.3   292  THR292      0.1794
     81  OG1       13.3590   62.0310   -7.1850 O.3   292  THR292     -0.2208
     82  CG2       11.0160   61.6030   -7.5920 C.3   292  THR292      0.0378
@<TRIPOS>BOND
     1    79    78    2
     2    74    73   ar
     3    71    70    2
     4    72    73    1
     5    72    69    1
     6    73    75   ar
     7    78    77    1
     8    70    69    1
     9    70    76   am
    10    69    68    1
    11    76    77    1
    12    77    80    1
    13    68    65   am
    14    82    80    1
    15    66    65    2
    16    80    81    1
    17    65    64    1
    18    64    67    1
    19    64    63    1
    20    62    61    2
    21    63    61   am
    22    57    56    1
    23    61    60    1
    24    55    56    1
    25    55    52    1
    26    58    56    1
    27    60    59    1
    28    30    31   ar
    29    30    28   ar
    30    59    53   am
    31    31    29   ar
    32    53    54    2
    33    53    52    1
    34    12    11    2
    35    52    51    1
    36    28    27   ar
    37    29    27   ar
    38     4     3    2
    39    27    26    1
    40    11    10    1
    41    11    13   am
    42    10     9    1
    43    51    39   am
    44    35    34    2
    45     3     9   am
    46     3     2    1
    47    14    13    1
    48    14    15    1
    49    14    17    1
    50    18    17    1
    51    18    19    1
    52    26    23    1
    53    40    39    2
    54    16    15    2
    55    39    38    1
    56    50    49   ar
    57    50    48   ar
    58    49    47   ar
    59    48    46   ar
    60    34    33    1
    61    19    21   am
    62    19    20    2
    63     2     5    1
    64     2     1    1
    65    33    36    1
    66    33    32    1
    67    47    44   ar
    68    46    44   ar
    69    46    45   ar
    70    23    22    1
    71    23    24    1
    72    38    37    1
    73    38    41    1
    74     5     6    1
    75     8     6    1
    76    44    42   ar
    77    45    43   ar
    78    42    43   ar
    79    42    41    1
    80     6     7    1
    81    24    25    2
