@<TRIPOS>MOLECULE
tmp/6bncA00.pdb
 89 84 0 0 0
SMALL
GASTEIGER

@<TRIPOS>ATOM
      1  N         46.3460   60.3390   14.7970 N.3   116  ASN116     -0.1225
      2  CA        46.3040   58.9640   14.3140 C.3   116  ASN116      0.1785
      3  C         44.9860   58.6790   13.6180 C.2   116  ASN116      0.2597
      4  O         44.9580   58.2890   12.4520 O.2   116  ASN116     -0.2718
      5  CB        46.4650   58.0630   15.5390 C.3   116  ASN116      0.1169
      6  CG        46.4900   56.5530   15.1760 C.2   116  ASN116      0.2627
      7  OD1       45.4410   55.9340   14.9180 O.2   116  ASN116     -0.2716
      8  ND2       47.6720   55.9620   15.1640 N.am  116  ASN116     -0.0877
      9  N         43.8890   58.9030   14.3410 N.am  117  SER117     -0.1952
     10  CA        42.5610   58.5090   13.9070 C.3   117  SER117      0.1924
     11  C         41.6230   59.2100   14.8860 C.2   117  SER117      0.2314
     12  O         41.2050   60.3540   14.6440 O.2   117  SER117     -0.2863
     13  CB        42.3610   56.9840   13.8690 C.3   117  SER117      0.2116
     14  OG        42.7930   56.3520   15.0670 O.3   117  SER117     -0.2180
     15  N         45.6100   65.5190   13.4710 N.3   135  LYS135     -0.1231
     16  CA        45.9810   64.9610   12.1660 C.3   135  LYS135      0.1693
     17  C         45.6470   65.8990   11.0200 C.2   135  LYS135      0.2592
     18  O         45.8800   65.5740    9.8490 O.2   135  LYS135     -0.2718
     19  CB        45.4110   63.5530   11.9510 C.3   135  LYS135      0.0285
     20  CG        43.9670   63.4740   11.9870 C.3   135  LYS135      0.0035
     21  CD        43.5070   61.9050   11.9370 C.3   135  LYS135      0.0206
     22  CE        42.0090   61.8140   11.6110 C.3   135  LYS135      0.1093
     23  NZ        41.1680   62.3870   12.7340 N.3   135  LYS135     -0.1314
     24  N         45.0930   67.0830   11.3600 N.am  136  ASN136     -0.1974
     25  CA        44.7600   68.1160   10.3980 C.3   136  ASN136      0.1688
     26  C         45.3760   69.4370   10.8620 C.2   136  ASN136      0.2292
     27  O         45.5000   69.6990   12.0700 O.2   136  ASN136     -0.2864
     28  CB        43.2190   68.3520   10.3700 C.3   136  ASN136      0.1181
     29  CG        42.4370   67.1830    9.7410 C.2   136  ASN136      0.2629
     30  OD1       42.0330   67.3200    8.6110 O.2   136  ASN136     -0.2716
     31  ND2       42.1910   66.1070   10.4810 N.am  136  ASN136     -0.0877
     32  N         42.4500   73.0840    7.9100 N.3   140  GLN140     -0.1245
     33  CA        41.7540   71.8180    7.6500 C.3   140  GLN140      0.1566
     34  C         40.7430   71.5070    8.7310 C.2   140  GLN140      0.2260
     35  O         40.0080   70.5260    8.5970 O.2   140  GLN140     -0.2867
     36  CB        42.7480   70.6290    7.5870 C.3   140  GLN140      0.0367
     37  CG        43.6370   70.6200    6.3430 C.3   140  GLN140      0.0905
     38  CD        44.6020   69.4580    6.2740 C.2   140  GLN140      0.2608
     39  OE1       45.3850   69.1600    7.2080 O.2   140  GLN140     -0.2717
     40  NE2       44.6340   68.8350    5.0990 N.am  140  GLN140     -0.0878
     41  N         51.8450   66.0260    5.5350 N.3   154  GLU154     -0.1245
     42  CA        51.3810   65.1430    6.6130 C.3   154  GLU154      0.1567
     43  C         51.7060   65.7610    7.9790 C.2   154  GLU154      0.2260
     44  O         52.8550   66.1400    8.2410 O.2   154  GLU154     -0.2867
     45  CB        52.0340   63.7510    6.4780 C.3   154  GLU154      0.0388
     46  CG        51.5170   62.7950    7.5430 C.3   154  GLU154      0.1160
     47  CD        51.9110   61.3430    7.2760 C.2   154  GLU154      0.3649
     48  OE1       51.6840   60.8910    6.1330 O.co2 154  GLU154     -0.2457
     49  OE2       52.4800   60.7060    8.1970 O.co2 154  GLU154     -0.2457
     50  N         50.8230   59.1190   15.1450 N.3   183  MET183     -0.1245
     51  CA        50.8250   58.4240   13.8690 C.3   183  MET183      0.1570
     52  C         51.9240   57.3650   13.8310 C.2   183  MET183      0.2261
     53  O         51.7400   56.2610   13.3130 O.2   183  MET183     -0.2867
     54  CB        51.0230   59.4650   12.7440 C.3   183  MET183      0.0387
     55  CG        51.1210   58.8610   11.3690 C.3   183  MET183      0.0595
     56  SD        49.5410   58.0150   10.9240 S.3   183  MET183     -0.1393
     57  CE        48.4440   59.3870   10.8310 C.3   183  MET183      0.0692
     58  N         52.7660   53.7960   11.3850 N.3   186  HIS186     -0.1226
     59  CA        51.7140   53.2080   10.5490 C.3   186  HIS186      0.1752
     60  C         52.1520   53.1710    9.0960 C.2   186  HIS186      0.2597
     61  O         52.7660   54.1220    8.6190 O.2   186  HIS186     -0.2718
     62  CB        50.3730   54.0000   10.6520 C.3   186  HIS186      0.0759
     63  CG        49.1800   53.1070   10.5280 C.ar  186  HIS186      0.0818
     64  ND1       48.8330   52.4220    9.3660 N.ar  186  HIS186     -0.2268
     65  CD2       48.3440   52.6710   11.4740 C.ar  186  HIS186      0.1154
     66  CE1       47.8130   51.6230    9.6180 C.ar  186  HIS186      0.1986
     67  NE2       47.4610   51.7830   10.8900 N.ar  186  HIS186     -0.2212
     68  N         51.8450   52.0610    8.4230 N.am  187  GLY187     -0.1943
     69  CA        52.1710   51.9340    7.0160 C.3   187  GLY187      0.1998
     70  C         50.9030   51.8310    6.2060 C.2   187  GLY187      0.2480
     71  O         49.7980   52.1430    6.6790 O.2   187  GLY187     -0.2729
     72  N         50.9930   51.4130    4.9240 N.am  188  PRO188     -0.2726
     73  CA        52.2110   50.8520    4.3270 C.3   188  PRO188      0.1402
     74  C         53.2360   51.8720    3.8830 C.2   188  PRO188      0.2269
     75  O         54.3870   51.4730    3.6510 O.2   188  PRO188     -0.2865
     76  CB        51.7100   50.1370    3.0860 C.3   188  PRO188      0.0296
     77  CG        50.4340   50.8300    2.6930 C.3   188  PRO188      0.0237
     78  CD        49.8280   51.2970    4.0440 C.3   188  PRO188      0.0939
     79  N         56.2210   58.8580    6.8700 N.3   193  ARG193     -0.1245
     80  CA        55.9810   59.0140    8.3040 C.3   193  ARG193      0.1563
     81  C         57.0100   59.8790    9.0140 C.2   193  ARG193      0.2260
     82  O         56.8010   60.1510   10.2170 O.2   193  ARG193     -0.2867
     83  CB        55.9700   57.6400    8.9820 C.3   193  ARG193      0.0307
     84  CG        54.7740   56.7210    8.5060 C.3   193  ARG193      0.0489
     85  CD        53.4030   57.3100    8.8780 C.3   193  ARG193      0.2205
     86  NE        52.7630   57.9870    7.7630 N.pl3 193  ARG193     -0.0865
     87  CZ        52.0980   57.3890    6.7690 C.cat 193  ARG193      0.5346
     88  NH1       52.0200   56.0350    6.7510 N.pl3 193  ARG193      0.1354
     89  NH2       51.5320   58.0970    5.8070 N.pl3 193  ARG193      0.1354
@<TRIPOS>BOND
     1    77    76    1
     2    77    78    1
     3    76    73    1
     4    75    74    2
     5    74    73    1
     6    78    72    1
     7    73    72    1
     8    72    70   am
     9    40    38   am
    10    41    42    1
    11    89    87    1
    12    48    47   ar
    13    70    71    2
    14    70    69    1
    15    38    37    1
    16    38    39    2
    17    37    36    1
    18    45    42    1
    19    45    46    1
    20    42    43    1
    21    88    87    1
    22    87    86    2
    23    79    80    1
    24    69    68    1
    25    47    46    1
    26    47    49   ar
    27    36    33    1
    28    33    32    1
    29    33    34    1
    30    86    85    1
    31    43    44    2
    32    80    83    1
    33    80    81    1
    34    68    60   am
    35    84    85    1
    36    84    83    1
    37    35    34    2
    38    30    29    2
    39    61    60    2
    40    81    82    2
    41    60    59    1
    42    64    66   ar
    43    64    63   ar
    44    66    67   ar
    45    29    28    1
    46    29    31   am
    47    18    17    2
    48    28    25    1
    49    25    26    1
    50    25    24    1
    51    63    62    1
    52    63    65   ar
    53    59    62    1
    54    59    58    1
    55    57    56    1
    56    26    27    2
    57    67    65   ar
    58    56    55    1
    59    17    24   am
    60    17    16    1
    61    55    54    1
    62    22    21    1
    63    22    23    1
    64    21    20    1
    65    19    20    1
    66    19    16    1
    67    16    15    1
    68     4     3    2
    69    54    51    1
    70    53    52    2
    71     3     2    1
    72     3     9   am
    73    52    51    1
    74    13    10    1
    75    13    14    1
    76    51    50    1
    77    10     9    1
    78    10    11    1
    79     2     1    1
    80     2     5    1
    81    12    11    2
    82     7     6    2
    83     8     6   am
    84     6     5    1
