@<TRIPOS>MOLECULE
tmp/6bndB02.pdb
 94 89 0 0 0
SMALL
GASTEIGER

@<TRIPOS>ATOM
      1  N        -17.5410   21.8540   17.5780 N.3    30  GLU30      -0.1245
      2  CA       -16.9450   22.4620   16.3810 C.3    30  GLU30       0.1567
      3  C        -18.0120   23.2430   15.6210 C.2    30  GLU30       0.2260
      4  O        -18.9850   22.6380   15.1420 O.2    30  GLU30      -0.2867
      5  CB       -16.3440   21.3660   15.4850 C.3    30  GLU30       0.0388
      6  CG       -15.7220   21.8840   14.2060 C.3    30  GLU30       0.1160
      7  CD       -14.7030   23.0120   14.4870 C.2    30  GLU30       0.3649
      8  OE1      -15.0740   24.1620   14.1140 O.co2  30  GLU30      -0.2457
      9  OE2      -13.5720   22.6940   15.0040 O.co2  30  GLU30      -0.2457
     10  N        -11.6010   30.5500   15.9280 N.3    71  SER71      -0.1202
     11  CA       -10.9700   29.4220   15.2270 C.3    71  SER71       0.2020
     12  C        -10.5320   28.3910   16.2590 C.2    71  SER71       0.2619
     13  O        -10.3560   28.7120   17.4320 O.2    71  SER71      -0.2717
     14  CB        -9.7620   29.8950   14.3930 C.3    71  SER71       0.2103
     15  OG        -8.7490   30.3260   15.2710 O.3    71  SER71      -0.2182
     16  N        -10.3630   27.1400   15.8220 N.am   72  ALA72      -0.1965
     17  CA        -9.8960   26.1250   16.7720 C.3    72  ALA72       0.1728
     18  C         -8.4700   26.4350   17.2130 C.2    72  ALA72       0.2616
     19  O         -8.0990   26.1820   18.3670 O.2    72  ALA72      -0.2715
     20  CB        -9.8960   24.7300   16.1320 C.3    72  ALA72       0.0334
     21  N         -7.6600   26.9510   16.2910 N.am   73  ALA73      -0.1977
     22  CA        -6.2550   27.1990   16.6380 C.3    73  ALA73       0.1597
     23  C         -6.1670   28.1110   17.8390 C.2    73  ALA73       0.2287
     24  O         -5.3180   27.9180   18.7170 O.2    73  ALA73      -0.2864
     25  CB        -5.4820   27.7820   15.4340 C.3    73  ALA73       0.0319
     26  N        -11.1970   15.5680   14.5340 N.3   116  ASN116     -0.1225
     27  CA       -11.2770   16.9580   14.0800 C.3   116  ASN116      0.1785
     28  C         -9.9590   17.3610   13.4220 C.2   116  ASN116      0.2597
     29  O         -9.8810   17.6740   12.2300 O.2   116  ASN116     -0.2718
     30  CB       -11.5940   17.8300   15.3020 C.3   116  ASN116      0.1169
     31  CG       -11.6630   19.3500   14.9550 C.2   116  ASN116      0.2627
     32  OD1      -10.6240   19.9810   14.7070 O.2   116  ASN116     -0.2716
     33  ND2      -12.8870   19.9170   14.9290 N.am  116  ASN116     -0.0877
     34  N         -8.8850   17.2840   14.1920 N.am  117  SER117     -0.1952
     35  CA        -7.5750   17.7540   13.7270 C.3   117  SER117      0.1924
     36  C         -6.5570   17.1910   14.7280 C.2   117  SER117      0.2314
     37  O         -6.0270   16.0860   14.5150 O.2   117  SER117     -0.2863
     38  CB        -7.5060   19.2950   13.6130 C.3   117  SER117      0.2116
     39  OG        -8.0410   19.9640   14.7650 O.3   117  SER117     -0.2180
     40  N         -4.2670   20.5930   19.4870 N.3   120  LYS120     -0.1245
     41  CA        -3.6610   21.9280   19.3890 C.3   120  LYS120      0.1561
     42  C         -2.6420   22.1260   20.5090 C.2   120  LYS120      0.2260
     43  O         -2.5720   23.1900   21.1470 O.2   120  LYS120     -0.2867
     44  CB        -4.7240   23.0140   19.4390 C.3   120  LYS120      0.0271
     45  CG        -5.8580   22.8500   18.3770 C.3   120  LYS120      0.0035
     46  CD        -5.3950   22.8060   16.9370 C.3   120  LYS120      0.0206
     47  CE        -6.6500   22.5050   16.0850 C.3   120  LYS120      0.1093
     48  NZ        -6.4020   22.4160   14.6220 N.3   120  LYS120     -0.1314
     49  N        -15.8570   16.4260   14.9190 N.3   183  MET183     -0.1245
     50  CA       -15.9590   17.0870   13.6190 C.3   183  MET183      0.1570
     51  C        -17.1550   18.0490   13.5900 C.2   183  MET183      0.2261
     52  O        -17.0530   19.1640   13.0410 O.2   183  MET183     -0.2867
     53  CB       -16.1060   16.0200   12.5260 C.3   183  MET183      0.0387
     54  CG       -16.2900   16.5840   11.1270 C.3   183  MET183      0.0595
     55  SD       -14.8470   17.5360   10.4950 S.3   183  MET183     -0.1393
     56  CE       -13.5390   16.4480   10.9240 C.3   183  MET183      0.0692
     57  N        -18.4030   21.6010   11.1970 N.3   186  HIS186     -0.1241
     58  CA       -17.4250   22.2060   10.2860 C.3   186  HIS186      0.1621
     59  C        -18.0030   22.3270    8.8840 C.2   186  HIS186      0.2264
     60  O        -18.6750   21.4050    8.4090 O.2   186  HIS186     -0.2867
     61  CB       -16.1960   21.2920   10.2780 C.3   186  HIS186      0.0745
     62  CG       -15.1870   21.6220    9.2260 C.ar  186  HIS186      0.0817
     63  ND1      -14.4530   22.7770    9.2450 N.ar  186  HIS186     -0.2268
     64  CD2      -14.8010   20.9380    8.1170 C.ar  186  HIS186      0.1154
     65  CE1      -13.6350   22.7910    8.2100 C.ar  186  HIS186      0.1986
     66  NE2      -13.8440   21.6980    7.4930 N.ar  186  HIS186     -0.2212
     67  N        -16.1580   25.2230   19.9450 N.3   255  ASP255     -0.1225
     68  CA       -14.9220   26.0600   19.9340 C.3   255  ASP255      0.1805
     69  C        -15.1800   27.4930   19.4470 C.2   255  ASP255      0.2597
     70  O        -14.4170   28.3910   19.7980 O.2   255  ASP255     -0.2718
     71  CB       -13.7660   25.4450   19.0720 C.3   255  ASP255      0.1424
     72  CG       -14.1090   25.2590   17.5690 C.2   255  ASP255      0.3668
     73  OD1      -15.3020   25.1640   17.2020 O.co2 255  ASP255     -0.2456
     74  OD2      -13.2110   25.2420   16.6890 O.co2 255  ASP255     -0.2456
     75  N        -16.2610   27.7290   18.7060 N.am  256  HIS256     -0.1975
     76  CA       -16.6680   29.0590   18.2230 C.3   256  HIS256      0.1656
     77  C        -17.9690   28.8060   17.4600 C.2   256  HIS256      0.2291
     78  O        -18.3620   27.6420   17.2310 O.2   256  HIS256     -0.2864
     79  CB       -15.6250   29.7410   17.3010 C.3   256  HIS256      0.0771
     80  CG       -15.2250   28.8400   16.1770 C.ar  256  HIS256      0.0820
     81  ND1      -16.0680   28.5580   15.1270 N.ar  256  HIS256     -0.2267
     82  CD2      -14.1650   27.9990   16.0460 C.ar  256  HIS256      0.1154
     83  CE1      -15.5380   27.5990   14.3790 C.ar  256  HIS256      0.1986
     84  NE2      -14.3550   27.3090   14.8750 N.ar  256  HIS256     -0.2212
     85  N        -16.1950   31.3750    9.5550 N.3   268  HIS268     -0.1241
     86  CA       -15.7340   31.9380   10.8190 C.3   268  HIS268      0.1621
     87  C        -14.3010   32.4620   10.6550 C.2   268  HIS268      0.2264
     88  O        -13.9710   32.9640    9.5860 O.2   268  HIS268     -0.2867
     89  CB       -15.8590   30.8960   11.9290 C.3   268  HIS268      0.0745
     90  CG       -15.2420   29.5660   11.6030 C.ar  268  HIS268      0.0817
     91  ND1      -15.9590   28.5530   10.9940 N.ar  268  HIS268     -0.2268
     92  CD2      -13.9920   29.0660   11.8400 C.ar  268  HIS268      0.1154
     93  CE1      -15.1670   27.4870   10.8490 C.ar  268  HIS268      0.1986
     94  NE2      -13.9720   27.7690   11.3530 N.ar  268  HIS268     -0.2212
@<TRIPOS>BOND
     1    66    64   ar
     2    66    65   ar
     3    64    62   ar
     4    65    63   ar
     5    60    59    2
     6    59    58    1
     7    62    63   ar
     8    62    61    1
     9    85    86    1
    10    88    87    2
    11    61    58    1
    12    58    57    1
    13    55    56    1
    14    55    54    1
    15    87    86    1
    16    86    89    1
    17    93    91   ar
    18    93    94   ar
    19    91    90   ar
    20    54    53    1
    21    94    92   ar
    22    90    92   ar
    23    90    89    1
    24    29    28    2
    25    53    50    1
    26    52    51    2
    27    28    27    1
    28    28    34   am
    29    51    50    1
    30    38    35    1
    31    38    39    1
    32    50    49    1
    33    35    34    1
    34    35    36    1
    35    27    26    1
    36    27    30    1
    37     8     7   ar
    38     6     7    1
    39     6     5    1
    40    83    84   ar
    41    83    81   ar
    42    14    11    1
    43    14    15    1
    44     7     9   ar
    45    37    36    2
    46    48    47    1
    47    32    31    2
    48    84    82   ar
    49    33    31   am
    50    31    30    1
    51    81    80   ar
    52     4     3    2
    53    11    10    1
    54    11    12    1
    55    25    22    1
    56     5     2    1
    57     3     2    1
    58    16    12   am
    59    16    17    1
    60    82    80   ar
    61    47    46    1
    62    20    17    1
    63    80    79    1
    64    12    13    2
    65    21    22    1
    66    21    18   am
    67     2     1    1
    68    22    23    1
    69    74    72   ar
    70    17    18    1
    71    46    45    1
    72    73    72   ar
    73    18    19    2
    74    78    77    2
    75    79    76    1
    76    77    76    1
    77    72    71    1
    78    23    24    2
    79    76    75    1
    80    45    44    1
    81    75    69   am
    82    71    68    1
    83    41    44    1
    84    41    40    1
    85    41    42    1
    86    69    70    2
    87    69    68    1
    88    68    67    1
    89    42    43    2
