@<TRIPOS>MOLECULE
tmp/6bniA00.pdb
 128 121 0 0 0
SMALL
GASTEIGER

@<TRIPOS>ATOM
      1  N         -6.6820   14.2020  -51.1580 N.3   206  GLY206     -0.1210
      2  CA        -7.0960   15.5430  -50.8010 C.3   206  GLY206      0.1956
      3  C         -6.6060   16.0430  -49.4620 C.2   206  GLY206      0.2611
      4  O         -6.9860   17.1520  -49.0650 O.2   206  GLY206     -0.2717
      5  N         -5.7930   15.2620  -48.7470 N.am  207  ALA207     -0.1979
      6  CA        -5.2280   15.6880  -47.4720 C.3   207  ALA207      0.1597
      7  C         -4.0500   14.7800  -47.1450 C.2   207  ALA207      0.2287
      8  O         -3.8110   13.7750  -47.8170 O.2   207  ALA207     -0.2864
      9  CB        -6.2730   15.6620  -46.3460 C.3   207  ALA207      0.0319
     10  N        -11.0400   13.6170  -47.2080 N.3   228  ALA228     -0.1245
     11  CA       -11.4100   14.9780  -47.5950 C.3   228  ALA228      0.1562
     12  C        -12.2170   14.9320  -48.8890 C.2   228  ALA228      0.2260
     13  O        -11.9920   14.0370  -49.7150 O.2   228  ALA228     -0.2867
     14  CB       -10.1630   15.8480  -47.7680 C.3   228  ALA228      0.0290
     15  N        -12.0190   17.1550  -51.3030 N.3   230  GLU230     -0.1245
     16  CA       -11.4140   18.1470  -52.1990 C.3   230  GLU230      0.1567
     17  C        -11.4330   17.7340  -53.6720 C.2   230  GLU230      0.2260
     18  O        -11.7340   18.5510  -54.5550 O.2   230  GLU230     -0.2867
     19  CB        -9.9780   18.4180  -51.7470 C.3   230  GLU230      0.0388
     20  CG        -9.1110   19.1790  -52.7700 C.3   230  GLU230      0.1160
     21  CD        -7.9010   19.8090  -52.1130 C.2   230  GLU230      0.3649
     22  OE1       -6.9540   20.1820  -52.8360 O.co2 230  GLU230     -0.2457
     23  OE2       -7.8930   19.9120  -50.8590 O.co2 230  GLU230     -0.2457
     24  N        -15.3460   13.8970  -42.3720 N.3   250  ASN250     -0.1240
     25  CA       -14.1310   13.2750  -42.8710 C.3   250  ASN250      0.1653
     26  C        -13.7520   12.1480  -41.9240 C.2   250  ASN250      0.2266
     27  O        -14.0820   12.1820  -40.7360 O.2   250  ASN250     -0.2867
     28  CB       -12.9700   14.2640  -42.9380 C.3   250  ASN250      0.1155
     29  CG       -13.1070   15.2430  -44.0720 C.2   250  ASN250      0.2627
     30  OD1      -13.7710   14.9620  -45.0710 O.2   250  ASN250     -0.2716
     31  ND2      -12.4770   16.4040  -43.9270 N.am  250  ASN250     -0.0877
     32  N        -10.4450    9.8700  -40.6460 N.3   252  ARG252     -0.1245
     33  CA        -8.9910    9.7950  -40.6790 C.3   252  ARG252      0.1563
     34  C         -8.5340    8.7790  -39.6500 C.2   252  ARG252      0.2260
     35  O         -8.8340    8.9030  -38.4570 O.2   252  ARG252     -0.2867
     36  CB        -8.3500   11.1790  -40.4750 C.3   252  ARG252      0.0307
     37  CG        -8.6990   12.1060  -41.6620 C.3   252  ARG252      0.0489
     38  CD        -8.0510   13.4720  -41.6010 C.3   252  ARG252      0.2205
     39  NE        -8.5240   14.3020  -42.7220 N.pl3 252  ARG252     -0.0865
     40  CZ        -8.0390   15.4980  -43.0350 C.cat 252  ARG252      0.5346
     41  NH1       -7.0540   16.0290  -42.3180 N.pl3 252  ARG252      0.1354
     42  NH2       -8.5470   16.1640  -44.0650 N.pl3 252  ARG252      0.1354
     43  N        -15.6750   22.2580  -46.6920 N.3   268  GLU268     -0.1245
     44  CA       -14.8410   22.8170  -47.7470 C.3   268  GLU268      0.1567
     45  C        -15.7080   23.6630  -48.6640 C.2   268  GLU268      0.2260
     46  O        -16.8960   23.3790  -48.8460 O.2   268  GLU268     -0.2867
     47  CB       -14.1170   21.7130  -48.6010 C.3   268  GLU268      0.0388
     48  CG       -13.0880   20.8690  -47.8130 C.3   268  GLU268      0.1160
     49  CD       -12.1270   20.1010  -48.7180 C.2   268  GLU268      0.3649
     50  OE1      -11.3400   19.2790  -48.1970 O.co2 268  GLU268     -0.2457
     51  OE2      -12.1500   20.3200  -49.9460 O.co2 268  GLU268     -0.2457
     52  N        -15.2080   25.8500  -52.6420 N.3   270  TYR270     -0.1241
     53  CA       -14.4090   26.1590  -53.8190 C.3   270  TYR270      0.1605
     54  C        -15.0870   27.3120  -54.5350 C.2   270  TYR270      0.2264
     55  O        -16.3090   27.2960  -54.7240 O.2   270  TYR270     -0.2867
     56  CB       -14.2420   24.9200  -54.7390 C.3   270  TYR270      0.0534
     57  CG       -13.3180   23.9710  -54.0240 C.ar  270  TYR270     -0.0201
     58  CD1      -13.7940   23.1610  -52.9970 C.ar  270  TYR270     -0.0009
     59  CD2      -11.9550   23.9900  -54.2670 C.ar  270  TYR270     -0.0009
     60  CE1      -12.9430   22.3580  -52.2610 C.ar  270  TYR270      0.0417
     61  CE2      -11.0920   23.1700  -53.5430 C.ar  270  TYR270      0.0417
     62  CZ       -11.5970   22.3690  -52.5440 C.ar  270  TYR270      0.1957
     63  OH       -10.7520   21.5920  -51.7990 O.3   270  TYR270     -0.2866
     64  N         -4.5840   23.7810  -35.5940 N.3   421  GLU421     -0.1245
     65  CA        -5.0350   24.0670  -36.9500 C.3   421  GLU421      0.1567
     66  C         -6.5560   24.1750  -37.0030 C.2   421  GLU421      0.2260
     67  O         -7.2710   23.3120  -36.4830 O.2   421  GLU421     -0.2867
     68  CB        -4.5650   22.9690  -37.9080 C.3   421  GLU421      0.0388
     69  CG        -5.1130   23.1680  -39.3400 C.3   421  GLU421      0.1160
     70  CD        -4.8740   21.9670  -40.2340 C.2   421  GLU421      0.3649
     71  OE1       -4.1140   21.0710  -39.8190 O.co2 421  GLU421     -0.2457
     72  OE2       -5.4390   21.9210  -41.3560 O.co2 421  GLU421     -0.2457
     73  N         -7.3510   25.2330  -43.6800 N.3   424  ASN424     -0.1225
     74  CA        -6.3250   24.8970  -44.6540 C.3   424  ASN424      0.1785
     75  C         -6.8710   25.3170  -46.0150 C.2   424  ASN424      0.2597
     76  O         -8.0180   24.9870  -46.3370 O.2   424  ASN424     -0.2718
     77  CB        -6.0110   23.3900  -44.5920 C.3   424  ASN424      0.1169
     78  CG        -4.9020   22.9890  -45.5330 C.2   424  ASN424      0.2627
     79  OD1       -3.9630   23.7610  -45.7580 O.2   424  ASN424     -0.2716
     80  ND2       -4.9900   21.7640  -46.0880 N.am  424  ASN424     -0.0877
     81  N         -6.0960   26.0760  -46.7950 N.am  425  ALA425     -0.1966
     82  CA        -6.6580   26.6720  -48.0100 C.3   425  ALA425      0.1728
     83  C         -5.5600   27.0000  -49.0130 C.2   425  ALA425      0.2616
     84  O         -4.4010   27.1880  -48.6380 O.2   425  ALA425     -0.2715
     85  CB        -7.4370   27.9500  -47.6720 C.3   425  ALA425      0.0334
     86  N         -5.9380   27.0970  -50.2980 N.am  426  TYR426     -0.1974
     87  CA        -4.9520   27.5550  -51.2740 C.3   426  TYR426      0.1639
     88  C         -5.5680   27.9730  -52.6040 C.2   426  TYR426      0.2290
     89  O         -6.7090   27.6370  -52.9270 O.2   426  TYR426     -0.2864
     90  CB        -3.8630   26.5050  -51.5370 C.3   426  TYR426      0.0560
     91  CG        -4.2150   25.0300  -51.4340 C.ar  426  TYR426     -0.0198
     92  CD1       -4.7210   24.3470  -52.5230 C.ar  426  TYR426     -0.0009
     93  CD2       -3.9460   24.3040  -50.2640 C.ar  426  TYR426     -0.0009
     94  CE1       -4.9900   22.9670  -52.4570 C.ar  426  TYR426      0.0417
     95  CE2       -4.2130   22.9310  -50.1860 C.ar  426  TYR426      0.0417
     96  CZ        -4.7340   22.2760  -51.2990 C.ar  426  TYR426      0.1957
     97  OH        -5.0070   20.9270  -51.2460 O.3   426  TYR426     -0.2866
     98  N         -5.7990   26.9380  -56.0900 N.3   428  GLU428     -0.1245
     99  CA        -5.8150   25.5260  -56.4760 C.3   428  GLU428      0.1567
    100  C         -4.8790   25.2710  -57.6490 C.2   428  GLU428      0.2260
    101  O         -4.9110   25.9930  -58.6470 O.2   428  GLU428     -0.2867
    102  CB        -7.2340   25.0960  -56.8570 C.3   428  GLU428      0.0388
    103  CG        -8.2570   25.2570  -55.7380 C.3   428  GLU428      0.1160
    104  CD        -7.9430   24.3760  -54.5430 C.2   428  GLU428      0.3649
    105  OE1       -8.2650   24.7810  -53.4030 O.co2 428  GLU428     -0.2457
    106  OE2       -7.3610   23.2870  -54.7540 O.co2 428  GLU428     -0.2457
    107  N         -9.7540   27.3590  -52.9690 N.3   473  GLY473     -0.1210
    108  CA       -10.4860   26.4090  -52.1550 C.3   473  GLY473      0.1956
    109  C        -10.0070   26.4590  -50.7120 C.2   473  GLY473      0.2612
    110  O         -8.9380   26.9810  -50.4140 O.2   473  GLY473     -0.2717
    111  N        -10.7920   25.8470  -49.8280 N.am  474  TRP474     -0.1962
    112  CA       -10.6830   26.1910  -48.4140 C.3   474  TRP474      0.1771
    113  C        -11.3790   25.1340  -47.5800 C.2   474  TRP474      0.2620
    114  O        -12.4110   24.6060  -47.9850 O.2   474  TRP474     -0.2715
    115  CB       -11.3160   27.5640  -48.2050 C.3   474  TRP474      0.0590
    116  CG       -11.4460   28.1660  -46.8320 C.ar  474  TRP474      0.0006
    117  CD1      -10.6450   29.1380  -46.2860 C.ar  474  TRP474      0.0946
    118  CD2      -12.5120   27.9520  -45.8880 C.ar  474  TRP474      0.0152
    119  NE1      -11.1270   29.5100  -45.0530 N.ar  474  TRP474     -0.2442
    120  CE2      -12.2740   28.8070  -44.7900 C.ar  474  TRP474      0.0810
    121  CE3      -13.6350   27.1160  -45.8620 C.ar  474  TRP474      0.0012
    122  CZ2      -13.1250   28.8600  -43.6840 C.ar  474  TRP474      0.0191
    123  CZ3      -14.4790   27.1680  -44.7710 C.ar  474  TRP474      0.0001
    124  CH2      -14.2190   28.0390  -43.6940 C.ar  474  TRP474      0.0015
    125  N        -10.8130   24.8390  -46.4190 N.am  475  GLY475     -0.1954
    126  CA       -11.3920   23.8540  -45.5260 C.3   475  GLY475      0.1869
    127  C        -11.3360   24.3620  -44.1010 C.2   475  GLY475      0.2309
    128  O        -10.4490   25.1280  -43.7280 O.2   475  GLY475     -0.2863
@<TRIPOS>BOND
     1   101   100    2
     2   100    99    1
     3   102    99    1
     4   102   103    1
     5    99    98    1
     6   103   104    1
     7   106   104   ar
     8    56    57    1
     9    56    53    1
    10    55    54    2
    11    18    17    2
    12   104   105   ar
    13    54    53    1
    14    59    57   ar
    15    59    61   ar
    16    57    58   ar
    17    53    52    1
    18    17    16    1
    19    61    62   ar
    20    58    60   ar
    21   107   108    1
    22    89    88    2
    23    22    21   ar
    24    20    21    1
    25    20    19    1
    26    88    87    1
    27    62    60   ar
    28    62    63    1
    29    92    94   ar
    30    92    91   ar
    31    94    96   ar
    32    16    19    1
    33    16    15    1
    34   108   109    1
    35    21    23   ar
    36    90    91    1
    37    90    87    1
    38    91    93   ar
    39    96    97    1
    40    96    95   ar
    41    87    86    1
    42     1     2    1
    43     2     3    1
    44   109   110    2
    45   109   111   am
    46    86    83   am
    47    93    95   ar
    48    51    49   ar
    49   111   112    1
    50    13    12    2
    51     3     4    2
    52     3     5   am
    53    83    84    2
    54    83    82    1
    55    12    11    1
    56    46    45    2
    57     5     6    1
    58    49    50   ar
    59    49    48    1
    60    45    44    1
    61    47    48    1
    62    47    44    1
    63   112   115    1
    64   112   113    1
    65   115   116    1
    66    82    85    1
    67    82    81    1
    68   114   113    2
    69     8     7    2
    70    14    11    1
    71    44    43    1
    72    11    10    1
    73   113   125   am
    74     6     7    1
    75     6     9    1
    76   116   117   ar
    77   116   118   ar
    78    81    75   am
    79   125   126    1
    80    76    75    2
    81   117   119   ar
    82    80    78   am
    83    75    74    1
    84   118   121   ar
    85   118   120   ar
    86   121   123   ar
    87    79    78    2
    88    78    77    1
    89   126   127    1
    90    30    29    2
    91   119   120   ar
    92   120   122   ar
    93   123   124   ar
    94    74    77    1
    95    74    73    1
    96   127   128    2
    97    29    31   am
    98    29    28    1
    99    42    40    1
   100   124   122   ar
   101    40    39    2
   102    40    41    1
   103    28    25    1
   104    25    24    1
   105    25    26    1
   106    39    38    1
   107    26    27    2
   108    37    38    1
   109    37    36    1
   110    72    70   ar
   111    33    32    1
   112    33    36    1
   113    33    34    1
   114    70    71   ar
   115    70    69    1
   116    34    35    2
   117    69    68    1
   118    68    65    1
   119    66    65    1
   120    66    67    2
   121    65    64    1
