@<TRIPOS>MOLECULE
tmp/6bniA01.pdb
 143 135 0 0 0
SMALL
GASTEIGER

@<TRIPOS>ATOM
      1  N        -15.3460   13.8970  -42.3720 N.3   250  ASN250     -0.1240
      2  CA       -14.1310   13.2750  -42.8710 C.3   250  ASN250      0.1653
      3  C        -13.7520   12.1480  -41.9240 C.2   250  ASN250      0.2266
      4  O        -14.0820   12.1820  -40.7360 O.2   250  ASN250     -0.2867
      5  CB       -12.9700   14.2640  -42.9380 C.3   250  ASN250      0.1155
      6  CG       -13.1070   15.2430  -44.0720 C.2   250  ASN250      0.2627
      7  OD1      -13.7710   14.9620  -45.0710 O.2   250  ASN250     -0.2716
      8  ND2      -12.4770   16.4040  -43.9270 N.am  250  ASN250     -0.0877
      9  N        -10.4450    9.8700  -40.6460 N.3   252  ARG252     -0.1245
     10  CA        -8.9910    9.7950  -40.6790 C.3   252  ARG252      0.1563
     11  C         -8.5340    8.7790  -39.6500 C.2   252  ARG252      0.2260
     12  O         -8.8340    8.9030  -38.4570 O.2   252  ARG252     -0.2867
     13  CB        -8.3500   11.1790  -40.4750 C.3   252  ARG252      0.0307
     14  CG        -8.6990   12.1060  -41.6620 C.3   252  ARG252      0.0489
     15  CD        -8.0510   13.4720  -41.6010 C.3   252  ARG252      0.2205
     16  NE        -8.5240   14.3020  -42.7220 N.pl3 252  ARG252     -0.0865
     17  CZ        -8.0390   15.4980  -43.0350 C.cat 252  ARG252      0.5346
     18  NH1       -7.0540   16.0290  -42.3180 N.pl3 252  ARG252      0.1354
     19  NH2       -8.5470   16.1640  -44.0650 N.pl3 252  ARG252      0.1354
     20  N         -6.3310    7.6050  -37.5230 N.3   254  GLU254     -0.1245
     21  CA        -5.2000    8.1920  -36.8170 C.3   254  GLU254      0.1567
     22  C         -5.5240    8.2380  -35.3300 C.2   254  GLU254      0.2260
     23  O         -6.6390    7.9180  -34.9030 O.2   254  GLU254     -0.2867
     24  CB        -4.8730    9.5960  -37.3550 C.3   254  GLU254      0.0388
     25  CG        -6.0110   10.5850  -37.1940 C.3   254  GLU254      0.1160
     26  CD        -5.8110   11.8770  -37.9840 C.2   254  GLU254      0.3649
     27  OE1       -4.8980   11.9510  -38.8390 O.co2 254  GLU254     -0.2457
     28  OE2       -6.5880   12.8190  -37.7620 O.co2 254  GLU254     -0.2457
     29  N         -7.7430   17.1830  -29.7040 N.3   259  THR259     -0.1203
     30  CA        -8.2180   17.8900  -30.8900 C.3   259  THR259      0.1994
     31  C         -8.4190   16.9740  -32.0920 C.2   259  THR259      0.2618
     32  O         -8.6120   17.4730  -33.2010 O.2   259  THR259     -0.2717
     33  CB        -7.2590   19.0240  -31.2820 C.3   259  THR259      0.1784
     34  OG1       -5.9540   18.4890  -31.5340 O.3   259  THR259     -0.2211
     35  CG2       -7.1840   20.0870  -30.1820 C.3   259  THR259      0.0376
     36  N         -8.3830   15.6510  -31.9070 N.am  260  HIS260     -0.1961
     37  CA        -8.5510   14.7060  -33.0080 C.3   260  HIS260      0.1787
     38  C         -9.5490   13.6250  -32.6060 C.2   260  HIS260      0.2620
     39  O         -9.3530   12.9430  -31.5940 O.2   260  HIS260     -0.2715
     40  CB        -7.2230   14.0430  -33.3960 C.3   260  HIS260      0.0785
     41  CG        -6.2040   14.9750  -33.9780 C.ar  260  HIS260      0.0821
     42  ND1       -5.3660   15.7430  -33.1990 N.ar  260  HIS260     -0.2267
     43  CD2       -5.8570   15.2240  -35.2630 C.ar  260  HIS260      0.1154
     44  CE1       -4.5590   16.4400  -33.9790 C.ar  260  HIS260      0.1986
     45  NE2       -4.8350   16.1430  -35.2370 N.ar  260  HIS260     -0.2212
     46  N        -10.6030   13.4600  -33.4030 N.am  261  ASN261     -0.1972
     47  CA       -11.4950   12.3040  -33.3610 C.3   261  ASN261      0.1688
     48  C        -11.4280   11.6270  -34.7290 C.2   261  ASN261      0.2292
     49  O        -11.2160   12.3150  -35.7300 O.2   261  ASN261     -0.2864
     50  CB       -12.9320   12.7440  -33.0410 C.3   261  ASN261      0.1181
     51  CG       -13.8260   11.6040  -32.5800 C.2   261  ASN261      0.2629
     52  OD1      -13.6640   11.0810  -31.4760 O.2   261  ASN261     -0.2716
     53  ND2      -14.8080   11.2530  -33.4030 N.am  261  ASN261     -0.0877
     54  N        -14.9500   13.3860  -37.9530 N.3   264  PHE264     -0.1241
     55  CA       -15.1070   14.7530  -37.4920 C.3   264  PHE264      0.1605
     56  C        -15.7880   15.5340  -38.5940 C.2   264  PHE264      0.2264
     57  O        -15.7460   15.1520  -39.7650 O.2   264  PHE264     -0.2867
     58  CB       -13.7590   15.3870  -37.1300 C.3   264  PHE264      0.0534
     59  CG       -12.7580   15.3900  -38.2660 C.ar  264  PHE264     -0.0203
     60  CD1      -11.9510   14.2830  -38.5010 C.ar  264  PHE264     -0.0042
     61  CD2      -12.6140   16.5140  -39.0800 C.ar  264  PHE264     -0.0042
     62  CE1      -11.0260   14.2890  -39.5450 C.ar  264  PHE264     -0.0003
     63  CE2      -11.6940   16.5310  -40.1130 C.ar  264  PHE264     -0.0003
     64  CZ       -10.8980   15.4230  -40.3500 C.ar  264  PHE264     -0.0000
     65  N        -16.2420   18.6790  -41.0080 N.3   266  ALA266     -0.1245
     66  CA       -15.4330   19.6770  -41.6650 C.3   266  ALA266      0.1562
     67  C        -16.2700   20.3070  -42.7620 C.2   266  ALA266      0.2260
     68  O        -17.3110   19.7870  -43.1680 O.2   266  ALA266     -0.2867
     69  CB       -14.1470   19.0780  -42.2470 C.3   266  ALA266      0.0290
     70  N         -4.5840   23.7810  -35.5940 N.3   421  GLU421     -0.1231
     71  CA        -5.0350   24.0670  -36.9500 C.3   421  GLU421      0.1699
     72  C         -6.5560   24.1750  -37.0030 C.2   421  GLU421      0.2592
     73  O         -7.2710   23.3120  -36.4830 O.2   421  GLU421     -0.2718
     74  CB        -4.5650   22.9690  -37.9080 C.3   421  GLU421      0.0402
     75  CG        -5.1130   23.1680  -39.3400 C.3   421  GLU421      0.1161
     76  CD        -4.8740   21.9670  -40.2340 C.2   421  GLU421      0.3649
     77  OE1       -4.1140   21.0710  -39.8190 O.co2 421  GLU421     -0.2457
     78  OE2       -5.4390   21.9210  -41.3560 O.co2 421  GLU421     -0.2457
     79  N         -7.0500   25.2350  -37.6370 N.am  422  LEU422     -0.1966
     80  CA        -8.4760   25.4420  -37.8770 C.3   422  LEU422      0.1728
     81  C         -8.8520   25.3790  -39.3510 C.2   422  LEU422      0.2616
     82  O         -9.8900   24.8000  -39.7010 O.2   422  LEU422     -0.2715
     83  CB        -8.8950   26.8080  -37.3150 C.3   422  LEU422      0.0311
     84  CG       -10.3560   27.1120  -36.9850 C.3   422  LEU422      0.0022
     85  CD1      -11.0420   25.9430  -36.2850 C.3   422  LEU422      0.0001
     86  CD2      -10.4070   28.3620  -36.0940 C.3   422  LEU422      0.0001
     87  N         -8.0380   25.9730  -40.2220 N.am  423  CYS423     -0.1954
     88  CA        -8.3240   26.0560  -41.6470 C.3   423  CYS423      0.1843
     89  C         -7.0950   25.6830  -42.4550 C.2   423  CYS423      0.2625
     90  O         -5.9600   25.8320  -42.0080 O.2   423  CYS423     -0.2714
     91  CB        -8.7560   27.4700  -42.0750 C.3   423  CYS423      0.0997
     92  SG       -10.2840   28.0850  -41.3690 S.3   423  CYS423     -0.0797
     93  N         -7.3510   25.2330  -43.6800 N.am  424  ASN424     -0.1972
     94  CA        -6.3250   24.8970  -44.6540 C.3   424  ASN424      0.1688
     95  C         -6.8710   25.3170  -46.0150 C.2   424  ASN424      0.2292
     96  O         -8.0180   24.9870  -46.3370 O.2   424  ASN424     -0.2864
     97  CB        -6.0110   23.3900  -44.5920 C.3   424  ASN424      0.1181
     98  CG        -4.9020   22.9890  -45.5330 C.2   424  ASN424      0.2629
     99  OD1       -3.9630   23.7610  -45.7580 O.2   424  ASN424     -0.2716
    100  ND2       -4.9900   21.7640  -46.0880 N.am  424  ASN424     -0.0877
    101  N        -10.8130   24.8390  -46.4190 N.3   475  GLY475     -0.1210
    102  CA       -11.3920   23.8540  -45.5260 C.3   475  GLY475      0.1956
    103  C        -11.3360   24.3620  -44.1010 C.2   475  GLY475      0.2612
    104  O        -10.4490   25.1280  -43.7280 O.2   475  GLY475     -0.2717
    105  N        -12.3100   23.9360  -43.3090 N.am  476  LEU476     -0.1965
    106  CA       -12.4050   24.3450  -41.9140 C.3   476  LEU476      0.1728
    107  C        -12.7830   23.1410  -41.0670 C.2   476  LEU476      0.2616
    108  O        -13.6630   22.3690  -41.4510 O.2   476  LEU476     -0.2715
    109  CB       -13.4560   25.4320  -41.7520 C.3   476  LEU476      0.0311
    110  CG       -14.0220   25.6580  -40.3560 C.3   476  LEU476      0.0022
    111  CD1      -12.9870   26.3870  -39.5350 C.3   476  LEU476      0.0001
    112  CD2      -15.3200   26.4530  -40.4660 C.3   476  LEU476      0.0001
    113  N        -12.1180   22.9840  -39.9230 N.am  477  GLY477     -0.1955
    114  CA       -12.5160   21.9710  -38.9580 C.3   477  GLY477      0.1869
    115  C        -13.6040   22.5170  -38.0610 C.2   477  GLY477      0.2309
    116  O        -13.3310   23.3320  -37.1700 O.2   477  GLY477     -0.2863
    117  N        -15.5460   21.0340  -35.7490 N.3   479  ASP479     -0.1225
    118  CA       -15.4780   20.6800  -34.3270 C.3   479  ASP479      0.1805
    119  C        -14.4770   21.5650  -33.5900 C.2   479  ASP479      0.2597
    120  O        -14.7320   22.0020  -32.4640 O.2   479  ASP479     -0.2718
    121  CB       -15.0950   19.2040  -34.1400 C.3   479  ASP479      0.1424
    122  CG       -15.9530   18.2630  -34.9740 C.2   479  ASP479      0.3668
    123  OD1      -17.1650   18.1330  -34.7120 O.co2 479  ASP479     -0.2456
    124  OD2      -15.4080   17.6750  -35.9170 O.co2 479  ASP479     -0.2456
    125  N        -13.3270   21.8400  -34.2090 N.am  480  ARG480     -0.1979
    126  CA       -12.3350   22.6760  -33.5360 C.3   480  ARG480      0.1597
    127  C        -12.8350   24.1000  -33.3880 C.2   480  ARG480      0.2287
    128  O        -12.5680   24.7580  -32.3710 O.2   480  ARG480     -0.2864
    129  CB       -11.0150   22.6370  -34.2980 C.3   480  ARG480      0.0334
    130  CG       -10.3820   21.2430  -34.2540 C.3   480  ARG480      0.0492
    131  CD        -8.9910   21.2370  -34.8300 C.3   480  ARG480      0.2205
    132  NE        -8.4030   19.9020  -34.7610 N.pl3 480  ARG480     -0.0865
    133  CZ        -7.2620   19.5710  -35.3470 C.cat 480  ARG480      0.5346
    134  NH1       -6.5880   20.4860  -36.0420 N.pl3 480  ARG480      0.1354
    135  NH2       -6.7970   18.3300  -35.2420 N.pl3 480  ARG480      0.1354
    136  N        -12.0670   17.9110  -27.5150 N.3   491  ILE491     -0.1245
    137  CA       -13.0160   17.7290  -28.6080 C.3   491  ILE491      0.1561
    138  C        -14.1680   16.8100  -28.1970 C.2   491  ILE491      0.2260
    139  O        -15.2680   16.9120  -28.7520 O.2   491  ILE491     -0.2867
    140  CB       -12.2910   17.1980  -29.8640 C.3   491  ILE491      0.0252
    141  CG1      -13.1860   17.3090  -31.0950 C.3   491  ILE491      0.0019
    142  CG2      -11.8220   15.7370  -29.6560 C.3   491  ILE491      0.0019
    143  CD1      -12.4570   16.9990  -32.4050 C.3   491  ILE491      0.0001
@<TRIPOS>BOND
     1   101   102    1
     2    96    95    2
     3   100    98   am
     4    95    94    1
     5    99    98    2
     6    98    97    1
     7   102   103    1
     8     7     6    2
     9    94    97    1
    10    94    93    1
    11   103   104    2
    12   103   105   am
    13     6     8   am
    14     6     5    1
    15    19    17    1
    16    93    89   am
    17   105   106    1
    18    68    67    2
    19    17    16    2
    20    17    18    1
    21     5     2    1
    22     2     1    1
    23     2     3    1
    24    67    66    1
    25    16    15    1
    26    89    90    2
    27    89    88    1
    28    69    66    1
    29    91    88    1
    30    91    92    1
    31     3     4    2
    32   106   109    1
    33   106   107    1
    34   109   110    1
    35    66    65    1
    36    14    15    1
    37    14    13    1
    38    88    87    1
    39   108   107    2
    40    78    76   ar
    41   107   113   am
    42    10     9    1
    43    10    13    1
    44    10    11    1
    45   112   110    1
    46   110   111    1
    47    64    63   ar
    48    64    62   ar
    49    76    77   ar
    50    76    75    1
    51    87    81   am
    52    63    61   ar
    53   113   114    1
    54    57    56    2
    55    82    81    2
    56    11    12    2
    57    62    60   ar
    58    81    80    1
    59    75    74    1
    60    61    59   ar
    61   114   115    1
    62    27    26   ar
    63    56    55    1
    64    60    59   ar
    65    59    58    1
    66   115   116    2
    67    26    28   ar
    68    26    25    1
    69    54    55    1
    70    74    71    1
    71    80    79    1
    72    80    83    1
    73    79    72   am
    74    20    21    1
    75    55    58    1
    76    24    25    1
    77    24    21    1
    78    83    84    1
    79    72    71    1
    80    72    73    2
    81    84    85    1
    82    84    86    1
    83    71    70    1
    84    21    22    1
    85   134   133    1
    86   124   122   ar
    87   117   118    1
    88    49    48    2
    89   133   135    1
    90   133   132    2
    91    22    23    2
    92    43    45   ar
    93    43    41   ar
    94    45    44   ar
    95   122   123   ar
    96   122   121    1
    97   131   132    1
    98   131   130    1
    99    48    47    1
   100   118   121    1
   101   118   119    1
   102   129   130    1
   103   129   126    1
   104   125   119   am
   105   125   126    1
   106    44    42   ar
   107    41    40    1
   108    41    42   ar
   109   119   120    2
   110   126   127    1
   111    46    47    1
   112    46    38   am
   113    53    51   am
   114    40    37    1
   115   127   128    2
   116    47    50    1
   117    32    31    2
   118    50    51    1
   119    37    38    1
   120    37    36    1
   121    38    39    2
   122    51    52    2
   123   143   141    1
   124    31    36   am
   125    31    30    1
   126    34    33    1
   127    33    30    1
   128    33    35    1
   129   141   140    1
   130    30    29    1
   131   140   142    1
   132   140   137    1
   133   139   138    2
   134   137   138    1
   135   137   136    1
