@<TRIPOS>MOLECULE
tmp/6bnjD00.pdb
 199 192 0 0 0
SMALL
GASTEIGER

@<TRIPOS>ATOM
      1  N         -0.4110  -26.7610   48.6960 N.3    67  VAL67      -0.1231
      2  CA         0.8700  -26.2430   49.2040 C.3    67  VAL67       0.1692
      3  C          0.9850  -24.7260   48.9560 C.2    67  VAL67       0.2592
      4  O          1.2410  -24.2710   47.8240 O.2    67  VAL67      -0.2718
      5  CB         2.0700  -26.9780   48.5710 C.3    67  VAL67       0.0266
      6  CG1        3.4130  -26.5230   49.2470 C.3    67  VAL67       0.0020
      7  CG2        1.8090  -28.4950   48.6590 C.3    67  VAL67       0.0020
      8  N          0.8510  -23.9550   50.0240 N.am   68  LEU68      -0.1966
      9  CA         0.8560  -22.4890   49.9580 C.3    68  LEU68       0.1728
     10  C          2.3000  -21.9890   49.8410 C.2    68  LEU68       0.2616
     11  O          3.2060  -22.7380   50.2060 O.2    68  LEU68      -0.2715
     12  CB         0.1910  -21.9000   51.2080 C.3    68  LEU68       0.0311
     13  CG        -1.3130  -22.1530   51.3830 C.3    68  LEU68       0.0022
     14  CD1       -1.7150  -21.6860   52.8030 C.3    68  LEU68       0.0001
     15  CD2       -2.1030  -21.4350   50.3280 C.3    68  LEU68       0.0001
     16  N          2.5270  -20.7710   49.3260 N.am   69  LYS69      -0.1963
     17  CA         1.4620  -19.9140   48.7840 C.3    69  LYS69       0.1728
     18  C          1.2340  -20.1790   47.2990 C.2    69  LYS69       0.2617
     19  O          0.1130  -20.0510   46.7980 O.2    69  LYS69      -0.2715
     20  CB         1.7870  -18.4020   48.9700 C.3    69  LYS69       0.0311
     21  CG         1.9740  -17.8830   50.4010 C.3    69  LYS69       0.0038
     22  CD         2.4180  -16.4270   50.3540 C.3    69  LYS69       0.0206
     23  CE         2.6940  -15.8560   51.7210 C.3    69  LYS69       0.1093
     24  NZ         2.9580  -14.3790   51.5540 N.3    69  LYS69      -0.1314
     25  N          2.3020  -20.5550   46.5860 N.am   70  GLY70      -0.1940
     26  CA         2.2230  -20.6030   45.1270 C.3    70  GLY70       0.2014
     27  C          1.2450  -21.6360   44.5390 C.2    70  GLY70       0.2639
     28  O          0.8450  -21.5190   43.4000 O.2    70  GLY70      -0.2714
     29  N          0.8780  -22.6590   45.2980 N.am   71  GLY71      -0.1954
     30  CA        -0.1310  -23.5720   44.8120 C.3    71  GLY71       0.1869
     31  C         -1.5810  -23.0740   44.7720 C.2    71  GLY71       0.2309
     32  O         -2.4590  -23.8040   44.2670 O.2    71  GLY71      -0.2863
     33  N          1.9370  -24.8730   54.5000 N.3   101  ARG101     -0.1231
     34  CA         2.9590  -24.0280   53.9580 C.3   101  ARG101      0.1694
     35  C          4.2860  -24.5750   54.4600 C.2   101  ARG101      0.2591
     36  O          4.3610  -25.1490   55.5520 O.2   101  ARG101     -0.2718
     37  CB         2.7060  -22.5740   54.3640 C.3   101  ARG101      0.0321
     38  CG         3.7690  -21.6010   53.9590 C.3   101  ARG101      0.0489
     39  CD         3.3650  -20.1870   54.3760 C.3   101  ARG101      0.2205
     40  NE         4.3660  -19.2460   53.8950 N.pl3 101  ARG101     -0.0865
     41  CZ         4.4000  -17.9460   54.1560 C.cat 101  ARG101      0.5346
     42  NH1        3.4780  -17.3800   54.9310 N.pl3 101  ARG101      0.1354
     43  NH2        5.3900  -17.2210   53.6460 N.pl3 101  ARG101      0.1354
     44  N          5.3250  -24.4810   53.6390 N.am  102  LEU102     -0.1980
     45  CA         6.5870  -25.1030   54.0240 C.3   102  LEU102      0.1596
     46  C          7.6370  -24.0640   54.3750 C.2   102  LEU102      0.2287
     47  O          7.7650  -23.0460   53.6930 O.2   102  LEU102     -0.2864
     48  CB         7.0830  -26.0290   52.9200 C.3   102  LEU102      0.0297
     49  CG         6.0490  -27.1210   52.6080 C.3   102  LEU102      0.0022
     50  CD1        6.4270  -28.0340   51.4620 C.3   102  LEU102      0.0001
     51  CD2        5.7440  -27.9530   53.8500 C.3   102  LEU102      0.0001
     52  N          0.6770  -28.6430   43.9660 N.3   124  GLU124     -0.1231
     53  CA         1.8770  -27.8160   43.9630 C.3   124  GLU124      0.1699
     54  C          1.9330  -26.9150   42.7110 C.2   124  GLU124      0.2592
     55  O          1.3400  -27.2410   41.6800 O.2   124  GLU124     -0.2718
     56  CB         3.1140  -28.7500   44.0510 C.3   124  GLU124      0.0402
     57  CG         4.4930  -28.1540   44.2500 C.3   124  GLU124      0.1161
     58  CD         4.6460  -27.3450   45.5170 C.2   124  GLU124      0.3649
     59  OE1        4.0600  -26.2580   45.5700 O.co2 124  GLU124     -0.2457
     60  OE2        5.3770  -27.7430   46.4540 O.co2 124  GLU124     -0.2457
     61  N          2.6100  -25.7700   42.8110 N.am  125  ASP125     -0.1960
     62  CA         2.7960  -24.8900   41.6520 C.3   125  ASP125      0.1840
     63  C          3.9250  -25.4460   40.7710 C.2   125  ASP125      0.2622
     64  O          3.7890  -25.4940   39.5560 O.2   125  ASP125     -0.2715
     65  CB         3.1050  -23.4300   42.0670 C.3   125  ASP125      0.1450
     66  CG         4.2260  -23.3170   43.1130 C.2   125  ASP125      0.3671
     67  OD1        4.5910  -24.3410   43.6890 O.co2 125  ASP125     -0.2456
     68  OD2        4.7420  -22.1870   43.3690 O.co2 125  ASP125     -0.2456
     69  N          5.0360  -25.8600   41.3640 N.am  126  ILE126     -0.1963
     70  CA         6.1570  -26.2890   40.5420 C.3   126  ILE126      0.1727
     71  C          7.0610  -27.3130   41.2410 C.2   126  ILE126      0.2616
     72  O          7.2540  -27.2630   42.4510 O.2   126  ILE126     -0.2715
     73  CB         6.9890  -25.0040   40.0560 C.3   126  ILE126      0.0290
     74  CG1        8.1880  -25.3640   39.1410 C.3   126  ILE126      0.0022
     75  CG2        7.4370  -24.1010   41.1930 C.3   126  ILE126      0.0023
     76  CD1        8.6290  -24.1420   38.3100 C.3   126  ILE126      0.0001
     77  N          7.5500  -28.2820   40.4720 N.am  127  ILE127     -0.1963
     78  CA         8.6270  -29.1710   40.8690 C.3   127  ILE127      0.1727
     79  C          9.9040  -28.7280   40.1320 C.2   127  ILE127      0.2616
     80  O          9.8950  -28.6290   38.9000 O.2   127  ILE127     -0.2715
     81  CB         8.3200  -30.6500   40.4970 C.3   127  ILE127      0.0290
     82  CG1        6.9000  -31.0910   40.9260 C.3   127  ILE127      0.0022
     83  CG2        9.3970  -31.5640   41.0120 C.3   127  ILE127      0.0023
     84  CD1        6.6750  -31.1460   42.4000 C.3   127  ILE127      0.0001
     85  N         10.9840  -28.4630   40.8570 N.am  128  ASP128     -0.1957
     86  CA        12.2460  -28.1060   40.2410 C.3   128  ASP128      0.1840
     87  C         13.2080  -29.2260   40.5820 C.2   128  ASP128      0.2623
     88  O         13.2940  -30.1900   39.8230 O.2   128  ASP128     -0.2715
     89  CB        12.7080  -26.7510   40.7340 C.3   128  ASP128      0.1450
     90  CG        14.0230  -26.3140   40.1370 C.2   128  ASP128      0.3671
     91  OD1       14.4790  -26.9060   39.1520 O.co2 128  ASP128     -0.2456
     92  OD2       14.6200  -25.3700   40.6710 O.co2 128  ASP128     -0.2456
     93  N         13.8720  -29.1640   41.7330 N.am  129  THR129     -0.1937
     94  CA        14.7280  -30.2810   42.1410 C.3   129  THR129      0.2028
     95  C         13.9340  -31.4960   42.5990 C.2   129  THR129      0.2643
     96  O         14.4630  -32.5880   42.6060 O.2   129  THR129     -0.2714
     97  CB        15.6830  -29.9160   43.2980 C.3   129  THR129      0.1808
     98  OG1       14.9270  -29.6950   44.4980 O.3   129  THR129     -0.2208
     99  CG2       16.5150  -28.6750   42.9710 C.3   129  THR129      0.0379
    100  N         12.6960  -31.2770   43.0340 N.am  130  GLY130     -0.1939
    101  CA        11.8120  -32.3110   43.5670 C.3   130  GLY130      0.2014
    102  C         12.0810  -32.6750   45.0170 C.2   130  GLY130      0.2639
    103  O         11.4240  -33.5640   45.5770 O.2   130  GLY130     -0.2714
    104  N         13.0260  -31.9750   45.6450 N.am  131  LYS131     -0.1963
    105  CA        13.4010  -32.3130   47.0120 C.3   131  LYS131      0.1728
    106  C         12.2540  -32.0350   47.9710 C.2   131  LYS131      0.2617
    107  O         12.0280  -32.7770   48.9270 O.2   131  LYS131     -0.2715
    108  CB        14.6650  -31.5580   47.4350 C.3   131  LYS131      0.0311
    109  CG        15.8510  -31.8270   46.4990 C.3   131  LYS131      0.0038
    110  CD        17.1860  -31.3730   47.0970 C.3   131  LYS131      0.0206
    111  CE        18.3650  -31.9110   46.2670 C.3   131  LYS131      0.1093
    112  NZ        18.1260  -33.3130   45.7600 N.3   131  LYS131     -0.1314
    113  N         11.5130  -30.9740   47.6950 N.am  132  THR132     -0.1937
    114  CA        10.3930  -30.5860   48.5300 C.3   132  THR132      0.2028
    115  C          9.2920  -31.6410   48.5350 C.2   132  THR132      0.2642
    116  O          8.7620  -32.0140   49.5990 O.2   132  THR132     -0.2714
    117  CB         9.8080  -29.2470   48.0560 C.3   132  THR132      0.1808
    118  OG1       10.8450  -28.2390   48.0620 O.3   132  THR132     -0.2208
    119  CG2        8.6670  -28.8640   48.9580 C.3   132  THR132      0.0379
    120  N          8.9510  -32.1350   47.3480 N.am  133  MET133     -0.1976
    121  CA         7.9100  -33.1410   47.2350 C.3   133  MET133      0.1605
    122  C          8.3230  -34.4530   47.9010 C.2   133  MET133      0.2287
    123  O          7.5170  -35.0930   48.5820 O.2   133  MET133     -0.2864
    124  CB         7.5500  -33.3910   45.7690 C.3   133  MET133      0.0413
    125  CG         6.1600  -34.0020   45.6580 C.3   133  MET133      0.0598
    126  SD         4.9680  -33.1920   46.7940 S.3   133  MET133     -0.1393
    127  CE         4.9900  -31.5150   46.2170 C.3   133  MET133      0.0692
    128  N          9.9960  -28.5700   35.9790 N.3   156  LYS156     -0.1245
    129  CA        11.1420  -28.0770   35.2520 C.3   156  LYS156      0.1561
    130  C         12.0740  -29.1690   34.7670 C.2   156  LYS156      0.2260
    131  O         12.3350  -30.1390   35.4960 O.2   156  LYS156     -0.2867
    132  CB        11.9630  -27.1300   36.1070 C.3   156  LYS156      0.0271
    133  CG        11.4730  -25.7120   36.1350 C.3   156  LYS156      0.0035
    134  CD        12.6440  -24.7630   36.5220 C.3   156  LYS156      0.0206
    135  CE        12.1090  -23.3960   36.8160 C.3   156  LYS156      0.1093
    136  NZ        13.0670  -22.5550   37.5700 N.3   156  LYS156     -0.1314
    137  N         13.9020  -22.1070   33.2670 N.3   176  LYS176     -0.1231
    138  CA        13.8330  -20.6400   33.3490 C.3   176  LYS176      0.1693
    139  C         13.0080  -20.2340   34.5470 C.2   176  LYS176      0.2592
    140  O         12.1200  -20.9620   34.9620 O.2   176  LYS176     -0.2718
    141  CB        13.1790  -19.9870   32.1210 C.3   176  LYS176      0.0285
    142  CG        13.4360  -20.6440   30.8210 C.3   176  LYS176      0.0035
    143  CD        12.3570  -20.1760   29.8390 C.3   176  LYS176      0.0206
    144  CE        12.7850  -18.8900   29.1860 C.3   176  LYS176      0.1093
    145  NZ        13.9820  -19.1590   28.3430 N.3   176  LYS176     -0.1314
    146  N         13.2510  -19.0470   35.0750 N.am  177  PHE177     -0.1962
    147  CA        12.4890  -18.5960   36.2160 C.3   177  PHE177      0.1771
    148  C         11.2180  -17.9380   35.7140 C.2   177  PHE177      0.2619
    149  O         11.2700  -16.9930   34.9310 O.2   177  PHE177     -0.2715
    150  CB        13.3040  -17.6350   37.0760 C.3   177  PHE177      0.0574
    151  CG        12.6770  -17.3690   38.4060 C.ar  177  PHE177     -0.0200
    152  CD1       11.7840  -16.3290   38.5740 C.ar  177  PHE177     -0.0042
    153  CD2       12.9620  -18.1920   39.4980 C.ar  177  PHE177     -0.0042
    154  CE1       11.1980  -16.1140   39.7970 C.ar  177  PHE177     -0.0003
    155  CE2       12.3880  -17.9530   40.7280 C.ar  177  PHE177     -0.0003
    156  CZ        11.5090  -16.9250   40.8770 C.ar  177  PHE177     -0.0000
    157  N         10.0730  -18.4620   36.1220 N.am  178  VAL178     -0.1977
    158  CA         8.8010  -17.9520   35.6500 C.3   178  VAL178      0.1596
    159  C          8.0120  -17.4070   36.8370 C.2   178  VAL178      0.2287
    160  O          8.2460  -17.8160   37.9680 O.2   178  VAL178     -0.2864
    161  CB         8.0130  -19.0490   34.9420 C.3   178  VAL178      0.0276
    162  CG1        8.8140  -19.5650   33.7390 C.3   178  VAL178      0.0022
    163  CG2        7.6990  -20.2040   35.9400 C.3   178  VAL178      0.0022
    164  N          2.7110  -17.8980   41.1950 N.3   183  LEU183     -0.1231
    165  CA         4.1750  -18.0390   41.2970 C.3   183  LEU183      0.1693
    166  C          4.8080  -16.6510   41.4440 C.2   183  LEU183      0.2592
    167  O          4.5280  -15.7540   40.6350 O.2   183  LEU183     -0.2718
    168  CB         4.7690  -18.7480   40.0830 C.3   183  LEU183      0.0284
    169  CG         4.3840  -20.2310   40.1380 C.3   183  LEU183      0.0019
    170  CD1        3.2020  -20.5130   39.2930 C.3   183  LEU183      0.0001
    171  CD2        5.5520  -21.0980   39.7240 C.3   183  LEU183      0.0001
    172  N          5.6370  -16.4760   42.4570 N.am  184  ASP184     -0.1974
    173  CA         6.1450  -15.1330   42.7650 C.3   184  ASP184      0.1709
    174  C          7.6190  -14.9200   42.5630 C.2   184  ASP184      0.2293
    175  O          8.4410  -15.8530   42.5170 O.2   184  ASP184     -0.2864
    176  CB         5.8910  -14.7660   44.2380 C.3   184  ASP184      0.1436
    177  CG         6.8030  -15.5330   45.1630 C.2   184  ASP184      0.3671
    178  OD1        6.8240  -16.7700   44.9810 O.co2 184  ASP184     -0.2456
    179  OD2        7.4910  -14.9150   46.0380 O.co2 184  ASP184     -0.2456
    180  N          7.5140  -12.2220   46.4220 N.3   187  GLU187     -0.1245
    181  CA         6.1100  -12.0300   46.7780 C.3   187  GLU187      0.1567
    182  C          5.3490  -11.2570   45.6860 C.2   187  GLU187      0.2260
    183  O          4.1240  -11.2110   45.7210 O.2   187  GLU187     -0.2867
    184  CB         5.9670  -11.3490   48.1600 C.3   187  GLU187      0.0388
    185  CG         6.4690  -12.1830   49.3360 C.3   187  GLU187      0.1160
    186  CD         5.7990  -13.5720   49.4410 C.2   187  GLU187      0.3649
    187  OE1        4.6440  -13.7590   48.9780 O.co2 187  GLU187     -0.2457
    188  OE2        6.4580  -14.4840   49.9820 O.co2 187  GLU187     -0.2457
    189  N          2.2680  -12.5290   42.0250 N.3   190  ARG190     -0.1245
    190  CA         1.2210  -13.5410   42.2580 C.3   190  ARG190      0.1563
    191  C         -0.1150  -13.0370   41.6530 C.2   190  ARG190      0.2260
    192  O         -0.8840  -13.8550   41.1680 O.2   190  ARG190     -0.2867
    193  CB         1.0230  -13.8850   43.7260 C.3   190  ARG190      0.0307
    194  CG         2.2760  -14.3590   44.4190 C.3   190  ARG190      0.0489
    195  CD         1.9410  -15.1090   45.6800 C.3   190  ARG190      0.2205
    196  NE         3.0850  -15.2420   46.5720 N.pl3 190  ARG190     -0.0865
    197  CZ         3.8760  -16.3120   46.6220 C.cat 190  ARG190      0.5346
    198  NH1        3.6580  -17.3210   45.7910 N.pl3 190  ARG190      0.1354
    199  NH2        4.8840  -16.3720   47.4920 N.pl3 190  ARG190      0.1354
@<TRIPOS>BOND
     1   145   144    1
     2   144   143    1
     3   143   142    1
     4   142   141    1
     5   141   138    1
     6   137   138    1
     7   138   139    1
     8   162   161    1
     9   139   140    2
    10   139   146   am
    11   130   129    1
    12   130   131    2
    13   149   148    2
    14   161   158    1
    15   161   163    1
    16   146   147    1
    17   129   128    1
    18   129   132    1
    19   158   157    1
    20   158   159    1
    21   148   157   am
    22   148   147    1
    23   132   133    1
    24   133   134    1
    25   147   150    1
    26   134   135    1
    27   135   136    1
    28   159   160    2
    29   150   151    1
    30    76    74    1
    31   151   152   ar
    32   151   153   ar
    33   152   154   ar
    34    80    79    2
    35    74    73    1
    36    91    90   ar
    37   170   169    1
    38   153   155   ar
    39    64    63    2
    40   171   169    1
    41   154   156   ar
    42    88    87    2
    43    73    70    1
    44    73    75    1
    45   168   169    1
    46   168   165    1
    47    79    85   am
    48    79    78    1
    49    90    92   ar
    50    90    89    1
    51    86    87    1
    52    86    89    1
    53    86    85    1
    54    77    78    1
    55    77    71   am
    56    81    78    1
    57    81    82    1
    58    81    83    1
    59    70    71    1
    60    70    69    1
    61    87    93   am
    62   167   166    2
    63   155   156   ar
    64    63    69   am
    65    63    62    1
    66    82    84    1
    67   192   191    2
    68   164   165    1
    69    71    72    2
    70   165   166    1
    71   166   172   am
    72    62    65    1
    73    62    61    1
    74   191   190    1
    75    55    54    2
    76    93    94    1
    77   189   190    1
    78    65    66    1
    79    94    95    1
    80    94    97    1
    81   190   193    1
    82   172   173    1
    83   175   174    2
    84   174   173    1
    85    95    96    2
    86    95   100   am
    87    54    61   am
    88    54    53    1
    89   173   176    1
    90    99    97    1
    91   100   101    1
    92    66    68   ar
    93    66    67   ar
    94    97    98    1
    95    28    27    2
    96   101   102    1
    97   193   194    1
    98    53    52    1
    99    53    56    1
   100    56    57    1
   101   176   177    1
   102    57    58    1
   103    32    31    2
   104   194   195    1
   105    27    26    1
   106    27    29   am
   107    31    30    1
   108    30    29    1
   109   178   177   ar
   110   102   103    2
   111   102   104   am
   112    26    25    1
   113   177   179   ar
   114    58    59   ar
   115    58    60   ar
   116   104   105    1
   117   125   124    1
   118   125   126    1
   119   195   196    1
   120   182   183    2
   121   182   181    1
   122   112   111    1
   123   124   121    1
   124   198   197    1
   125   127   126    1
   126   111   110    1
   127   180   181    1
   128   109   110    1
   129   109   108    1
   130   196   197    2
   131    25    18   am
   132   197   199    1
   133   181   184    1
   134    19    18    2
   135   105   108    1
   136   105   106    1
   137   121   120    1
   138   121   122    1
   139    18    17    1
   140   120   115   am
   141   113   106   am
   142   113   114    1
   143     4     3    2
   144   122   123    2
   145   106   107    2
   146   117   118    1
   147   117   114    1
   148   117   119    1
   149   184   185    1
   150   114   115    1
   151   115   116    2
   152     5     7    1
   153     5     2    1
   154     5     6    1
   155     1     2    1
   156    17    20    1
   157    17    16    1
   158     3     2    1
   159     3     8   am
   160    20    21    1
   161   187   186   ar
   162    16    10   am
   163   185   186    1
   164   186   188   ar
   165    10     9    1
   166    10    11    2
   167     9     8    1
   168     9    12    1
   169    15    13    1
   170    22    21    1
   171    22    23    1
   172    12    13    1
   173    13    14    1
   174    50    49    1
   175    24    23    1
   176    49    48    1
   177    49    51    1
   178    48    45    1
   179    44    45    1
   180    44    35   am
   181    43    41    1
   182    47    46    2
   183    40    41    2
   184    40    39    1
   185    34    37    1
   186    34    35    1
   187    34    33    1
   188    38    37    1
   189    38    39    1
   190    45    46    1
   191    41    42    1
   192    35    36    2
