@<TRIPOS>MOLECULE
tmp/6bnrC01.pdb
 87 82 0 0 0
SMALL
GASTEIGER

@<TRIPOS>ATOM
      1  N          7.7880   -9.4460  -15.8590 N.3     1  VAL1       -0.1231
      2  CA         6.6210  -10.3020  -15.9270 C.3     1  VAL1        0.1692
      3  C          5.4020   -9.5740  -15.3720 C.2     1  VAL1        0.2591
      4  O          5.4080   -9.1210  -14.2330 O.2     1  VAL1       -0.2718
      5  CB         6.7730  -11.6210  -15.1240 C.3     1  VAL1        0.0266
      6  CG1        5.6940  -12.6070  -15.5710 C.3     1  VAL1        0.0020
      7  CG2        8.1720  -12.2140  -15.3100 C.3     1  VAL1        0.0020
      8  N          4.3570   -9.4750  -16.1840 N.am    2  LEU2       -0.1980
      9  CA         3.1340   -8.7920  -15.7770 C.3     2  LEU2        0.1596
     10  C          2.0900   -9.7400  -15.1860 C.2     2  LEU2        0.2287
     11  O          1.9120  -10.8600  -15.6600 O.2     2  LEU2       -0.2864
     12  CB         2.5320   -8.0620  -16.9790 C.3     2  LEU2        0.0297
     13  CG         3.4380   -7.0820  -17.7260 C.3     2  LEU2        0.0022
     14  CD1        2.6630   -6.4650  -18.8740 C.3     2  LEU2        0.0001
     15  CD2        3.9220   -6.0050  -16.7820 C.3     2  LEU2        0.0001
     16  N          0.1390   -8.1420  -25.4620 N.3    73  VAL73      -0.1231
     17  CA         0.9050   -8.1520  -24.2230 C.3    73  VAL73       0.1692
     18  C          1.3450   -9.5620  -23.8010 C.2    73  VAL73       0.2592
     19  O          2.2640   -9.7200  -23.0050 O.2    73  VAL73      -0.2718
     20  CB         0.1110   -7.4510  -23.0790 C.3    73  VAL73       0.0266
     21  CG1       -1.0520   -8.3200  -22.6150 C.3    73  VAL73       0.0020
     22  CG2        1.0460   -7.0990  -21.9460 C.3    73  VAL73       0.0020
     23  N          0.7090  -10.5860  -24.3560 N.am   74  ASP74      -0.1974
     24  CA         1.0730  -11.9690  -24.0330 C.3    74  ASP74       0.1709
     25  C          1.9860  -12.5830  -25.0950 C.2    74  ASP74       0.2293
     26  O          2.4880  -13.6960  -24.9280 O.2    74  ASP74      -0.2864
     27  CB        -0.1860  -12.8320  -23.9150 C.3    74  ASP74       0.1436
     28  CG        -0.8390  -12.7310  -22.5520 C.2    74  ASP74       0.3671
     29  OD1       -2.0180  -13.1210  -22.4340 O.co2  74  ASP74      -0.2456
     30  OD2       -0.1700  -12.2780  -21.6000 O.co2  74  ASP74      -0.2456
     31  N          4.4480  -10.4240  -26.9230 N.3    76  MET76      -0.1231
     32  CA         5.2530   -9.2640  -27.2960 C.3    76  MET76       0.1687
     33  C          6.5170   -9.5270  -28.1050 C.2    76  MET76       0.2434
     34  O          6.7950   -8.8060  -29.0590 O.2    76  MET76      -0.2733
     35  CB         5.6110   -8.4540  -26.0540 C.3    76  MET76       0.0400
     36  CG         4.4040   -7.8830  -25.3380 C.3    76  MET76       0.0596
     37  SD         4.8050   -6.3560  -24.4630 S.3    76  MET76      -0.1393
     38  CE         5.6480   -6.9670  -23.0610 C.3    76  MET76       0.0692
     39  N          7.3100  -10.5500  -27.7340 N.am   77  PRO77      -0.2729
     40  CA         8.5330  -10.8220  -28.4980 C.3    77  PRO77       0.1401
     41  C          8.2500  -10.9870  -29.9880 C.2    77  PRO77       0.2269
     42  O          8.9550  -10.4340  -30.8310 O.2    77  PRO77      -0.2865
     43  CB         9.0580  -12.1010  -27.8540 C.3    77  PRO77       0.0296
     44  CG         8.6500  -11.9300  -26.4350 C.3    77  PRO77       0.0237
     45  CD         7.2250  -11.4330  -26.5580 C.3    77  PRO77       0.0939
     46  N          4.4280    1.1920  -15.5530 N.3   126  ASP126     -0.1225
     47  CA         5.8820    1.1610  -15.4460 C.3   126  ASP126      0.1805
     48  C          6.4360   -0.2260  -15.8030 C.2   126  ASP126      0.2597
     49  O          7.3870   -0.3490  -16.5830 O.2   126  ASP126     -0.2718
     50  CB         6.3110    1.5340  -14.0310 C.3   126  ASP126      0.1424
     51  CG         7.8210    1.5890  -13.8780 C.2   126  ASP126      0.3668
     52  OD1        8.4460    2.5070  -14.4380 O.co2 126  ASP126     -0.2456
     53  OD2        8.3860    0.7090  -13.2020 O.co2 126  ASP126     -0.2456
     54  N          5.8430   -1.2690  -15.2330 N.am  127  LYS127     -0.1979
     55  CA         6.2920   -2.6300  -15.5150 C.3   127  LYS127      0.1596
     56  C          6.1300   -2.9590  -16.9990 C.2   127  LYS127      0.2287
     57  O          7.0120   -3.5630  -17.6120 O.2   127  LYS127     -0.2864
     58  CB         5.5020   -3.6450  -14.6810 C.3   127  LYS127      0.0298
     59  CG         5.9340   -3.7560  -13.2440 C.3   127  LYS127      0.0038
     60  CD         5.0920   -4.7900  -12.4970 C.3   127  LYS127      0.0206
     61  CE         5.2940   -6.2070  -13.0430 C.3   127  LYS127      0.1093
     62  NZ         4.5170   -7.2060  -12.2600 N.3   127  LYS127     -0.1314
     63  N          8.7510   -1.2130  -18.9760 N.3   130  ALA130     -0.1231
     64  CA        10.0400   -1.8540  -18.7340 C.3   130  ALA130      0.1694
     65  C         10.1060   -3.1380  -19.5530 C.2   130  ALA130      0.2592
     66  O         11.1480   -3.4940  -20.1080 O.2   130  ALA130     -0.2718
     67  CB        10.2060   -2.1760  -17.2590 C.3   130  ALA130      0.0304
     68  N          8.9750   -3.8300  -19.6140 N.am  131  SER131     -0.1952
     69  CA         8.8710   -5.0770  -20.3600 C.3   131  SER131      0.1924
     70  C          9.0630   -4.8210  -21.8570 C.2   131  SER131      0.2314
     71  O          9.7730   -5.5610  -22.5310 O.2   131  SER131     -0.2863
     72  CB         7.5060   -5.7180  -20.0960 C.3   131  SER131      0.2116
     73  OG         7.3760   -6.9350  -20.8050 O.3   131  SER131     -0.2180
     74  N         12.7500   -4.1200  -22.5590 N.3   134  THR134     -0.1203
     75  CA        13.5950   -5.3080  -22.5540 C.3   134  THR134      0.1994
     76  C         13.5290   -6.0110  -23.9060 C.2   134  THR134      0.2617
     77  O         14.5450   -6.4380  -24.4530 O.2   134  THR134     -0.2717
     78  CB        13.1600   -6.2740  -21.4470 C.3   134  THR134      0.1784
     79  OG1       13.4040   -5.6680  -20.1710 O.3   134  THR134     -0.2211
     80  CG2       13.9380   -7.5800  -21.5410 C.3   134  THR134      0.0376
     81  N         12.3270   -6.1170  -24.4490 N.am  135  VAL135     -0.1979
     82  CA        12.1380   -6.7480  -25.7430 C.3   135  VAL135      0.1595
     83  C         12.8680   -5.9840  -26.8580 C.2   135  VAL135      0.2287
     84  O         13.5610   -6.5900  -27.6760 O.2   135  VAL135     -0.2864
     85  CB        10.6240   -6.8550  -26.0890 C.3   135  VAL135      0.0276
     86  CG1       10.4430   -7.3080  -27.5200 C.3   135  VAL135      0.0022
     87  CG2        9.9400   -7.8310  -25.1380 C.3   135  VAL135      0.0022
@<TRIPOS>BOND
     1    42    41    2
     2    41    40    1
     3    34    33    2
     4    40    43    1
     5    40    39    1
     6    33    39   am
     7    33    32    1
     8    43    44    1
     9    39    45    1
    10    84    83    2
    11    86    85    1
    12    32    31    1
    13    32    35    1
    14    83    82    1
    15    45    44    1
    16    85    82    1
    17    85    87    1
    18    35    36    1
    19    82    81    1
    20    16    17    1
    21    36    37    1
    22    25    26    2
    23    25    24    1
    24    37    38    1
    25    77    76    2
    26    81    76   am
    27    23    24    1
    28    23    18   am
    29    17    18    1
    30    17    20    1
    31    24    27    1
    32    27    28    1
    33    76    75    1
    34    18    19    2
    35    20    21    1
    36    20    22    1
    37    74    75    1
    38    75    78    1
    39    28    29   ar
    40    28    30   ar
    41    71    70    2
    42    70    69    1
    43    80    78    1
    44    78    79    1
    45    73    72    1
    46    69    72    1
    47    69    68    1
    48    66    65    2
    49    68    65   am
    50    65    64    1
    51    63    64    1
    52    14    13    1
    53    64    67    1
    54    13    12    1
    55    13    15    1
    56    57    56    2
    57    56    55    1
    58    12     9    1
    59    49    48    2
    60     8     9    1
    61     8     3   am
    62     2     1    1
    63     2     3    1
    64     2     5    1
    65    48    47    1
    66    48    54   am
    67     9    10    1
    68    11    10    2
    69     6     5    1
    70    46    47    1
    71    55    54    1
    72    55    58    1
    73    47    50    1
    74     3     4    2
    75     7     5    1
    76    58    59    1
    77    52    51   ar
    78    50    51    1
    79    51    53   ar
    80    59    60    1
    81    61    60    1
    82    61    62    1
