@<TRIPOS>MOLECULE
tmp/6bnsB00.pdb
 247 238 0 0 0
SMALL
GASTEIGER

@<TRIPOS>ATOM
      1  N        -11.7130  -32.0260  -30.5020 N.3    47  LEU47      -0.1231
      2  CA       -10.2730  -32.3060  -30.6200 C.3    47  LEU47       0.1693
      3  C         -9.6400  -33.2400  -29.5780 C.2    47  LEU47       0.2592
      4  O         -8.7810  -34.0370  -29.9540 O.2    47  LEU47      -0.2718
      5  CB        -9.4700  -30.9980  -30.7230 C.3    47  LEU47       0.0284
      6  CG        -9.6270  -30.2110  -32.0300 C.3    47  LEU47       0.0019
      7  CD1       -9.3980  -28.7400  -31.8090 C.3    47  LEU47       0.0001
      8  CD2       -8.6830  -30.7200  -33.1050 C.3    47  LEU47       0.0001
      9  N        -10.0260  -33.1310  -28.2900 N.am   48  CYS48      -0.1970
     10  CA        -9.4710  -33.9240  -27.1800 C.3    48  CYS48       0.1712
     11  C         -9.6510  -35.4530  -27.2770 C.2    48  CYS48       0.2296
     12  O         -8.7440  -36.1960  -26.8940 O.2    48  CYS48      -0.2864
     13  CB        -9.9620  -33.3930  -25.8360 C.3    48  CYS48       0.0983
     14  SG       -11.6680  -33.8630  -25.4320 S.3    48  CYS48      -0.0798
     15  N         -9.8340  -37.3910  -29.9270 N.3    50  LEU50      -0.1231
     16  CA        -9.0360  -37.9460  -31.0190 C.3    50  LEU50       0.1693
     17  C         -7.5570  -37.5550  -30.8410 C.2    50  LEU50       0.2592
     18  O         -7.0210  -36.8020  -31.6530 O.2    50  LEU50      -0.2718
     19  CB        -9.5960  -37.4420  -32.3690 C.3    50  LEU50       0.0284
     20  CG        -8.9670  -37.9750  -33.6480 C.3    50  LEU50       0.0019
     21  CD1       -9.3420  -39.4340  -33.8740 C.3    50  LEU50       0.0001
     22  CD2       -9.3910  -37.1300  -34.8470 C.3    50  LEU50       0.0001
     23  N         -6.9040  -38.0600  -29.7710 N.am   51  LYS51      -0.1966
     24  CA        -5.5040  -37.7560  -29.4500 C.3    51  LYS51       0.1728
     25  C         -4.4890  -38.7890  -30.0050 C.2    51  LYS51       0.2616
     26  O         -4.5240  -39.9630  -29.6230 O.2    51  LYS51      -0.2715
     27  CB        -5.3330  -37.5600  -27.9330 C.3    51  LYS51       0.0311
     28  CG        -4.0350  -36.8570  -27.5680 C.3    51  LYS51       0.0038
     29  CD        -3.9200  -36.7340  -26.0540 C.3    51  LYS51       0.0206
     30  CE        -2.4790  -36.5260  -25.6060 C.3    51  LYS51       0.1093
     31  NZ        -2.4340  -36.3440  -24.1180 N.3    51  LYS51      -0.1314
     32  N         -3.5610  -38.3210  -30.8820 N.am   52  VAL52      -0.1977
     33  CA        -2.4990  -39.1360  -31.5080 C.3    52  VAL52       0.1596
     34  C         -1.1100  -38.5400  -31.3570 C.2    52  VAL52       0.2287
     35  O         -0.9560  -37.3090  -31.3640 O.2    52  VAL52      -0.2864
     36  CB        -2.7290  -39.4820  -33.0210 C.3    52  VAL52       0.0276
     37  CG1       -3.7880  -40.5560  -33.2140 C.3    52  VAL52       0.0022
     38  CG2       -3.0100  -38.2440  -33.8730 C.3    52  VAL52       0.0022
     39  N          2.0100  -35.0910  -28.3800 N.3    68  PRO68      -0.2103
     40  CA         1.2520  -33.8230  -28.3400 C.3    68  PRO68       0.1489
     41  C          1.1670  -33.1510  -26.9540 C.2    68  PRO68       0.2418
     42  O          1.3190  -33.8440  -25.9360 O.2    68  PRO68      -0.2734
     43  CB        -0.1310  -34.2270  -28.8770 C.3    68  PRO68       0.0282
     44  CG        -0.2790  -35.6400  -28.4820 C.3    68  PRO68       0.0208
     45  CD         1.1070  -36.2560  -28.5080 C.3    68  PRO68       0.0893
     46  N          0.8880  -31.8170  -26.8860 N.am   69  PRO69      -0.2718
     47  CA         0.7290  -31.1820  -25.5680 C.3    69  PRO69       0.1535
     48  C         -0.6610  -31.4560  -24.9710 C.2    69  PRO69       0.2598
     49  O         -1.6240  -31.6880  -25.7240 O.2    69  PRO69      -0.2715
     50  CB         0.9100  -29.6900  -25.8750 C.3    69  PRO69       0.0310
     51  CG         0.4690  -29.5230  -27.2910 C.3    69  PRO69       0.0237
     52  CD         0.6540  -30.8480  -27.9870 C.3    69  PRO69       0.0939
     53  N         -0.7760  -31.3930  -23.6200 N.am   70  ALA70      -0.1964
     54  CA        -2.0550  -31.5540  -22.8980 C.3    70  ALA70       0.1728
     55  C         -2.9140  -30.2540  -23.0030 C.2    70  ALA70       0.2616
     56  O         -2.4000  -29.2230  -23.4560 O.2    70  ALA70      -0.2715
     57  CB        -1.7910  -31.9150  -21.4420 C.3    70  ALA70       0.0334
     58  N         -4.2110  -30.3070  -22.5950 N.am   71  ASP71      -0.1971
     59  CA        -5.1760  -29.1870  -22.6780 C.3    71  ASP71       0.1709
     60  C         -4.8800  -27.9390  -21.7880 C.2    71  ASP71       0.2293
     61  O         -3.7550  -27.7500  -21.3220 O.2    71  ASP71      -0.2864
     62  CB        -6.6350  -29.7120  -22.5160 C.3    71  ASP71       0.1436
     63  CG        -7.7740  -28.8290  -23.0470 C.2    71  ASP71       0.3671
     64  OD1       -7.4830  -27.8290  -23.7630 O.co2  71  ASP71      -0.2456
     65  OD2       -8.9570  -29.1250  -22.7300 O.co2  71  ASP71      -0.2456
     66  N         -2.8060  -24.5090  -28.1890 N.3    76  GLU76      -0.1231
     67  CA        -1.9110  -25.6720  -28.3230 C.3    76  GLU76       0.1699
     68  C         -2.6360  -26.9420  -28.8120 C.2    76  GLU76       0.2592
     69  O         -1.9850  -27.8780  -29.2930 O.2    76  GLU76      -0.2718
     70  CB        -1.0990  -25.9330  -27.0340 C.3    76  GLU76       0.0402
     71  CG        -1.9070  -26.3730  -25.8150 C.3    76  GLU76       0.1161
     72  CD        -2.7100  -25.2820  -25.1320 C.2    76  GLU76       0.3649
     73  OE1       -2.3100  -24.1000  -25.2330 O.co2  76  GLU76      -0.2457
     74  OE2       -3.7440  -25.6080  -24.5060 O.co2  76  GLU76      -0.2457
     75  N         -3.9820  -26.9570  -28.6920 N.am   77  ILE77      -0.1980
     76  CA        -4.8600  -28.0360  -29.1490 C.3    77  ILE77       0.1595
     77  C         -4.9360  -28.1040  -30.7030 C.2    77  ILE77       0.2287
     78  O         -5.3650  -29.1270  -31.2470 O.2    77  ILE77      -0.2864
     79  CB        -6.2620  -27.9230  -28.4970 C.3    77  ILE77       0.0276
     80  CG1       -6.9670  -26.5850  -28.8660 C.3    77  ILE77       0.0022
     81  CG2       -6.1760  -28.1470  -26.9840 C.3    77  ILE77       0.0022
     82  CD1       -8.5060  -26.5810  -28.7300 C.3    77  ILE77       0.0001
     83  N         -2.2130  -27.8270  -32.7490 N.3    79  SER79      -0.1202
     84  CA        -0.8380  -28.1260  -33.1940 C.3    79  SER79       0.2020
     85  C         -0.7670  -29.0500  -34.4080 C.2    79  SER79       0.2619
     86  O         -0.0230  -28.7530  -35.3480 O.2    79  SER79      -0.2717
     87  CB        -0.0010  -28.6870  -32.0500 C.3    79  SER79       0.2103
     88  OG        -0.6000  -29.8450  -31.4880 O.3    79  SER79      -0.2182
     89  N         -1.5460  -30.1590  -34.3920 N.am   80  LEU80      -0.1965
     90  CA        -1.5800  -31.1430  -35.4890 C.3    80  LEU80       0.1728
     91  C         -2.4850  -30.7810  -36.6670 C.2    80  LEU80       0.2616
     92  O         -2.4050  -31.4460  -37.6930 O.2    80  LEU80      -0.2715
     93  CB        -1.8740  -32.5620  -34.9800 C.3    80  LEU80       0.0311
     94  CG        -0.6960  -33.2930  -34.3370 C.3    80  LEU80       0.0022
     95  CD1       -1.1770  -34.3940  -33.3800 C.3    80  LEU80       0.0001
     96  CD2        0.2860  -33.8260  -35.3940 C.3    80  LEU80       0.0001
     97  N         -3.3170  -29.7300  -36.5310 N.am   81  LEU81      -0.1977
     98  CA        -4.2500  -29.2780  -37.5660 C.3    81  LEU81       0.1596
     99  C         -3.6560  -28.9350  -38.9230 C.2    81  LEU81       0.2287
    100  O         -4.2100  -29.4280  -39.9040 O.2    81  LEU81      -0.2864
    101  CB        -5.1850  -28.1690  -37.0920 C.3    81  LEU81       0.0297
    102  CG        -6.3800  -28.5700  -36.2400 C.3    81  LEU81       0.0022
    103  CD1       -7.2650  -27.3620  -36.0080 C.3    81  LEU81       0.0001
    104  CD2       -7.1800  -29.7380  -36.8730 C.3    81  LEU81       0.0001
    105  N         -2.6380  -32.4110  -40.3510 N.3    84  MET84      -0.1245
    106  CA        -3.8380  -33.1980  -40.6450 C.3    84  MET84       0.1570
    107  C         -4.4990  -32.7310  -41.9180 C.2    84  MET84       0.2261
    108  O         -4.9430  -33.5660  -42.7030 O.2    84  MET84      -0.2867
    109  CB        -4.8530  -33.1830  -39.4860 C.3    84  MET84       0.0387
    110  CG        -4.4470  -34.0490  -38.3200 C.3    84  MET84       0.0595
    111  SD        -3.7950  -35.7030  -38.7340 S.3    84  MET84      -0.1393
    112  CE        -2.4270  -35.7530  -37.6330 C.3    84  MET84       0.0692
    113  N         -2.3730  -33.9850  -44.9230 N.3    87  MET87      -0.1230
    114  CA        -2.6090  -35.4170  -45.0870 C.3    87  MET87       0.1702
    115  C         -4.0020  -35.6650  -45.7400 C.2    87  MET87       0.2593
    116  O         -4.1200  -36.4700  -46.6790 O.2    87  MET87      -0.2718
    117  CB        -2.4040  -36.1450  -43.7200 C.3    87  MET87       0.0401
    118  CG        -2.9430  -37.5930  -43.6500 C.3    87  MET87       0.0596
    119  SD        -2.2520  -38.6760  -44.9290 S.3    87  MET87      -0.1393
    120  CE        -0.7650  -39.2890  -44.0930 C.3    87  MET87       0.0692
    121  N         -5.0260  -34.9340  -45.2700 N.am   88  SER88      -0.1952
    122  CA        -6.3960  -35.0200  -45.7850 C.3    88  SER88       0.1924
    123  C         -6.4540  -34.6440  -47.2480 C.2    88  SER88       0.2314
    124  O         -7.0050  -35.4040  -48.0400 O.2    88  SER88      -0.2863
    125  CB        -7.3460  -34.1390  -44.9780 C.3    88  SER88       0.2116
    126  OG        -7.5400  -34.7440  -43.7110 O.3    88  SER88      -0.2180
    127  N        -14.6500  -37.7560  -47.5730 N.3   122  PHE122     -0.1241
    128  CA       -14.3200  -38.1790  -46.2020 C.3   122  PHE122      0.1605
    129  C        -14.5670  -39.6960  -45.9870 C.2   122  PHE122      0.2264
    130  O        -13.7200  -40.4060  -45.4330 O.2   122  PHE122     -0.2867
    131  CB       -15.0900  -37.3220  -45.1750 C.3   122  PHE122      0.0534
    132  CG       -14.8770  -37.7740  -43.7510 C.ar  122  PHE122     -0.0203
    133  CD1      -13.6940  -37.4700  -43.0760 C.ar  122  PHE122     -0.0042
    134  CD2      -15.8390  -38.5350  -43.0960 C.ar  122  PHE122     -0.0042
    135  CE1      -13.4740  -37.9210  -41.7780 C.ar  122  PHE122     -0.0003
    136  CE2      -15.6230  -38.9770  -41.7810 C.ar  122  PHE122     -0.0003
    137  CZ       -14.4440  -38.6570  -41.1300 C.ar  122  PHE122     -0.0000
    138  N        -11.7270  -42.5000  -45.0800 N.3   126  GLN126     -0.1245
    139  CA       -11.8790  -43.3700  -43.9270 C.3   126  GLN126      0.1566
    140  C        -11.7280  -44.8400  -44.3140 C.2   126  GLN126      0.2260
    141  O        -11.0350  -45.5840  -43.6170 O.2   126  GLN126     -0.2867
    142  CB       -13.2270  -43.1020  -43.2210 C.3   126  GLN126      0.0367
    143  CG       -13.2900  -41.7690  -42.4580 C.3   126  GLN126      0.0905
    144  CD       -11.9990  -41.3790  -41.7330 C.2   126  GLN126      0.2608
    145  OE1      -11.3090  -40.4160  -42.0970 O.2   126  GLN126     -0.2717
    146  NE2      -11.6260  -42.1280  -40.7110 N.am  126  GLN126     -0.0878
    147  N         -8.0240  -45.3680  -45.0860 N.3   129  PHE129     -0.1241
    148  CA        -7.2440  -45.3220  -43.8410 C.3   129  PHE129      0.1605
    149  C         -7.4050  -46.5970  -43.0430 C.2   129  PHE129      0.2264
    150  O         -6.4520  -47.0380  -42.4040 O.2   129  PHE129     -0.2867
    151  CB        -7.6180  -44.1210  -42.9500 C.3   129  PHE129      0.0534
    152  CG        -6.8030  -42.8910  -43.2190 C.ar  129  PHE129     -0.0203
    153  CD1       -7.4170  -41.6680  -43.4380 C.ar  129  PHE129     -0.0042
    154  CD2       -5.4160  -42.9650  -43.3240 C.ar  129  PHE129     -0.0042
    155  CE1       -6.6520  -40.5240  -43.7090 C.ar  129  PHE129     -0.0003
    156  CE2       -4.6560  -41.8340  -43.6180 C.ar  129  PHE129     -0.0003
    157  CZ        -5.2780  -40.6210  -43.8130 C.ar  129  PHE129     -0.0000
    158  N         -2.2280  -45.9930  -37.4830 N.3   140  TRP140     -0.1241
    159  CA        -2.3820  -45.8840  -38.9230 C.3   140  TRP140      0.1605
    160  C         -0.9560  -45.8110  -39.4370 C.2   140  TRP140      0.2264
    161  O         -0.2420  -44.8370  -39.1620 O.2   140  TRP140     -0.2867
    162  CB        -3.1750  -44.6350  -39.3050 C.3   140  TRP140      0.0550
    163  CG        -4.6330  -44.7580  -38.9790 C.ar  140  TRP140      0.0003
    164  CD1       -5.6100  -45.3060  -39.7560 C.ar  140  TRP140      0.0946
    165  CD2       -5.2640  -44.3600  -37.7600 C.ar  140  TRP140      0.0152
    166  NE1       -6.8210  -45.2310  -39.1150 N.ar  140  TRP140     -0.2442
    167  CE2       -6.6450  -44.6160  -37.9020 C.ar  140  TRP140      0.0810
    168  CE3       -4.8030  -43.7450  -36.5800 C.ar  140  TRP140      0.0012
    169  CZ2       -7.5640  -44.3410  -36.8840 C.ar  140  TRP140      0.0191
    170  CZ3       -5.7160  -43.4440  -35.5830 C.ar  140  TRP140      0.0001
    171  CH2       -7.0810  -43.7440  -35.7360 C.ar  140  TRP140      0.0015
    172  N          0.5800  -42.7220  -37.0600 N.3   147  TYR147     -0.1241
    173  CA        -0.3220  -41.9680  -36.1790 C.3   147  TYR147      0.1605
    174  C         -0.7930  -42.9160  -35.0900 C.2   147  TYR147      0.2264
    175  O         -1.6240  -43.7730  -35.3470 O.2   147  TYR147     -0.2867
    176  CB        -1.5100  -41.3880  -36.9640 C.3   147  TYR147      0.0534
    177  CG        -1.0870  -40.5200  -38.1250 C.ar  147  TYR147     -0.0201
    178  CD1       -0.8300  -41.0730  -39.3820 C.ar  147  TYR147     -0.0009
    179  CD2       -0.9560  -39.1440  -37.9780 C.ar  147  TYR147     -0.0009
    180  CE1       -0.4090  -40.2830  -40.4460 C.ar  147  TYR147      0.0417
    181  CE2       -0.5490  -38.3410  -39.0400 C.ar  147  TYR147      0.0417
    182  CZ        -0.2780  -38.9140  -40.2720 C.ar  147  TYR147      0.1957
    183  OH         0.0840  -38.1110  -41.3190 O.3   147  TYR147     -0.2866
    184  N        -15.7540  -42.3890  -34.7920 N.3   159  MET159     -0.1245
    185  CA       -14.7820  -42.5780  -35.8720 C.3   159  MET159      0.1570
    186  C        -13.7730  -43.6520  -35.4830 C.2   159  MET159      0.2261
    187  O        -13.5060  -44.5430  -36.2920 O.2   159  MET159     -0.2867
    188  CB       -14.0850  -41.2660  -36.2710 C.3   159  MET159      0.0387
    189  CG       -13.4950  -41.3120  -37.6800 C.3   159  MET159      0.0595
    190  SD       -12.0070  -40.2860  -37.9520 S.3   159  MET159     -0.1393
    191  CE       -10.7720  -41.2270  -37.0320 C.3   159  MET159      0.0692
    192  N        -18.7380  -35.5410  -38.6410 N.3   243  HIS243     -0.1241
    193  CA       -17.4100  -35.0050  -38.9530 C.3   243  HIS243      0.1621
    194  C        -17.4670  -33.6380  -39.6420 C.2   243  HIS243      0.2264
    195  O        -16.6840  -32.7530  -39.2960 O.2   243  HIS243     -0.2867
    196  CB       -16.5630  -35.9980  -39.7670 C.3   243  HIS243      0.0745
    197  CG       -15.2690  -35.4070  -40.2310 C.ar  243  HIS243      0.0817
    198  ND1      -15.1560  -34.7930  -41.4780 N.ar  243  HIS243     -0.2268
    199  CD2      -14.0910  -35.2790  -39.5720 C.ar  243  HIS243      0.1154
    200  CE1      -13.9130  -34.3390  -41.5390 C.ar  243  HIS243      0.1986
    201  NE2      -13.2350  -34.6090  -40.4180 N.ar  243  HIS243     -0.2212
    202  N        -18.2610  -31.1070  -37.0050 N.3   246  ARG246     -0.1231
    203  CA       -17.0770  -30.8940  -36.1660 C.3   246  ARG246      0.1694
    204  C        -16.0620  -29.9710  -36.8920 C.2   246  ARG246      0.2591
    205  O        -15.6410  -28.9640  -36.3160 O.2   246  ARG246     -0.2718
    206  CB       -16.4130  -32.2280  -35.8040 C.3   246  ARG246      0.0321
    207  CG       -16.9440  -32.8700  -34.5320 C.3   246  ARG246      0.0489
    208  CD       -16.0260  -34.0030  -34.0480 C.3   246  ARG246      0.2205
    209  NE       -16.0180  -35.1540  -34.9480 N.pl3 246  ARG246     -0.0865
    210  CZ       -16.9890  -36.0600  -35.0140 C.cat 246  ARG246      0.5346
    211  NH1      -18.0580  -35.9620  -34.2300 N.pl3 246  ARG246      0.1354
    212  NH2      -16.9010  -37.0580  -35.8780 N.pl3 246  ARG246      0.1354
    213  N        -15.7170  -30.2910  -38.1630 N.am  247  LEU247     -0.1980
    214  CA       -14.7760  -29.5210  -38.9900 C.3   247  LEU247      0.1596
    215  C        -15.2180  -28.0480  -39.1010 C.2   247  LEU247      0.2287
    216  O        -14.3850  -27.1670  -38.9050 O.2   247  LEU247     -0.2864
    217  CB       -14.6520  -30.1560  -40.4010 C.3   247  LEU247      0.0297
    218  CG       -13.4710  -29.7380  -41.2950 C.3   247  LEU247      0.0022
    219  CD1      -13.2110  -30.7760  -42.3540 C.3   247  LEU247      0.0001
    220  CD2      -13.7330  -28.4400  -42.0140 C.3   247  LEU247      0.0001
    221  N        -14.5770  -26.2480  -35.8790 N.3   250  ILE250     -0.1245
    222  CA       -13.1350  -26.0170  -35.6950 C.3   250  ILE250      0.1561
    223  C        -12.6520  -24.8660  -36.6100 C.2   250  ILE250      0.2260
    224  O        -11.9480  -23.9720  -36.1440 O.2   250  ILE250     -0.2867
    225  CB       -12.2700  -27.3080  -35.8760 C.3   250  ILE250      0.0252
    226  CG1      -12.7060  -28.4470  -34.9410 C.3   250  ILE250      0.0019
    227  CG2      -10.7880  -27.0110  -35.6570 C.3   250  ILE250      0.0019
    228  CD1      -12.4310  -29.8520  -35.5000 C.3   250  ILE250      0.0001
    229  N         -8.0430  -23.5530  -40.7590 N.3   256  PHE256     -0.1241
    230  CA        -6.9530  -24.4930  -41.0140 C.3   256  PHE256      0.1605
    231  C         -7.0820  -25.2310  -42.3440 C.2   256  PHE256      0.2264
    232  O         -6.0720  -25.6670  -42.8980 O.2   256  PHE256     -0.2867
    233  CB        -6.8430  -25.5050  -39.8410 C.3   256  PHE256      0.0534
    234  CG        -7.9660  -26.5160  -39.7710 C.ar  256  PHE256     -0.0203
    235  CD1       -7.7610  -27.8340  -40.1550 C.ar  256  PHE256     -0.0042
    236  CD2       -9.2430  -26.1380  -39.3670 C.ar  256  PHE256     -0.0042
    237  CE1       -8.8100  -28.7520  -40.1350 C.ar  256  PHE256     -0.0003
    238  CE2      -10.2900  -27.0600  -39.3430 C.ar  256  PHE256     -0.0003
    239  CZ       -10.0670  -28.3610  -39.7240 C.ar  256  PHE256     -0.0000
    240  N        -10.1790  -28.6130  -49.2760 N.3   261  MET261     -0.1245
    241  CA       -11.0480  -28.9450  -48.1410 C.3   261  MET261      0.1570
    242  C        -12.2020  -27.9710  -48.0260 C.2   261  MET261      0.2261
    243  O        -13.3240  -28.4020  -47.7640 O.2   261  MET261     -0.2867
    244  CB       -10.2580  -28.9500  -46.8460 C.3   261  MET261      0.0387
    245  CG        -9.4310  -30.1790  -46.6720 C.3   261  MET261      0.0595
    246  SD        -8.1820  -29.9240  -45.4120 S.3   261  MET261     -0.1393
    247  CE        -9.1630  -30.0890  -43.9510 C.3   261  MET261      0.0692
@<TRIPOS>BOND
     1   240   241    1
     2   241   242    1
     3   241   244    1
     4   124   123    2
     5   242   243    2
     6   127   128    1
     7   123   122    1
     8   244   245    1
     9   116   115    2
    10   245   246    1
    11   128   129    1
    12   128   131    1
    13   129   130    2
    14   122   121    1
    15   122   125    1
    16   115   121   am
    17   115   114    1
    18   246   247    1
    19   131   132    1
    20   114   113    1
    21   114   117    1
    22   147   148    1
    23   138   139    1
    24   125   126    1
    25   119   120    1
    26   119   118    1
    27   140   139    1
    28   140   141    2
    29   139   142    1
    30   148   149    1
    31   148   151    1
    32   157   155   ar
    33   157   156   ar
    34   132   134   ar
    35   132   133   ar
    36   117   118    1
    37   155   153   ar
    38   156   154   ar
    39   153   152   ar
    40   154   152   ar
    41   142   143    1
    42   152   151    1
    43   134   136   ar
    44   133   135   ar
    45   149   150    2
    46   232   231    2
    47   108   107    2
    48   143   144    1
    49   219   218    1
    50   231   230    1
    51   145   144    2
    52   220   218    1
    53   107   106    1
    54   136   137   ar
    55   135   137   ar
    56   144   146   am
    57   200   198   ar
    58   200   201   ar
    59   198   197   ar
    60   183   182    1
    61   218   217    1
    62   230   229    1
    63   230   233    1
    64   106   105    1
    65   106   109    1
    66   180   182   ar
    67   180   178   ar
    68   201   199   ar
    69   217   214    1
    70   182   181   ar
    71   197   196    1
    72   197   199   ar
    73   235   237   ar
    74   235   234   ar
    75   237   239   ar
    76   100    99    2
    77   233   234    1
    78   234   236   ar
    79   196   193    1
    80   164   166   ar
    81   164   163   ar
    82   239   238   ar
    83   194   195    2
    84   194   193    1
    85   109   110    1
    86   160   161    2
    87   160   159    1
    88   178   177   ar
    89   236   238   ar
    90   162   163    1
    91   162   159    1
    92   166   167   ar
    93   215   214    1
    94   215   216    2
    95   181   179   ar
    96   214   213    1
    97   163   165   ar
    98   193   192    1
    99    99    98    1
   100   159   158    1
   101   111   110    1
   102   111   112    1
   103   213   204   am
   104   177   179   ar
   105   177   176    1
   106   190   189    1
   107   190   191    1
   108   167   165   ar
   109   167   169   ar
   110   165   168   ar
   111    92    91    2
   112   189   188    1
   113    98   101    1
   114    98    97    1
   115   101   102    1
   116   172   173    1
   117   202   203    1
   118   176   173    1
   119   204   205    2
   120   204   203    1
   121   169   171   ar
   122   104   102    1
   123    91    97   am
   124    91    90    1
   125   223   224    2
   126   223   222    1
   127   168   170   ar
   128   187   186    2
   129   188   185    1
   130   102   103    1
   131   173   174    1
   132   203   206    1
   133   221   222    1
   134   212   210    1
   135   225   222    1
   136   225   227    1
   137   225   226    1
   138   185   186    1
   139   185   184    1
   140   206   207    1
   141   171   170   ar
   142   228   226    1
   143    90    93    1
   144    90    89    1
   145    96    94    1
   146    86    85    2
   147   175   174    2
   148   210   209    2
   149   210   211    1
   150    93    94    1
   151   209   208    1
   152    22    20    1
   153   207   208    1
   154    85    89   am
   155    85    84    1
   156    94    95    1
   157    21    20    1
   158    38    36    1
   159    20    19    1
   160    37    36    1
   161    84    83    1
   162    84    87    1
   163     8     6    1
   164    36    33    1
   165    19    16    1
   166    87    88    1
   167     6     7    1
   168     6     5    1
   169    18    17    2
   170    33    34    1
   171    33    32    1
   172    35    34    2
   173    78    77    2
   174    16    17    1
   175    16    15    1
   176    32    25   am
   177    17    23   am
   178     5     2    1
   179    77    76    1
   180     2     1    1
   181     2     3    1
   182    25    26    2
   183    25    24    1
   184     4     3    2
   185    23    24    1
   186     3     9   am
   187    24    27    1
   188    69    68    2
   189    76    75    1
   190    76    79    1
   191    43    44    1
   192    43    40    1
   193    80    82    1
   194    80    79    1
   195    68    75   am
   196    68    67    1
   197    45    44    1
   198    45    39    1
   199    79    81    1
   200    39    40    1
   201    40    41    1
   202    67    66    1
   203    67    70    1
   204     9    10    1
   205    52    51    1
   206    52    46    1
   207    27    28    1
   208    28    29    1
   209    51    50    1
   210    11    10    1
   211    11    12    2
   212    10    13    1
   213    70    71    1
   214    41    46   am
   215    41    42    2
   216    46    47    1
   217    29    30    1
   218    50    47    1
   219    13    14    1
   220    71    72    1
   221    49    48    2
   222    30    31    1
   223    47    48    1
   224    73    72   ar
   225    72    74   ar
   226    48    53   am
   227    64    63   ar
   228    53    54    1
   229    56    55    2
   230    63    65   ar
   231    63    62    1
   232    55    54    1
   233    55    58   am
   234    54    57    1
   235    59    58    1
   236    59    62    1
   237    59    60    1
   238    60    61    2
