@<TRIPOS>MOLECULE
tmp/6bnyA00.pdb
 127 120 0 0 0
SMALL
GASTEIGER

@<TRIPOS>ATOM
      1  N          0.2530  -24.1200   -9.7340 N.3    15  LEU15      -0.1231
      2  CA        -0.1650  -25.4030   -9.1790 C.3    15  LEU15       0.1693
      3  C          0.9930  -26.3700   -8.9850 C.2    15  LEU15       0.2592
      4  O          1.0140  -27.1140   -7.9990 O.2    15  LEU15      -0.2718
      5  CB        -1.2180  -26.0480  -10.0830 C.3    15  LEU15       0.0284
      6  CG        -2.5190  -25.2610  -10.2430 C.3    15  LEU15       0.0019
      7  CD1       -3.3510  -25.8410  -11.3710 C.3    15  LEU15       0.0001
      8  CD2       -3.3030  -25.2500   -8.9390 C.3    15  LEU15       0.0001
      9  N          1.9540  -26.3770   -9.9040 N.am   16  GLY16      -0.1957
     10  CA         3.1130  -27.2370   -9.7870 C.3    16  GLY16       0.1869
     11  C          4.3810  -26.5840  -10.2970 C.2    16  GLY16       0.2309
     12  O          4.3720  -25.9250  -11.3410 O.2    16  GLY16      -0.2863
     13  N          3.5910  -24.9620  -14.1790 N.3    23  VAL23      -0.1245
     14  CA         2.2380  -25.1160  -14.7040 C.3    23  VAL23       0.1561
     15  C          1.3140  -24.1480  -13.9780 C.2    23  VAL23       0.2260
     16  O          1.1870  -24.2090  -12.7490 O.2    23  VAL23      -0.2867
     17  CB         1.7270  -26.5590  -14.5590 C.3    23  VAL23       0.0252
     18  CG1        0.2600  -26.6380  -14.9420 C.3    23  VAL23       0.0019
     19  CG2        2.5580  -27.5000  -15.4180 C.3    23  VAL23       0.0019
     20  N         -4.3600  -25.2600  -18.6390 N.3    36  ALA36      -0.1245
     21  CA        -3.1230  -25.4300  -17.8880 C.3    36  ALA36       0.1562
     22  C         -1.9630  -25.0220  -18.7840 C.2    36  ALA36       0.2260
     23  O         -1.7400  -25.6370  -19.8320 O.2    36  ALA36      -0.2867
     24  CB        -2.9610  -26.8720  -17.4090 C.3    36  ALA36       0.0290
     25  N          1.9830  -24.4410  -19.5190 N.3    38  LYS38      -0.1245
     26  CA         3.3640  -24.7850  -19.2040 C.3    38  LYS38       0.1561
     27  C          4.2580  -23.6740  -19.7470 C.2    38  LYS38       0.2260
     28  O          4.2930  -23.4410  -20.9600 O.2    38  LYS38      -0.2867
     29  CB         3.7440  -26.1400  -19.8040 C.3    38  LYS38       0.0271
     30  CG         4.6350  -26.9800  -18.9040 C.3    38  LYS38       0.0035
     31  CD         5.0560  -28.2900  -19.5540 C.3    38  LYS38       0.0206
     32  CE         6.0370  -29.0460  -18.6620 C.3    38  LYS38       0.1093
     33  NZ         6.4570  -30.3520  -19.2440 N.3    38  LYS38      -0.1314
     34  N         -3.8370  -36.3620  -21.2130 N.3    65  VAL65      -0.1245
     35  CA        -4.1620  -34.9510  -21.3520 C.3    65  VAL65       0.1561
     36  C         -3.7460  -34.4920  -22.7430 C.2    65  VAL65       0.2260
     37  O         -2.7740  -34.9910  -23.3250 O.2    65  VAL65      -0.2867
     38  CB        -3.4890  -34.1090  -20.2510 C.3    65  VAL65       0.0252
     39  CG1       -3.6710  -34.7710  -18.8940 C.3    65  VAL65       0.0019
     40  CG2       -2.0180  -33.8970  -20.5530 C.3    65  VAL65       0.0019
     41  N         -2.6270  -26.8910  -22.1100 N.3    83  MET83      -0.1230
     42  CA        -2.9620  -28.2900  -21.8960 C.3    83  MET83       0.1702
     43  C         -4.3090  -28.3880  -21.1980 C.2    83  MET83       0.2592
     44  O         -4.8570  -27.3990  -20.7060 O.2    83  MET83      -0.2718
     45  CB        -1.8850  -29.0070  -21.0740 C.3    83  MET83       0.0401
     46  CG        -0.5460  -29.1120  -21.7760 C.3    83  MET83       0.0596
     47  SD         0.7020  -29.8940  -20.7480 S.3    83  MET83      -0.1393
     48  CE         2.1240  -29.8170  -21.8340 C.3    83  MET83       0.0692
     49  N         -4.8360  -29.6080  -21.1540 N.am   84  GLU84      -0.1966
     50  CA        -6.1430  -29.8530  -20.5600 C.3    84  GLU84       0.1733
     51  C         -6.0740  -29.6680  -19.0500 C.2    84  GLU84       0.2616
     52  O         -5.2880  -30.3370  -18.3690 O.2    84  GLU84      -0.2715
     53  CB        -6.6170  -31.2600  -20.9140 C.3    84  GLU84       0.0429
     54  CG        -8.0660  -31.5410  -20.5660 C.3    84  GLU84       0.1163
     55  CD        -8.5170  -32.9000  -21.0540 C.2    84  GLU84       0.3649
     56  OE1       -7.6450  -33.7280  -21.3940 O.co2  84  GLU84      -0.2457
     57  OE2       -9.7420  -33.1390  -21.1020 O.co2  84  GLU84      -0.2457
     58  N         -6.8920  -28.7600  -18.5270 N.am   85  PHE85      -0.1960
     59  CA        -6.9190  -28.5200  -17.0910 C.3    85  PHE85       0.1771
     60  C         -7.6290  -29.6650  -16.3800 C.2    85  PHE85       0.2620
     61  O         -8.7080  -30.1000  -16.7970 O.2    85  PHE85      -0.2715
     62  CB        -7.6140  -27.1950  -16.7860 C.3    85  PHE85       0.0574
     63  CG        -7.4840  -26.7580  -15.3550 C.ar   85  PHE85      -0.0200
     64  CD1       -6.3610  -27.0850  -14.6150 C.ar   85  PHE85      -0.0042
     65  CD2       -8.4930  -26.0310  -14.7450 C.ar   85  PHE85      -0.0042
     66  CE1       -6.2440  -26.6880  -13.2960 C.ar   85  PHE85      -0.0003
     67  CE2       -8.3810  -25.6310  -13.4270 C.ar   85  PHE85      -0.0003
     68  CZ        -7.2550  -25.9600  -12.7010 C.ar   85  PHE85      -0.0000
     69  N         -7.0200  -30.1540  -15.2990 N.am   86  CYS86      -0.1954
     70  CA        -7.5540  -31.2570  -14.5030 C.3    86  CYS86       0.1828
     71  C         -7.8650  -30.7230  -13.1110 C.2    86  CYS86       0.2467
     72  O         -6.9910  -30.7190  -12.2300 O.2    86  CYS86      -0.2730
     73  CB        -6.5640  -32.4170  -14.4530 C.3    86  CYS86       0.0996
     74  SG        -5.9120  -32.8670  -16.0790 S.3    86  CYS86      -0.0797
     75  N         -9.0960  -30.2690  -12.8670 N.am   87  PRO87      -0.2715
     76  CA        -9.3880  -29.5700  -11.6030 C.3    87  PRO87       0.1536
     77  C         -9.2300  -30.4310  -10.3590 C.2    87  PRO87       0.2599
     78  O         -9.0620  -29.8780   -9.2640 O.2    87  PRO87      -0.2715
     79  CB       -10.8420  -29.1110  -11.7830 C.3    87  PRO87       0.0310
     80  CG       -11.0730  -29.1280  -13.2680 C.3    87  PRO87       0.0237
     81  CD       -10.2480  -30.2640  -13.7830 C.3    87  PRO87       0.0939
     82  N         -9.2740  -31.7600  -10.4840 N.am   88  CYS88      -0.1954
     83  CA        -9.1430  -32.6120   -9.3060 C.3    88  CYS88       0.1843
     84  C         -7.7050  -32.6730   -8.8050 C.2    88  CYS88       0.2626
     85  O         -7.4770  -32.8500   -7.6020 O.2    88  CYS88      -0.2714
     86  CB        -9.6540  -34.0160   -9.6190 C.3    88  CYS88       0.0997
     87  SG       -11.3400  -34.0500  -10.2460 S.3    88  CYS88      -0.0797
     88  N         -6.7270  -32.5370   -9.7030 N.am   89  GLY89      -0.1940
     89  CA        -5.3240  -32.5700   -9.3410 C.3    89  GLY89       0.2014
     90  C         -4.6030  -33.7200  -10.0320 C.2    89  GLY89       0.2639
     91  O         -4.8320  -33.9960  -11.2120 O.2    89  GLY89      -0.2714
     92  N         -3.7270  -34.3800   -9.2830 N.am   90  SER90      -0.1949
     93  CA        -2.9620  -35.5240   -9.7590 C.3    90  SER90       0.1924
     94  C         -3.2610  -36.7380   -8.8850 C.2    90  SER90       0.2314
     95  O         -3.9640  -36.6510   -7.8750 O.2    90  SER90      -0.2863
     96  CB        -1.4610  -35.2140   -9.7660 C.3    90  SER90       0.2116
     97  OG        -1.0060  -34.8600   -8.4710 O.3    90  SER90      -0.2180
     98  N         -2.2380  -36.2450   -5.4880 N.3    93  THR93      -0.1218
     99  CA        -3.1350  -35.4060   -4.6990 C.3    93  THR93       0.1862
    100  C         -4.1480  -36.2530   -3.9420 C.2    93  THR93       0.2287
    101  O         -4.3840  -36.0370   -2.7470 O.2    93  THR93      -0.2866
    102  CB        -3.8460  -34.3940   -5.6000 C.3    93  THR93       0.1770
    103  OG1       -2.8760  -33.5740   -6.2640 O.3    93  THR93      -0.2211
    104  CG2       -4.7770  -33.5090   -4.7840 C.3    93  THR93       0.0375
    105  N         -2.7890  -37.4320  -13.9020 N.3   139  MET139     -0.1245
    106  CA        -3.7990  -36.4650  -13.5030 C.3   139  MET139      0.1570
    107  C         -5.1700  -37.1280  -13.3970 C.2   139  MET139      0.2261
    108  O         -5.3750  -38.2650  -13.8250 O.2   139  MET139     -0.2867
    109  CB        -3.8390  -35.3010  -14.4920 C.3   139  MET139      0.0387
    110  CG        -2.5140  -34.5780  -14.6290 C.3   139  MET139      0.0595
    111  SD        -1.9240  -33.9880  -13.0330 S.3   139  MET139     -0.1393
    112  CE        -0.2670  -33.4450  -13.4480 C.3   139  MET139      0.0692
    113  N          0.3180  -37.2770  -18.5140 N.3   153  THR153     -0.1203
    114  CA         0.5380  -35.8680  -18.8370 C.3   153  THR153      0.1994
    115  C          1.9820  -35.4930  -19.1400 C.2   153  THR153      0.2617
    116  O          2.1980  -34.5180  -19.8670 O.2   153  THR153     -0.2717
    117  CB         0.0360  -34.9790  -17.6950 C.3   153  THR153      0.1784
    118  OG1        0.2700  -33.6050  -18.0250 O.3   153  THR153     -0.2211
    119  CG2        0.7560  -35.3170  -16.3950 C.3   153  THR153      0.0376
    120  N          2.9790  -36.2060  -18.6200 N.am  154  ASP154     -0.1973
    121  CA         4.3780  -35.8110  -18.7500 C.3   154  ASP154      0.1709
    122  C          5.1740  -36.9800  -19.3130 C.2   154  ASP154      0.2293
    123  O          5.3990  -37.9730  -18.6140 O.2   154  ASP154     -0.2864
    124  CB         4.9450  -35.3680  -17.4000 C.3   154  ASP154      0.1436
    125  CG         6.0740  -34.3660  -17.5410 C.2   154  ASP154      0.3671
    126  OD1        5.7880  -33.1680  -17.7460 O.co2 154  ASP154     -0.2456
    127  OD2        7.2500  -34.7780  -17.4470 O.co2 154  ASP154     -0.2456
@<TRIPOS>BOND
     1    37    36    2
     2    36    35    1
     3    41    42    1
     4    42    43    1
     5    42    45    1
     6    48    47    1
     7    46    45    1
     8    46    47    1
     9    56    55   ar
    10    35    34    1
    11    35    38    1
    12    43    49   am
    13    43    44    2
    14    49    50    1
    15    57    55   ar
    16    55    54    1
    17    28    27    2
    18    53    54    1
    19    53    50    1
    20    50    51    1
    21    40    38    1
    22    38    39    1
    23   116   115    2
    24    23    22    2
    25    29    26    1
    26    29    30    1
    27    27    26    1
    28    31    30    1
    29    31    32    1
    30    25    26    1
    31   122   121    1
    32   122   123    2
    33    33    32    1
    34   115   114    1
    35   115   120   am
    36    51    58   am
    37    51    52    2
    38   114   113    1
    39   114   117    1
    40    22    21    1
    41   121   120    1
    42   121   124    1
    43    20    21    1
    44    58    59    1
    45   118   117    1
    46    21    24    1
    47   126   125   ar
    48   117   119    1
    49   125   127   ar
    50   125   124    1
    51    59    62    1
    52    59    60    1
    53    61    60    2
    54    62    63    1
    55    60    69   am
    56    74    73    1
    57    19    17    1
    58    63    65   ar
    59    63    64   ar
    60    69    70    1
    61    18    17    1
    62    65    67   ar
    63    14    17    1
    64    14    13    1
    65    14    15    1
    66   110   109    1
    67   110   111    1
    68    64    66   ar
    69    70    73    1
    70    70    71    1
    71   109   106    1
    72    15    16    2
    73   105   106    1
    74   108   107    2
    75    81    80    1
    76    81    75    1
    77   106   107    1
    78   112   111    1
    79    67    68   ar
    80    66    68   ar
    81    80    79    1
    82    71    75   am
    83    71    72    2
    84    75    76    1
    85    79    76    1
    86    76    77    1
    87     7     6    1
    88    12    11    2
    89    91    90    2
    90    82    77   am
    91    82    83    1
    92    77    78    2
    93    11    10    1
    94    87    86    1
    95     6     5    1
    96     6     8    1
    97     5     2    1
    98    90    89    1
    99    90    92   am
   100     9    10    1
   101     9     3   am
   102    96    93    1
   103    96    97    1
   104    93    92    1
   105    93    94    1
   106     1     2    1
   107    88    89    1
   108    88    84   am
   109    86    83    1
   110    83    84    1
   111     2     3    1
   112     3     4    2
   113    94    95    2
   114    84    85    2
   115   103   102    1
   116   102   104    1
   117   102    99    1
   118    98    99    1
   119    99   100    1
   120   100   101    2
