@<TRIPOS>MOLECULE
tmp/6bo6A00.pdb
 195 188 0 0 0
SMALL
GASTEIGER

@<TRIPOS>ATOM
      1  N        -68.3750  -66.3900  -33.8610 N.3   127  MET127     -0.1230
      2  CA       -68.0060  -64.9790  -33.9550 C.3   127  MET127      0.1702
      3  C        -67.6100  -64.5990  -35.3770 C.2   127  MET127      0.2592
      4  O        -68.1100  -63.6100  -35.9270 O.2   127  MET127     -0.2718
      5  CB       -66.8680  -64.6780  -32.9790 C.3   127  MET127      0.0401
      6  CG       -66.3130  -63.2680  -33.0600 C.3   127  MET127      0.0596
      7  SD       -64.7550  -63.0630  -32.1610 S.3   127  MET127     -0.1393
      8  CE       -64.6940  -61.2780  -31.9920 C.3   127  MET127      0.0692
      9  N        -66.7100  -65.3700  -35.9840 N.am  128  MET128     -0.1979
     10  CA       -66.2380  -65.0960  -37.3430 C.3   128  MET128      0.1605
     11  C        -67.1980  -65.6590  -38.3950 C.2   128  MET128      0.2287
     12  O        -68.4190  -65.5190  -38.2880 O.2   128  MET128     -0.2864
     13  CB       -64.8330  -65.6790  -37.5600 C.3   128  MET128      0.0413
     14  CG       -63.7980  -65.3530  -36.4720 C.3   128  MET128      0.0598
     15  SD       -63.4320  -63.5930  -36.2580 S.3   128  MET128     -0.1393
     16  CE       -62.9350  -63.1250  -37.9170 C.3   128  MET128      0.0692
     17  N        -62.0090  -64.4060  -30.1460 N.3   136  ASP136     -0.1239
     18  CA       -61.2590  -65.1760  -31.1360 C.3   136  ASP136      0.1674
     19  C        -60.1190  -65.9580  -30.4830 C.2   136  ASP136      0.2266
     20  O        -58.9510  -65.8210  -30.8440 O.2   136  ASP136     -0.2867
     21  CB       -60.7380  -64.2520  -32.2290 C.3   136  ASP136      0.1410
     22  CG       -60.1520  -65.0120  -33.3900 C.2   136  ASP136      0.3668
     23  OD1      -60.7780  -66.0060  -33.8120 O.co2 136  ASP136     -0.2456
     24  OD2      -59.0700  -64.6180  -33.8760 O.co2 136  ASP136     -0.2456
     25  N        -56.0400  -61.8390  -23.8740 N.3   228  HIS228     -0.1241
     26  CA       -57.0660  -60.8630  -23.5050 C.3   228  HIS228      0.1621
     27  C        -57.5340  -61.1550  -22.0780 C.2   228  HIS228      0.2264
     28  O        -58.7310  -61.3000  -21.8340 O.2   228  HIS228     -0.2867
     29  CB       -58.2690  -60.9260  -24.4540 C.3   228  HIS228      0.0745
     30  CG       -57.9460  -60.6220  -25.8840 C.ar  228  HIS228      0.0817
     31  ND1      -57.3260  -59.4560  -26.2790 N.ar  228  HIS228     -0.2268
     32  CD2      -58.2030  -61.3110  -27.0210 C.ar  228  HIS228      0.1154
     33  CE1      -57.1830  -59.4560  -27.5920 C.ar  228  HIS228      0.1986
     34  NE2      -57.7150  -60.5670  -28.0680 N.ar  228  HIS228     -0.2212
     35  N        -70.6410  -58.6300  -33.3210 N.3   259  PHE259     -0.1227
     36  CA       -70.1560  -59.8700  -33.9130 C.3   259  PHE259      0.1736
     37  C        -71.2240  -60.9490  -33.7600 C.2   259  PHE259      0.2596
     38  O        -71.7770  -61.1270  -32.6680 O.2   259  PHE259     -0.2718
     39  CB       -68.8650  -60.3250  -33.2350 C.3   259  PHE259      0.0547
     40  CG       -67.8250  -59.2500  -33.1050 C.ar  259  PHE259     -0.0202
     41  CD1      -67.2330  -58.6950  -34.2310 C.ar  259  PHE259     -0.0042
     42  CD2      -67.4170  -58.8120  -31.8530 C.ar  259  PHE259     -0.0042
     43  CE1      -66.2630  -57.7150  -34.1110 C.ar  259  PHE259     -0.0003
     44  CE2      -66.4500  -57.8360  -31.7240 C.ar  259  PHE259     -0.0003
     45  CZ       -65.8700  -57.2860  -32.8550 C.ar  259  PHE259     -0.0000
     46  N        -71.5200  -61.6730  -34.8430 N.am  260  GLY260     -0.1957
     47  CA       -70.9020  -61.4880  -36.1490 C.3   260  GLY260      0.1869
     48  C        -71.4380  -60.3920  -37.0670 C.2   260  GLY260      0.2309
     49  O        -70.6810  -59.4910  -37.4440 O.2   260  GLY260     -0.2863
     50  N        -61.0240  -55.3700  -24.0520 N.3   309  ASN309     -0.1225
     51  CA       -60.5240  -55.5510  -25.4060 C.3   309  ASN309      0.1785
     52  C        -61.6890  -55.4480  -26.3760 C.2   309  ASN309      0.2597
     53  O        -62.6600  -56.2010  -26.2710 O.2   309  ASN309     -0.2718
     54  CB       -59.7900  -56.8840  -25.5860 C.3   309  ASN309      0.1169
     55  CG       -59.3910  -57.1400  -27.0500 C.2   309  ASN309      0.2627
     56  OD1      -58.5010  -56.4830  -27.5860 O.2   309  ASN309     -0.2716
     57  ND2      -60.0550  -58.1020  -27.6940 N.am  309  ASN309     -0.0877
     58  N        -61.5880  -54.5050  -27.3020 N.am  310  GLU310     -0.1979
     59  CA       -62.5130  -54.3870  -28.4250 C.3   310  GLU310      0.1602
     60  C        -63.9800  -54.3690  -28.0090 C.2   310  GLU310      0.2287
     61  O        -64.7790  -55.2070  -28.4770 O.2   310  GLU310     -0.2864
     62  CB       -62.2410  -55.4960  -29.4320 C.3   310  GLU310      0.0415
     63  CG       -60.9640  -55.2680  -30.2290 C.3   310  GLU310      0.1163
     64  CD       -60.9700  -55.9920  -31.5550 C.2   310  GLU310      0.3649
     65  OE1      -61.5990  -57.0680  -31.6350 O.co2 310  GLU310     -0.2457
     66  OE2      -60.3500  -55.4890  -32.5140 O.co2 310  GLU310     -0.2457
     67  N        -62.0650  -51.5620  -31.5330 N.3   344  VAL344     -0.1231
     68  CA       -62.3250  -52.3460  -32.7460 C.3   344  VAL344      0.1692
     69  C        -62.1290  -51.4790  -33.9850 C.2   344  VAL344      0.2591
     70  O        -62.1690  -50.2450  -33.9340 O.2   344  VAL344     -0.2718
     71  CB       -63.7470  -52.9370  -32.7310 C.3   344  VAL344      0.0266
     72  CG1      -63.8990  -54.0640  -33.7610 C.3   344  VAL344      0.0020
     73  CG2      -64.1320  -53.4150  -31.3610 C.3   344  VAL344      0.0020
     74  N        -61.9340  -52.1470  -35.1230 N.am  345  GLN345     -0.1979
     75  CA       -62.0550  -51.4870  -36.4150 C.3   345  GLN345      0.1601
     76  C        -63.4120  -50.8000  -36.5200 C.2   345  GLN345      0.2287
     77  O        -64.3950  -51.2270  -35.9080 O.2   345  GLN345     -0.2864
     78  CB       -61.8830  -52.5090  -37.5400 C.3   345  GLN345      0.0394
     79  CG       -61.7290  -51.9180  -38.9290 C.3   345  GLN345      0.0908
     80  CD       -60.2820  -51.8550  -39.3680 C.2   345  GLN345      0.2608
     81  OE1      -59.3870  -52.2750  -38.6370 O.2   345  GLN345     -0.2717
     82  NE2      -60.0450  -51.3370  -40.5730 N.am  345  GLN345     -0.0878
     83  N        -56.7220  -51.3460  -32.6430 N.3   364  ASN364     -0.1240
     84  CA       -56.6210  -52.6710  -33.2680 C.3   364  ASN364      0.1653
     85  C        -57.1060  -52.5000  -34.7040 C.2   364  ASN364      0.2266
     86  O        -58.3090  -52.5640  -34.9700 O.2   364  ASN364     -0.2867
     87  CB       -57.4670  -53.7310  -32.5410 C.3   364  ASN364      0.1155
     88  CG       -56.9240  -54.0910  -31.1810 C.2   364  ASN364      0.2627
     89  OD1      -55.9460  -53.5070  -30.7150 O.2   364  ASN364     -0.2716
     90  ND2      -57.5680  -55.0510  -30.5250 N.am  364  ASN364     -0.0877
     91  N        -56.6930  -53.2950  -39.0110 N.3   366  TYR366     -0.1241
     92  CA       -56.3170  -54.3510  -39.9450 C.3   366  TYR366      0.1605
     93  C        -56.3830  -53.8400  -41.3760 C.2   366  TYR366      0.2264
     94  O        -56.8830  -54.5010  -42.2890 O.2   366  TYR366     -0.2867
     95  CB       -57.1870  -55.5910  -39.7270 C.3   366  TYR366      0.0534
     96  CG       -56.8300  -56.3060  -38.4410 C.ar  366  TYR366     -0.0201
     97  CD1      -55.8160  -57.2670  -38.4160 C.ar  366  TYR366     -0.0009
     98  CD2      -57.4740  -55.9990  -37.2470 C.ar  366  TYR366     -0.0009
     99  CE1      -55.4680  -57.9130  -37.2440 C.ar  366  TYR366      0.0417
    100  CE2      -57.1310  -56.6390  -36.0650 C.ar  366  TYR366      0.0417
    101  CZ       -56.1280  -57.5990  -36.0690 C.ar  366  TYR366      0.1957
    102  OH       -55.7830  -58.2400  -34.8990 O.3   366  TYR366     -0.2866
    103  N        -58.3770  -57.5440  -43.0860 N.3   370  TYR370     -0.1227
    104  CA       -59.8350  -57.4800  -43.0310 C.3   370  TYR370      0.1736
    105  C        -60.3820  -56.3250  -43.8600 C.2   370  TYR370      0.2595
    106  O        -61.4620  -56.4410  -44.4460 O.2   370  TYR370     -0.2718
    107  CB       -60.3030  -57.3410  -41.5870 C.3   370  TYR370      0.0548
    108  CG       -60.0850  -58.5660  -40.7420 C.ar  370  TYR370     -0.0200
    109  CD1      -60.2440  -59.8350  -41.2700 C.ar  370  TYR370     -0.0009
    110  CD2      -59.7160  -58.4530  -39.4100 C.ar  370  TYR370     -0.0009
    111  CE1      -60.0460  -60.9630  -40.4890 C.ar  370  TYR370      0.0417
    112  CE2      -59.5160  -59.5700  -38.6250 C.ar  370  TYR370      0.0417
    113  CZ       -59.6840  -60.8200  -39.1690 C.ar  370  TYR370      0.1957
    114  OH       -59.4880  -61.9320  -38.3870 O.3   370  TYR370     -0.2866
    115  N        -59.6530  -55.2140  -43.9290 N.am  371  PHE371     -0.1976
    116  CA       -60.0300  -54.0690  -44.7450 C.3   371  PHE371      0.1639
    117  C        -58.9990  -53.8780  -45.8460 C.2   371  PHE371      0.2290
    118  O        -57.8270  -53.6070  -45.5620 O.2   371  PHE371     -0.2864
    119  CB       -60.1360  -52.8040  -43.8950 C.3   371  PHE371      0.0560
    120  CG       -60.3920  -51.5510  -44.6950 C.ar  371  PHE371     -0.0200
    121  CD1      -59.4050  -50.5970  -44.8400 C.ar  371  PHE371     -0.0042
    122  CD2      -61.6210  -51.3270  -45.2990 C.ar  371  PHE371     -0.0042
    123  CE1      -59.6290  -49.4410  -45.5630 C.ar  371  PHE371     -0.0003
    124  CE2      -61.8480  -50.1700  -46.0260 C.ar  371  PHE371     -0.0003
    125  CZ       -60.8490  -49.2300  -46.1540 C.ar  371  PHE371     -0.0000
    126  N        -52.7640  -54.0540  -32.1500 N.3   401  GLU401     -0.1245
    127  CA       -53.0470  -55.2070  -32.9910 C.3   401  GLU401      0.1567
    128  C        -52.9910  -54.7720  -34.4440 C.2   401  GLU401      0.2260
    129  O        -53.6330  -53.7870  -34.8290 O.2   401  GLU401     -0.2867
    130  CB       -54.4230  -55.7990  -32.7010 C.3   401  GLU401      0.0388
    131  CG       -54.4710  -56.7740  -31.5590 C.3   401  GLU401      0.1160
    132  CD       -55.7780  -57.5330  -31.5170 C.2   401  GLU401      0.3649
    133  OE1      -56.2560  -57.8270  -30.4010 O.co2 401  GLU401     -0.2457
    134  OE2      -56.3270  -57.8260  -32.6010 O.co2 401  GLU401     -0.2457
    135  N        -50.0100  -58.3490  -33.9200 N.3   446  TRP446     -0.1241
    136  CA       -50.8760  -59.4660  -33.5800 C.3   446  TRP446      0.1605
    137  C        -50.6320  -60.5510  -34.6170 C.2   446  TRP446      0.2264
    138  O        -50.6760  -60.2800  -35.8240 O.2   446  TRP446     -0.2867
    139  CB       -52.3420  -59.0310  -33.5490 C.3   446  TRP446      0.0550
    140  CG       -53.2690  -60.0570  -32.9830 C.ar  446  TRP446      0.0003
    141  CD1      -54.0670  -60.9100  -33.6840 C.ar  446  TRP446      0.0946
    142  CD2      -53.4960  -60.3450  -31.5950 C.ar  446  TRP446      0.0152
    143  NE1      -54.7770  -61.7110  -32.8210 N.ar  446  TRP446     -0.2442
    144  CE2      -54.4460  -61.3820  -31.5350 C.ar  446  TRP446      0.0810
    145  CE3      -52.9900  -59.8250  -30.4010 C.ar  446  TRP446      0.0012
    146  CZ2      -54.8970  -61.9110  -30.3320 C.ar  446  TRP446      0.0191
    147  CZ3      -53.4420  -60.3510  -29.2060 C.ar  446  TRP446      0.0001
    148  CH2      -54.3840  -61.3810  -29.1790 C.ar  446  TRP446      0.0015
    149  N        -52.1260  -69.3820  -32.3850 N.3   451  PHE451     -0.1241
    150  CA       -52.8500  -69.8950  -31.2300 C.3   451  PHE451      0.1605
    151  C        -54.1780  -70.4990  -31.6670 C.2   451  PHE451      0.2264
    152  O        -54.7250  -70.1720  -32.7260 O.2   451  PHE451     -0.2867
    153  CB       -53.0830  -68.8030  -30.1670 C.3   451  PHE451      0.0534
    154  CG       -53.8160  -67.6000  -30.6760 C.ar  451  PHE451     -0.0203
    155  CD1      -53.1330  -66.5620  -31.2980 C.ar  451  PHE451     -0.0042
    156  CD2      -55.1950  -67.5030  -30.5340 C.ar  451  PHE451     -0.0042
    157  CE1      -53.8150  -65.4510  -31.7710 C.ar  451  PHE451     -0.0003
    158  CE2      -55.8770  -66.4030  -31.0010 C.ar  451  PHE451     -0.0003
    159  CZ       -55.1880  -65.3710  -31.6180 C.ar  451  PHE451     -0.0000
    160  N        -62.9880  -69.2330  -41.5170 N.3   458  LEU458     -0.1231
    161  CA       -62.0110  -68.1560  -41.5760 C.3   458  LEU458      0.1693
    162  C        -60.7850  -68.4030  -40.7060 C.2   458  LEU458      0.2591
    163  O        -59.9150  -67.5290  -40.6270 O.2   458  LEU458     -0.2718
    164  CB       -62.6690  -66.8340  -41.1760 C.3   458  LEU458      0.0284
    165  CG       -63.4820  -66.1800  -42.2920 C.3   458  LEU458      0.0019
    166  CD1      -64.2120  -64.9650  -41.7600 C.3   458  LEU458      0.0001
    167  CD2      -62.5750  -65.7960  -43.4500 C.3   458  LEU458      0.0001
    168  N        -60.6810  -69.5630  -40.0630 N.am  459  ARG459     -0.1980
    169  CA       -59.5830  -69.8580  -39.1490 C.3   459  ARG459      0.1597
    170  C        -58.9130  -71.1510  -39.5960 C.2   459  ARG459      0.2287
    171  O        -59.4990  -72.2300  -39.4750 O.2   459  ARG459     -0.2864
    172  CB       -60.0930  -69.9570  -37.7130 C.3   459  ARG459      0.0334
    173  CG       -60.4790  -68.6260  -37.1040 C.3   459  ARG459      0.0492
    174  CD       -59.2440  -67.8930  -36.6180 C.3   459  ARG459      0.2205
    175  NE       -59.4950  -66.4930  -36.2780 N.pl3 459  ARG459     -0.0865
    176  CZ       -59.3740  -65.4810  -37.1310 C.cat 459  ARG459      0.5346
    177  NH1      -59.6030  -64.2430  -36.7210 N.pl3 459  ARG459      0.1354
    178  NH2      -59.0310  -65.7070  -38.3950 N.pl3 459  ARG459      0.1354
    179  N        -55.7150  -69.3610  -35.1930 N.3   463  ASN463     -0.1240
    180  CA       -55.3250  -68.0460  -35.6690 C.3   463  ASN463      0.1653
    181  C        -53.8700  -68.0970  -36.1150 C.2   463  ASN463      0.2266
    182  O        -52.9870  -68.4170  -35.3140 O.2   463  ASN463     -0.2867
    183  CB       -55.5280  -67.0140  -34.5660 C.3   463  ASN463      0.1155
    184  CG       -55.4340  -65.6090  -35.0730 C.2   463  ASN463      0.2627
    185  OD1      -54.4260  -65.2260  -35.6740 O.2   463  ASN463     -0.2716
    186  ND2      -56.4810  -64.8200  -34.8410 N.am  463  ASN463     -0.0877
    187  N        -52.0380  -65.4950  -37.3260 N.3   465  LYS465     -0.1245
    188  CA       -51.4730  -64.1610  -37.4620 C.3   465  LYS465      0.1561
    189  C        -50.1810  -63.9870  -36.6790 C.2   465  LYS465      0.2260
    190  O        -49.6360  -62.8770  -36.6360 O.2   465  LYS465     -0.2867
    191  CB       -52.4860  -63.1060  -37.0230 C.3   465  LYS465      0.0271
    192  CG       -53.6250  -62.8760  -38.0090 C.3   465  LYS465      0.0035
    193  CD       -54.4200  -61.6080  -37.6530 C.3   465  LYS465      0.0206
    194  CE       -55.6850  -61.4770  -38.4970 C.3   465  LYS465      0.1093
    195  NZ       -56.6900  -62.5470  -38.2180 N.3   465  LYS465     -0.1314
@<TRIPOS>BOND
     1   125   124   ar
     2   125   123   ar
     3   124   122   ar
     4   117   118    2
     5   117   116    1
     6   123   121   ar
     7   122   120   ar
     8   121   120   ar
     9   116   115    1
    10   116   119    1
    11   120   119    1
    12   106   105    2
    13   115   105   am
    14   105   104    1
    15   167   165    1
    16   103   104    1
    17   104   107    1
    18   165   166    1
    19   165   164    1
    20    94    93    2
    21   107   108    1
    22   161   160    1
    23   161   164    1
    24   161   162    1
    25    93    92    1
    26   109   108   ar
    27   109   111   ar
    28   108   110   ar
    29   162   163    2
    30   162   168   am
    31    82    80   am
    32   111   113   ar
    33   168   169    1
    34    92    95    1
    35    92    91    1
    36    95    96    1
    37   170   171    2
    38   170   169    1
    39   110   112   ar
    40    80    79    1
    41    80    81    2
    42   113   112   ar
    43   113   114    1
    44   169   172    1
    45    79    78    1
    46   194   195    1
    47   194   193    1
    48    96    97   ar
    49    96    98   ar
    50    97    99   ar
    51    11    12    2
    52    11    10    1
    53   178   176    1
    54   192   193    1
    55   192   191    1
    56    16    15    1
    57   172   173    1
    58    13    10    1
    59    13    14    1
    60    78    75    1
    61   188   187    1
    62   188   191    1
    63   188   189    1
    64    49    48    2
    65    10     9    1
    66    98   100   ar
    67    99   101   ar
    68   176   177    1
    69   176   175    2
    70   173   174    1
    71    48    47    1
    72   189   190    2
    73   174   175    1
    74    76    75    1
    75    76    77    2
    76    14    15    1
    77    75    74    1
    78    47    46    1
    79   181   180    1
    80   181   182    2
    81   101   100   ar
    82   101   102    1
    83     9     3   am
    84     4     3    2
    85   138   137    2
    86   185   184    2
    87   180   179    1
    88   180   183    1
    89     3     2    1
    90    74    69   am
    91   184   186   am
    92   184   183    1
    93    86    85    2
    94    46    37   am
    95   129   128    2
    96    85    84    1
    97   137   136    1
    98   128   127    1
    99    41    43   ar
   100    41    40   ar
   101    43    45   ar
   102    69    70    2
   103    69    68    1
   104     2     1    1
   105     2     5    1
   106   135   136    1
   107    36    37    1
   108    36    35    1
   109    36    39    1
   110    24    22   ar
   111    23    22   ar
   112    72    71    1
   113    37    38    2
   114   141   140   ar
   115   141   143   ar
   116   136   139    1
   117   139   140    1
   118    22    21    1
   119    84    83    1
   120    84    87    1
   121    39    40    1
   122    40    42   ar
   123     6     5    1
   124     6     7    1
   125   127   130    1
   126   127   126    1
   127   140   142   ar
   128    45    44   ar
   129   143   144   ar
   130    68    71    1
   131    68    67    1
   132    71    73    1
   133   152   151    2
   134   130   131    1
   135   134   132   ar
   136    87    88    1
   137    66    64   ar
   138   149   150    1
   139    21    18    1
   140     7     8    1
   141    42    44   ar
   142   157   159   ar
   143   157   155   ar
   144   151   150    1
   145    65    64   ar
   146   159   158   ar
   147   142   144   ar
   148   142   145   ar
   149   131   132    1
   150    64    63    1
   151   144   146   ar
   152   132   133   ar
   153   155   154   ar
   154   150   153    1
   155    88    89    2
   156    88    90   am
   157    18    19    1
   158    18    17    1
   159   158   156   ar
   160    20    19    2
   161   154   156   ar
   162   154   153    1
   163   145   147   ar
   164   146   148   ar
   165    63    62    1
   166    62    59    1
   167   147   148   ar
   168    61    60    2
   169    59    60    1
   170    59    58    1
   171    34    33   ar
   172    34    32   ar
   173    57    55   am
   174    33    31   ar
   175    56    55    2
   176    58    52   am
   177    55    54    1
   178    32    30   ar
   179    52    53    2
   180    52    51    1
   181    31    30   ar
   182    30    29    1
   183    54    51    1
   184    51    50    1
   185    29    26    1
   186    25    26    1
   187    26    27    1
   188    27    28    2
