@<TRIPOS>MOLECULE
tmp/6bo7A00.pdb
 182 176 0 0 0
SMALL
GASTEIGER

@<TRIPOS>ATOM
      1  N        -12.6140   30.6120 -108.8720 N.3    77  LEU77      -0.1231
      2  CA       -11.6980   29.6460 -109.4590 C.3    77  LEU77       0.1693
      3  C        -10.2530   30.1010 -109.2900 C.2    77  LEU77       0.2592
      4  O         -9.7200   30.8450 -110.1150 O.2    77  LEU77      -0.2718
      5  CB       -12.0200   29.4250 -110.9390 C.3    77  LEU77       0.0284
      6  CG       -12.9730   28.2730 -111.2790 C.3    77  LEU77       0.0019
      7  CD1      -14.2980   28.4090 -110.5480 C.3    77  LEU77       0.0001
      8  CD2      -13.2050   28.1990 -112.7810 C.3    77  LEU77       0.0001
      9  N         -9.6370   29.6530 -108.2010 N.am   78  LEU78      -0.1966
     10  CA        -8.2540   29.9860 -107.8880 C.3    78  LEU78       0.1728
     11  C         -7.2900   29.4450 -108.9500 C.2    78  LEU78       0.2616
     12  O         -7.5320   28.3820 -109.5330 O.2    78  LEU78      -0.2715
     13  CB        -7.8900   29.4380 -106.5070 C.3    78  LEU78       0.0311
     14  CG        -8.5980   30.0910 -105.3200 C.3    78  LEU78       0.0022
     15  CD1       -8.1950   29.4060 -104.0200 C.3    78  LEU78       0.0001
     16  CD2       -8.2810   31.5750 -105.2710 C.3    78  LEU78       0.0001
     17  N         -6.1940   30.1650 -109.1940 N.am   79  LYS79      -0.1963
     18  CA        -5.8940   31.3970 -108.4750 C.3    79  LYS79       0.1728
     19  C         -5.8410   32.6010 -109.4190 C.2    79  LYS79       0.2616
     20  O         -5.3340   33.6650 -109.0540 O.2    79  LYS79      -0.2715
     21  CB        -4.5700   31.2690 -107.7150 C.3    79  LYS79       0.0311
     22  CG        -3.3860   30.9760 -108.6060 C.3    79  LYS79       0.0038
     23  CD        -2.0710   30.9260 -107.8440 C.3    79  LYS79       0.0206
     24  CE        -1.9970   29.7440 -106.9120 C.3    79  LYS79       0.1093
     25  NZ        -0.6230   29.5990 -106.3610 N.3    79  LYS79      -0.1314
     26  N         -6.3740   32.4370 -110.6240 N.am   80  GLY80      -0.1955
     27  CA        -6.3500   33.4950 -111.6180 C.3    80  GLY80       0.1869
     28  C         -7.5480   34.4230 -111.5310 C.2    80  GLY80       0.2309
     29  O         -7.5390   35.5260 -112.0800 O.2    80  GLY80      -0.2863
     30  N        -10.1740   25.0040 -106.7100 N.3   114  ARG114     -0.1231
     31  CA        -9.0860   25.0160 -107.6780 C.3   114  ARG114      0.1694
     32  C         -9.2650   23.8780 -108.6700 C.2   114  ARG114      0.2591
     33  O         -9.3110   22.7070 -108.2960 O.2   114  ARG114     -0.2718
     34  CB        -7.7150   24.9120 -107.0200 C.3   114  ARG114      0.0321
     35  CG        -6.6260   24.8620 -108.0790 C.3   114  ARG114      0.0489
     36  CD        -5.3360   25.5360 -107.6720 C.3   114  ARG114      0.2205
     37  NE        -4.5680   25.8990 -108.8610 N.pl3 114  ARG114     -0.0865
     38  CZ        -3.3730   26.4780 -108.8400 C.cat 114  ARG114      0.5346
     39  NH1       -2.7830   26.7390 -107.6820 N.pl3 114  ARG114      0.1354
     40  NH2       -2.7590   26.7760 -109.9790 N.pl3 114  ARG114      0.1354
     41  N         -9.3470   24.2390 -109.9430 N.am  115  VAL115     -0.1980
     42  CA        -9.6170   23.2860 -111.0090 C.3   115  VAL115      0.1595
     43  C         -8.4020   23.1110 -111.9170 C.2   115  VAL115      0.2287
     44  O         -7.8080   24.0890 -112.3780 O.2   115  VAL115     -0.2864
     45  CB       -10.8370   23.7150 -111.8380 C.3   115  VAL115      0.0276
     46  CG1      -11.2000   22.6320 -112.8300 C.3   115  VAL115      0.0022
     47  CG2      -12.0160   23.9900 -110.9210 C.3   115  VAL115      0.0022
     48  N        -14.8730   33.0610 -113.4120 N.3   136  GLU136     -0.1231
     49  CA       -13.6670   32.6480 -114.1160 C.3   136  GLU136      0.1699
     50  C        -12.9810   33.8610 -114.7250 C.2   136  GLU136      0.2592
     51  O        -13.6410   34.7780 -115.2120 O.2   136  GLU136     -0.2718
     52  CB       -13.9980   31.6070 -115.1910 C.3   136  GLU136      0.0402
     53  CG       -12.8230   31.1620 -116.0780 C.3   136  GLU136      0.1161
     54  CD       -11.8240   30.2350 -115.3760 C.2   136  GLU136      0.3649
     55  OE1      -11.4590   30.4920 -114.2080 O.co2 136  GLU136     -0.2457
     56  OE2      -11.4040   29.2320 -115.9970 O.co2 136  GLU136     -0.2457
     57  N        -11.6530   33.8660 -114.6860 N.am  137  ASP137     -0.1960
     58  CA       -10.8820   34.9870 -115.1990 C.3   137  ASP137      0.1840
     59  C        -10.9030   35.0320 -116.7250 C.2   137  ASP137      0.2622
     60  O        -11.0640   36.0960 -117.3240 O.2   137  ASP137     -0.2715
     61  CB        -9.4360   34.9150 -114.6980 C.3   137  ASP137      0.1450
     62  CG        -8.7510   33.6140 -115.0680 C.2   137  ASP137      0.3671
     63  OD1       -9.4480   32.5840 -115.1840 O.co2 137  ASP137     -0.2456
     64  OD2       -7.5130   33.6220 -115.2460 O.co2 137  ASP137     -0.2456
     65  N        -10.7490   33.8730 -117.3530 N.am  138  ILE138     -0.1963
     66  CA       -10.6120   33.8270 -118.7980 C.3   138  ILE138      0.1727
     67  C        -11.0800   32.5030 -119.4150 C.2   138  ILE138      0.2616
     68  O        -10.8480   31.4180 -118.8690 O.2   138  ILE138     -0.2715
     69  CB        -9.1420   34.1050 -119.1880 C.3   138  ILE138      0.0290
     70  CG1       -8.9760   34.1850 -120.7020 C.3   138  ILE138      0.0022
     71  CG2       -8.2140   33.0490 -118.6180 C.3   138  ILE138      0.0023
     72  CD1       -7.5760   34.5630 -121.1140 C.3   138  ILE138      0.0001
     73  N        -11.7490   32.6050 -120.5610 N.am  139  ILE139     -0.1963
     74  CA       -12.1490   31.4310 -121.3220 C.3   139  ILE139      0.1727
     75  C        -11.3600   31.3610 -122.6180 C.2   139  ILE139      0.2616
     76  O        -11.4120   32.2790 -123.4370 O.2   139  ILE139     -0.2715
     77  CB       -13.6530   31.4200 -121.6490 C.3   139  ILE139      0.0290
     78  CG1      -14.4750   31.1680 -120.3880 C.3   139  ILE139      0.0022
     79  CG2      -13.9680   30.3240 -122.6470 C.3   139  ILE139      0.0023
     80  CD1      -15.9680   31.1760 -120.6330 C.3   139  ILE139      0.0001
     81  N        -10.6240   30.2660 -122.7830 N.am  140  ASP140     -0.1957
     82  CA        -9.8040   30.0430 -123.9640 C.3   140  ASP140      0.1840
     83  C        -10.4710   29.0240 -124.8780 C.2   140  ASP140      0.2623
     84  O        -11.0960   29.3860 -125.8760 O.2   140  ASP140     -0.2715
     85  CB        -8.4110   29.5580 -123.5540 C.3   140  ASP140      0.1450
     86  CG        -7.4420   29.4900 -124.7170 C.2   140  ASP140      0.3671
     87  OD1       -7.8040   29.9220 -125.8330 O.co2 140  ASP140     -0.2456
     88  OD2       -6.3140   28.9910 -124.5130 O.co2 140  ASP140     -0.2456
     89  N        -10.3270   27.7480 -124.5330 N.am  141  THR141     -0.1937
     90  CA       -10.9240   26.6660 -125.3100 C.3   141  THR141      0.2028
     91  C        -12.2760   26.2540 -124.7440 C.2   141  THR141      0.2643
     92  O        -13.1000   25.6720 -125.4490 O.2   141  THR141     -0.2714
     93  CB       -10.0140   25.4260 -125.3620 C.3   141  THR141      0.1808
     94  OG1       -9.7940   24.9320 -124.0340 O.3   141  THR141     -0.2208
     95  CG2       -8.6820   25.7680 -126.0120 C.3   141  THR141      0.0379
     96  N        -12.5010   26.5600 -123.4700 N.am  142  GLY142     -0.1939
     97  CA       -13.7570   26.2340 -122.8220 C.3   142  GLY142      0.2014
     98  C        -13.8210   24.8170 -122.2780 C.2   142  GLY142      0.2639
     99  O        -14.8750   24.3720 -121.8240 O.2   142  GLY142     -0.2714
    100  N        -12.7030   24.0980 -122.3220 N.am  143  LYS143     -0.1963
    101  CA       -12.6850   22.7270 -121.8270 C.3   143  LYS143      0.1728
    102  C        -12.8690   22.6660 -120.3120 C.2   143  LYS143      0.2617
    103  O        -13.6450   21.8530 -119.8100 O.2   143  LYS143     -0.2715
    104  CB       -11.3790   22.0160 -122.2100 C.3   143  LYS143      0.0311
    105  CG       -11.1990   21.7140 -123.6940 C.3   143  LYS143      0.0038
    106  CD        -9.8610   21.0210 -123.9480 C.3   143  LYS143      0.0206
    107  CE        -9.6470   20.7090 -125.4250 C.3   143  LYS143      0.1093
    108  NZ        -9.2510   21.9010 -126.2240 N.3   143  LYS143     -0.1314
    109  N        -12.1620   23.5310 -119.5890 N.am  144  THR144     -0.1937
    110  CA       -12.2020   23.5170 -118.1300 C.3   144  THR144      0.2028
    111  C        -13.6060   23.7620 -117.5870 C.2   144  THR144      0.2642
    112  O        -14.0800   23.0280 -116.7180 O.2   144  THR144     -0.2714
    113  CB       -11.2580   24.5780 -117.5290 C.3   144  THR144      0.1808
    114  OG1       -9.9200   24.3470 -117.9830 O.3   144  THR144     -0.2208
    115  CG2      -11.2920   24.5200 -116.0120 C.3   144  THR144      0.0379
    116  N        -14.2780   24.7770 -118.1200 N.am  145  LEU145     -0.1977
    117  CA       -15.6010   25.1470 -117.6330 C.3   145  LEU145      0.1596
    118  C        -16.6650   24.1440 -118.0630 C.2   145  LEU145      0.2287
    119  O        -17.6750   23.9740 -117.3830 O.2   145  LEU145     -0.2864
    120  CB       -15.9780   26.5540 -118.1010 C.3   145  LEU145      0.0297
    121  CG       -15.2230   27.7210 -117.4460 C.3   145  LEU145      0.0022
    122  CD1      -13.8850   28.0090 -118.1350 C.3   145  LEU145      0.0001
    123  CD2      -16.0910   28.9690 -117.4110 C.3   145  LEU145      0.0001
    124  N        -11.2490   34.8010 -125.0670 N.3   168  LYS168     -0.1245
    125  CA       -10.2970   34.8780 -126.1670 C.3   168  LYS168      0.1561
    126  C        -10.9260   34.3760 -127.4570 C.2   168  LYS168      0.2260
    127  O        -11.6380   33.3690 -127.4630 O.2   168  LYS168     -0.2867
    128  CB        -9.0390   34.0740 -125.8530 C.3   168  LYS168      0.0271
    129  CG        -8.2240   34.6110 -124.6960 C.3   168  LYS168      0.0035
    130  CD        -6.9590   33.7870 -124.5110 C.3   168  LYS168      0.0206
    131  CE        -6.0500   33.8690 -125.7260 C.3   168  LYS168      0.1093
    132  NZ        -4.7920   33.0960 -125.5090 N.3   168  LYS168     -0.1314
    133  N         -4.1010   36.1150 -128.2320 N.3   188  ALA188     -0.1231
    134  CA        -2.7200   36.3410 -127.8250 C.3   188  ALA188      0.1694
    135  C         -2.5510   36.0300 -126.3460 C.2   188  ALA188      0.2592
    136  O         -3.5030   36.1430 -125.5720 O.2   188  ALA188     -0.2718
    137  CB        -2.3050   37.7690 -128.1140 C.3   188  ALA188      0.0304
    138  N         -1.3420   35.6430 -125.9480 N.am  189  PHE189     -0.1962
    139  CA        -1.1030   35.2930 -124.5530 C.3   189  PHE189      0.1771
    140  C         -0.9830   36.5540 -123.7050 C.2   189  PHE189      0.2619
    141  O         -0.0450   37.3420 -123.8570 O.2   189  PHE189     -0.2715
    142  CB         0.1530   34.4310 -124.4060 C.3   189  PHE189      0.0574
    143  CG         0.2840   33.7890 -123.0550 C.ar  189  PHE189     -0.0200
    144  CD1       -0.4430   32.6520 -122.7400 C.ar  189  PHE189     -0.0042
    145  CD2        1.1150   34.3390 -122.0910 C.ar  189  PHE189     -0.0042
    146  CE1       -0.3330   32.0650 -121.4940 C.ar  189  PHE189     -0.0003
    147  CE2        1.2300   33.7600 -120.8420 C.ar  189  PHE189     -0.0003
    148  CZ         0.5040   32.6200 -120.5420 C.ar  189  PHE189     -0.0000
    149  N         -1.9350   36.7320 -122.7980 N.am  190  VAL190     -0.1977
    150  CA        -1.9820   37.9340 -121.9820 C.3   190  VAL190      0.1596
    151  C         -1.5870   37.6490 -120.5410 C.2   190  VAL190      0.2287
    152  O         -1.7620   36.5400 -120.0440 O.2   190  VAL190     -0.2864
    153  CB        -3.3850   38.5690 -122.0020 C.3   190  VAL190      0.0276
    154  CG1       -3.7080   39.0990 -123.3900 C.3   190  VAL190      0.0022
    155  CG2       -4.4310   37.5570 -121.5480 C.3   190  VAL190      0.0022
    156  N         -3.5390   37.0880 -113.9790 N.3   195  LEU195     -0.1231
    157  CA        -3.2330   36.1440 -115.0550 C.3   195  LEU195      0.1693
    158  C         -1.7240   35.9880 -115.1990 C.2   195  LEU195      0.2592
    159  O         -1.0040   36.9760 -115.3110 O.2   195  LEU195     -0.2718
    160  CB        -3.8550   36.6050 -116.3740 C.3   195  LEU195      0.0284
    161  CG        -5.2980   36.1700 -116.6500 C.3   195  LEU195      0.0019
    162  CD1       -6.2690   36.7860 -115.6530 C.3   195  LEU195      0.0001
    163  CD2       -5.6940   36.5460 -118.0690 C.3   195  LEU195      0.0001
    164  N         -1.2500   34.7460 -115.2040 N.am  196  ASP196     -0.1974
    165  CA         0.1770   34.4720 -115.0450 C.3   196  ASP196      0.1709
    166  C          0.8530   33.7650 -116.2110 C.2   196  ASP196      0.2293
    167  O          0.2000   33.1820 -117.0770 O.2   196  ASP196     -0.2864
    168  CB         0.4090   33.6240 -113.7930 C.3   196  ASP196      0.1436
    169  CG        -0.0950   32.2030 -113.9530 C.2   196  ASP196      0.3671
    170  OD1       -1.1810   32.0140 -114.5380 O.co2 196  ASP196     -0.2456
    171  OD2        0.6070   31.2700 -113.5120 O.co2 196  ASP196     -0.2456
    172  N          1.5460   38.0690 -112.1330 N.3   202  ARG202     -0.1245
    173  CA         0.2330   38.1190 -111.4880 C.3   202  ARG202      0.1563
    174  C         -0.0400   39.4840 -110.8620 C.2   202  ARG202      0.2260
    175  O         -1.1810   39.9560 -110.8540 O.2   202  ARG202     -0.2867
    176  CB         0.1030   37.0390 -110.4120 C.3   202  ARG202      0.0307
    177  CG        -0.0820   35.6320 -110.9430 C.3   202  ARG202      0.0489
    178  CD        -0.5880   34.6990 -109.8600 C.3   202  ARG202      0.2205
    179  NE        -0.5580   33.3030 -110.2810 N.pl3 202  ARG202     -0.0865
    180  CZ        -1.5370   32.7020 -110.9490 C.cat 202  ARG202      0.5346
    181  NH1       -2.6290   33.3790 -111.2870 N.pl3 202  ARG202      0.1354
    182  NH2       -1.4200   31.4240 -111.2850 N.pl3 202  ARG202      0.1354
@<TRIPOS>BOND
     1   133   134    1
     2   137   134    1
     3   134   135    1
     4   127   126    2
     5   126   125    1
     6   135   138   am
     7   135   136    2
     8   108   107    1
     9   125   128    1
    10   125   124    1
    11    95    93    1
    12   138   139    1
    13    84    83    2
    14   128   129    1
    15    87    86   ar
    16   131   132    1
    17   131   130    1
    18    92    91    2
    19   107   106    1
    20    93    90    1
    21    93    94    1
    22    90    91    1
    23    90    89    1
    24    83    89   am
    25    83    82    1
    26    91    96   am
    27    86    88   ar
    28    86    85    1
    29   129   130    1
    30   139   142    1
    31   139   140    1
    32   142   143    1
    33    82    85    1
    34    82    81    1
    35   106   105    1
    36   141   140    2
    37   140   149   am
    38   105   104    1
    39    96    97    1
    40    76    75    2
    41   154   153    1
    42   143   144   ar
    43   143   145   ar
    44    97    98    1
    45   149   150    1
    46    81    75   am
    47   144   146   ar
    48    79    77    1
    49    75    74    1
    50   100    98   am
    51   100   101    1
    52    98    99    2
    53   104   101    1
    54   145   147   ar
    55   153   150    1
    56   153   155    1
    57   150   151    1
    58   101   102    1
    59    77    74    1
    60    77    78    1
    61   146   148   ar
    62    74    73    1
    63    72    70    1
    64   147   148   ar
    65    70    69    1
    66    80    78    1
    67    73    67   am
    68   151   152    2
    69   102   103    2
    70   102   109   am
    71   109   110    1
    72    67    68    2
    73    67    66    1
    74    69    66    1
    75    69    71    1
    76    66    65    1
    77   122   121    1
    78   110   111    1
    79   110   113    1
    80   116   117    1
    81   116   111   am
    82   120   117    1
    83   120   121    1
    84   163   161    1
    85   118   117    1
    86   118   119    2
    87   114   113    1
    88   111   112    2
    89   113   115    1
    90   121   123    1
    91    65    59   am
    92    60    59    2
    93   167   166    2
    94    59    58    1
    95   161   160    1
    96   161   162    1
    97   160   157    1
    98   166   165    1
    99    53    54    1
   100    53    52    1
   101    56    54   ar
   102    54    55   ar
   103   159   158    2
   104    64    62   ar
   105    51    50    2
   106   164   158   am
   107   164   165    1
   108   158   157    1
   109    58    61    1
   110    58    57    1
   111    52    49    1
   112    63    62   ar
   113    62    61    1
   114   157   156    1
   115   165   168    1
   116    50    57   am
   117    50    49    1
   118   170   169   ar
   119    49    48    1
   120   169   168    1
   121   169   171   ar
   122    46    45    1
   123     8     6    1
   124    44    43    2
   125   172   173    1
   126    29    28    2
   127    43    42    1
   128    45    42    1
   129    45    47    1
   130    27    28    1
   131    27    26    1
   132   173   174    1
   133   173   176    1
   134   181   180    1
   135   182   180    1
   136     6     5    1
   137     6     7    1
   138    42    41    1
   139   180   179    2
   140   177   176    1
   141   177   178    1
   142     5     2    1
   143   174   175    2
   144    26    19   am
   145   179   178    1
   146     4     3    2
   147    40    38    1
   148    41    32   am
   149    12    11    2
   150     2     3    1
   151     2     1    1
   152    19    20    2
   153    19    18    1
   154     3     9   am
   155    17    11   am
   156    17    18    1
   157    11    10    1
   158    37    38    2
   159    37    36    1
   160    38    39    1
   161    32    33    2
   162    32    31    1
   163    22    23    1
   164    22    21    1
   165    18    21    1
   166     9    10    1
   167    35    36    1
   168    35    34    1
   169    10    13    1
   170    23    24    1
   171    31    34    1
   172    31    30    1
   173    24    25    1
   174    13    14    1
   175    14    16    1
   176    14    15    1
