@<TRIPOS>MOLECULE
tmp/6bo7F00.pdb
 189 182 0 0 0
SMALL
GASTEIGER

@<TRIPOS>ATOM
      1  N          7.8570  -26.7710  -67.6700 N.3    76  LEU76      -0.1231
      2  CA         7.0470  -26.8350  -66.4610 C.3    76  LEU76       0.1693
      3  C          5.5750  -26.9990  -66.8100 C.2    76  LEU76       0.2592
      4  O          4.8560  -26.0210  -67.0190 O.2    76  LEU76      -0.2718
      5  CB         7.2710  -25.5930  -65.5980 C.3    76  LEU76       0.0284
      6  CG         8.3530  -25.7550  -64.5260 C.3    76  LEU76       0.0019
      7  CD1        9.6740  -26.1910  -65.1300 C.3    76  LEU76       0.0001
      8  CD2        8.5290  -24.4610  -63.7510 C.3    76  LEU76       0.0001
      9  N          5.1440  -28.2560  -66.8700 N.am   77  LEU77      -0.1966
     10  CA         3.7720  -28.6080  -67.2090 C.3    77  LEU77       0.1728
     11  C          2.7770  -28.0620  -66.1850 C.2    77  LEU77       0.2616
     12  O          3.0960  -27.9550  -64.9990 O.2    77  LEU77      -0.2715
     13  CB         3.6450  -30.1320  -67.3220 C.3    77  LEU77       0.0311
     14  CG         4.4060  -30.7460  -68.5020 C.3    77  LEU77       0.0022
     15  CD1        4.2890  -32.2620  -68.5110 C.3    77  LEU77       0.0001
     16  CD2        3.9230  -30.1550  -69.8230 C.3    77  LEU77       0.0001
     17  N          1.5790  -27.7010  -66.6450 N.am   78  LYS78      -0.1963
     18  CA         1.2060  -27.8280  -68.0510 C.3    78  LYS78       0.1728
     19  C          0.9090  -26.4670  -68.6700 C.2    78  LYS78       0.2616
     20  O          0.3380  -26.3780  -69.7570 O.2    78  LYS78      -0.2715
     21  CB        -0.0110  -28.7390  -68.1960 C.3    78  LYS78       0.0311
     22  CG        -1.2230  -28.2360  -67.4420 C.3    78  LYS78       0.0038
     23  CD        -2.4360  -29.1360  -67.6160 C.3    78  LYS78       0.0206
     24  CE        -2.2390  -30.4830  -66.9360 C.3    78  LYS78       0.1093
     25  NZ        -3.5020  -31.2710  -66.9260 N.3    78  LYS78      -0.1314
     26  N          1.3140  -25.4070  -67.9820 N.am   79  GLY79      -0.1955
     27  CA         1.0470  -24.0610  -68.4480 C.3    79  GLY79       0.1869
     28  C          2.1320  -23.5290  -69.3580 C.2    79  GLY79       0.2309
     29  O          1.9250  -22.5570  -70.0810 O.2    79  GLY79      -0.2863
     30  N          6.5850  -31.7710  -63.4880 N.3   113  ARG113     -0.1231
     31  CA         5.3480  -31.1740  -62.9980 C.3   113  ARG113      0.1694
     32  C          5.4740  -30.6630  -61.5660 C.2   113  ARG113      0.2592
     33  O          5.7840  -31.4190  -60.6490 O.2   113  ARG113     -0.2718
     34  CB         4.2020  -32.1800  -63.0810 C.3   113  ARG113      0.0321
     35  CG         2.9020  -31.6580  -62.5050 C.3   113  ARG113      0.0489
     36  CD         2.3920  -30.4670  -63.2880 C.3   113  ARG113      0.2205
     37  NE         1.1750  -29.9050  -62.7050 N.pl3 113  ARG113     -0.0865
     38  CZ        -0.0590  -30.2850  -63.0210 C.cat 113  ARG113      0.5346
     39  NH1       -0.2570  -31.2380  -63.9230 N.pl3 113  ARG113      0.1354
     40  NH2       -1.0990  -29.7090  -62.4310 N.pl3 113  ARG113      0.1354
     41  N          5.2330  -29.3680  -61.3860 N.am  114  VAL114     -0.1966
     42  CA         5.3570  -28.7250  -60.0820 C.3   114  VAL114      0.1727
     43  C          4.0060  -28.2490  -59.5530 C.2   114  VAL114      0.2616
     44  O          3.2980  -27.5000  -60.2330 O.2   114  VAL114     -0.2715
     45  CB         6.3150  -27.5220  -60.1320 C.3   114  VAL114      0.0290
     46  CG1        6.5080  -26.9470  -58.7410 C.3   114  VAL114      0.0023
     47  CG2        7.6510  -27.9250  -60.7350 C.3   114  VAL114      0.0023
     48  N          3.6610  -28.6680  -58.3370 N.am  115  LYS115     -0.1963
     49  CA         2.4110  -28.2610  -57.6980 C.3   115  LYS115      0.1728
     50  C          2.7060  -27.5270  -56.4020 C.2   115  LYS115      0.2616
     51  O          3.7780  -27.6920  -55.8350 O.2   115  LYS115     -0.2715
     52  CB         1.5310  -29.4680  -57.3920 C.3   115  LYS115      0.0311
     53  CG         1.1630  -30.3130  -58.5840 C.3   115  LYS115      0.0038
     54  CD         0.4120  -31.5470  -58.1230 C.3   115  LYS115      0.0206
     55  CE         0.0770  -32.4530  -59.2860 C.3   115  LYS115      0.1093
     56  NZ        -0.5780  -33.7110  -58.8300 N.3   115  LYS115     -0.1314
     57  N          1.7650  -26.7100  -55.9400 N.am  116  SER116     -0.1950
     58  CA         1.9350  -26.0050  -54.6720 C.3   116  SER116      0.1924
     59  C          0.8430  -26.3770  -53.6700 C.2   116  SER116      0.2314
     60  O          0.1270  -27.3630  -53.8520 O.2   116  SER116     -0.2863
     61  CB         1.9660  -24.4950  -54.8960 C.3   116  SER116      0.2116
     62  OG         3.0800  -24.1320  -55.6930 O.3   116  SER116     -0.2180
     63  N          9.3330  -21.3860  -67.7800 N.3   136  GLU136     -0.1231
     64  CA         8.1320  -21.1730  -66.9790 C.3   136  GLU136      0.1699
     65  C          7.1650  -20.2100  -67.6530 C.2   136  GLU136      0.2592
     66  O          7.5750  -19.2440  -68.2950 O.2   136  GLU136     -0.2718
     67  CB         8.5110  -20.6560  -65.5830 C.3   136  GLU136      0.0402
     68  CG         7.3400  -20.2850  -64.6660 C.3   136  GLU136      0.1161
     69  CD         6.5930  -21.4920  -64.1030 C.2   136  GLU136      0.3649
     70  OE1        6.3350  -22.4630  -64.8500 O.co2 136  GLU136     -0.2457
     71  OE2        6.2570  -21.4710  -62.8970 O.co2 136  GLU136     -0.2457
     72  N          5.8750  -20.4950  -67.5100 N.am  137  ASP137     -0.1960
     73  CA         4.8290  -19.6910  -68.1260 C.3   137  ASP137      0.1840
     74  C          4.6370  -18.3330  -67.4570 C.2   137  ASP137      0.2621
     75  O          4.5310  -17.3160  -68.1400 O.2   137  ASP137     -0.2715
     76  CB         3.5070  -20.4720  -68.1200 C.3   137  ASP137      0.1450
     77  CG         3.1060  -20.9530  -66.7290 C.2   137  ASP137      0.3671
     78  OD1        4.0030  -21.2080  -65.8960 O.co2 137  ASP137     -0.2456
     79  OD2        1.8900  -21.0980  -66.4760 O.co2 137  ASP137     -0.2456
     80  N          4.6120  -18.3120  -66.1270 N.am  138  ILE138     -0.1977
     81  CA         4.3170  -17.0830  -65.3970 C.3   138  ILE138      0.1596
     82  C          4.9240  -17.0640  -63.9930 C.2   138  ILE138      0.2287
     83  O          4.9740  -18.0860  -63.3040 O.2   138  ILE138     -0.2864
     84  CB         2.7850  -16.8500  -65.2990 C.3   138  ILE138      0.0276
     85  CG1        2.4790  -15.4740  -64.7020 C.3   138  ILE138      0.0022
     86  CG2        2.1030  -17.9600  -64.5100 C.3   138  ILE138      0.0022
     87  CD1        1.0050  -15.1330  -64.6810 C.3   138  ILE138      0.0001
     88  N          4.3710  -15.1510  -60.4130 N.3   140  ASP140     -0.1225
     89  CA         3.4950  -14.2830  -59.6350 C.3   140  ASP140      0.1805
     90  C          4.2180  -13.8740  -58.3630 C.2   140  ASP140      0.2598
     91  O          4.7310  -12.7620  -58.2620 O.2   140  ASP140     -0.2718
     92  CB         2.1650  -14.9740  -59.3140 C.3   140  ASP140      0.1424
     93  CG         1.1550  -14.0370  -58.6690 C.2   140  ASP140      0.3668
     94  OD1        1.4480  -12.8300  -58.5450 O.co2 140  ASP140     -0.2456
     95  OD2        0.0560  -14.5060  -58.3020 O.co2 140  ASP140     -0.2456
     96  N          4.2690  -14.7870  -57.4000 N.am  141  THR141     -0.1939
     97  CA         4.9260  -14.5180  -56.1280 C.3   141  THR141      0.2028
     98  C          6.3900  -14.9490  -56.1640 C.2   141  THR141      0.2643
     99  O          7.1920  -14.4780  -55.3640 O.2   141  THR141     -0.2714
    100  CB         4.2180  -15.2280  -54.9590 C.3   141  THR141      0.1808
    101  OG1        4.2170  -16.6420  -55.1820 O.3   141  THR141     -0.2208
    102  CG2        2.7840  -14.7380  -54.8300 C.3   141  THR141      0.0379
    103  N          6.7320  -15.8470  -57.0840 N.am  142  GLY142     -0.1939
    104  CA         8.1080  -16.2890  -57.2440 C.3   142  GLY142      0.2014
    105  C          8.4720  -17.3750  -56.2520 C.2   142  GLY142      0.2639
    106  O          9.6250  -17.8010  -56.1570 O.2   142  GLY142     -0.2714
    107  N          7.4640  -17.8200  -55.5120 N.am  143  LYS143     -0.1963
    108  CA         7.6250  -18.8340  -54.4830 C.3   143  LYS143      0.1728
    109  C          7.9520  -20.1930  -55.0940 C.2   143  LYS143      0.2617
    110  O          8.8510  -20.8910  -54.6270 O.2   143  LYS143     -0.2715
    111  CB         6.3460  -18.8910  -53.6470 C.3   143  LYS143      0.0311
    112  CG         6.1330  -17.6110  -52.8330 C.3   143  LYS143      0.0038
    113  CD         4.7960  -17.5750  -52.1010 C.3   143  LYS143      0.0206
    114  CE         4.5740  -18.7550  -51.1820 C.3   143  LYS143      0.1093
    115  NZ         3.2510  -18.6050  -50.5040 N.3   143  LYS143     -0.1314
    116  N          7.2170  -20.5510  -56.1430 N.am  144  THR144     -0.1937
    117  CA         7.3800  -21.8370  -56.8180 C.3   144  THR144      0.2028
    118  C          8.7620  -22.0220  -57.4420 C.2   144  THR144      0.2642
    119  O          9.3950  -23.0640  -57.2710 O.2   144  THR144     -0.2714
    120  CB         6.3180  -22.0190  -57.9180 C.3   144  THR144      0.1808
    121  OG1        5.0130  -21.9530  -57.3330 O.3   144  THR144     -0.2208
    122  CG2        6.4820  -23.3600  -58.6040 C.3   144  THR144      0.0379
    123  N          9.2310  -21.0090  -58.1600 N.am  145  LEU145     -0.1977
    124  CA        10.5080  -21.1120  -58.8570 C.3   145  LEU145      0.1596
    125  C         11.6860  -21.0410  -57.8890 C.2   145  LEU145      0.2287
    126  O         12.7430  -21.6110  -58.1510 O.2   145  LEU145     -0.2864
    127  CB        10.6340  -20.0220  -59.9270 C.3   145  LEU145      0.0297
    128  CG         9.7440  -20.1510  -61.1690 C.3   145  LEU145      0.0022
    129  CD1        8.3550  -19.5550  -60.9410 C.3   145  LEU145      0.0001
    130  CD2       10.4130  -19.5080  -62.3740 C.3   145  LEU145      0.0001
    131  N          4.2190  -11.0400  -63.2920 N.3   168  LYS168     -0.1245
    132  CA         3.1910  -10.1570  -62.7510 C.3   168  LYS168      0.1561
    133  C          3.7700   -9.1540  -61.7720 C.2   168  LYS168      0.2260
    134  O          4.6350   -9.4850  -60.9590 O.2   168  LYS168     -0.2867
    135  CB         2.0820  -10.9530  -62.0610 C.3   168  LYS168      0.0271
    136  CG         1.2730  -11.8340  -62.9880 C.3   168  LYS168      0.0035
    137  CD         0.1290  -12.5000  -62.2450 C.3   168  LYS168      0.0206
    138  CE        -0.8530  -11.4650  -61.7130 C.3   168  LYS168      0.1093
    139  NZ        -2.0150  -12.1030  -61.0270 N.3   168  LYS168     -0.1314
    140  N         -3.3410   -8.7580  -62.5200 N.3   188  ALA188     -0.1231
    141  CA        -4.6880   -9.2300  -62.8180 C.3   188  ALA188      0.1694
    142  C         -4.6210  -10.6650  -63.3080 C.2   188  ALA188      0.2592
    143  O         -3.6160  -11.0820  -63.8810 O.2   188  ALA188     -0.2718
    144  CB        -5.3570   -8.3400  -63.8500 C.3   188  ALA188      0.0304
    145  N         -5.6940  -11.4170  -63.0880 N.am  189  PHE189     -0.1962
    146  CA        -5.7210  -12.8250  -63.4640 C.3   189  PHE189      0.1771
    147  C         -5.9550  -13.0090  -64.9600 C.2   189  PHE189      0.2619
    148  O         -7.0050  -12.6370  -65.4880 O.2   189  PHE189     -0.2715
    149  CB        -6.7930  -13.5760  -62.6760 C.3   189  PHE189      0.0574
    150  CG        -6.6570  -15.0680  -62.7510 C.ar  189  PHE189     -0.0200
    151  CD1       -5.7230  -15.7270  -61.9710 C.ar  189  PHE189     -0.0042
    152  CD2       -7.4530  -15.8110  -63.6050 C.ar  189  PHE189     -0.0042
    153  CE1       -5.5870  -17.1010  -62.0370 C.ar  189  PHE189     -0.0003
    154  CE2       -7.3220  -17.1870  -63.6770 C.ar  189  PHE189     -0.0003
    155  CZ        -6.3880  -17.8320  -62.8910 C.ar  189  PHE189     -0.0000
    156  N         -4.9610  -13.5760  -65.6360 N.am  190  VAL190     -0.1977
    157  CA        -5.0220  -13.7670  -67.0770 C.3   190  VAL190      0.1596
    158  C         -5.1750  -15.2380  -67.4680 C.2   190  VAL190      0.2287
    159  O         -4.7440  -16.1360  -66.7440 O.2   190  VAL190     -0.2864
    160  CB        -3.7720  -13.1950  -67.7560 C.3   190  VAL190      0.0276
    161  CG1       -3.7430  -11.6810  -67.6080 C.3   190  VAL190      0.0022
    162  CG2       -2.5180  -13.8220  -67.1670 C.3   190  VAL190      0.0022
    163  N         -2.5000  -20.9480  -70.3300 N.3   195  LEU195     -0.1231
    164  CA        -2.7880  -20.4990  -68.9690 C.3   195  LEU195      0.1693
    165  C         -4.2750  -20.6690  -68.6640 C.2   195  LEU195      0.2592
    166  O         -5.1230  -20.2440  -69.4450 O.2   195  LEU195     -0.2718
    167  CB        -2.3560  -19.0480  -68.7660 C.3   195  LEU195      0.0284
    168  CG        -0.9000  -18.8360  -68.3420 C.3   195  LEU195      0.0019
    169  CD1        0.0690  -19.2540  -69.4400 C.3   195  LEU195      0.0001
    170  CD2       -0.6640  -17.3900  -67.9410 C.3   195  LEU195      0.0001
    171  N         -4.5860  -21.2910  -67.5280 N.am  196  ASP196     -0.1974
    172  CA        -5.9460  -21.7560  -67.2570 C.3   196  ASP196      0.1709
    173  C         -6.6240  -21.1110  -66.0560 C.2   196  ASP196      0.2293
    174  O         -5.9740  -20.5170  -65.1970 O.2   196  ASP196     -0.2864
    175  CB        -5.9460  -23.2660  -67.0320 C.3   196  ASP196      0.1436
    176  CG        -5.2860  -23.6510  -65.7240 C.2   196  ASP196      0.3671
    177  OD1       -4.2560  -23.0340  -65.3740 O.co2 196  ASP196     -0.2456
    178  OD2       -5.7990  -24.5610  -65.0380 O.co2 196  ASP196     -0.2456
    179  N         -7.4420  -22.8190  -71.7540 N.3   202  ARG202     -0.1245
    180  CA        -6.0720  -23.1250  -72.1670 C.3   202  ARG202      0.1563
    181  C         -5.9030  -23.0280  -73.6800 C.2   202  ARG202      0.2260
    182  O         -4.8590  -22.5980  -74.1730 O.2   202  ARG202     -0.2867
    183  CB        -5.6640  -24.5220  -71.7020 C.3   202  ARG202      0.0307
    184  CG        -5.3700  -24.6440  -70.2240 C.3   202  ARG202      0.0489
    185  CD        -4.6400  -25.9450  -69.9300 C.3   202  ARG202      0.2205
    186  NE        -4.5320  -26.2240  -68.5000 N.pl3 202  ARG202     -0.0865
    187  CZ        -3.5470  -25.7880  -67.7230 C.cat 202  ARG202      0.5346
    188  NH1       -2.5700  -25.0540  -68.2370 N.pl3 202  ARG202      0.1354
    189  NH2       -3.5330  -26.0940  -66.4330 N.pl3 202  ARG202      0.1354
@<TRIPOS>BOND
     1   182   181    2
     2   181   180    1
     3   180   179    1
     4   180   183    1
     5   183   184    1
     6   163   164    1
     7   184   185    1
     8    29    28    2
     9   185   186    1
    10    16    14    1
    11    20    19    2
    12   166   165    2
    13   169   168    1
    14    28    27    1
    15   164   167    1
    16   164   165    1
    17   167   168    1
    18    19    18    1
    19    19    26   am
    20   165   171   am
    21    15    14    1
    22    14    13    1
    23   186   187    2
    24    27    26    1
    25   168   170    1
    26    66    65    2
    27   188   187    1
    28    21    18    1
    29    21    22    1
    30    75    74    2
    31    73    76    1
    32    73    72    1
    33    73    74    1
    34    76    77    1
    35    18    17    1
    36    63    64    1
    37   160   161    1
    38   160   162    1
    39   160   157    1
    40   187   189    1
    41     1     2    1
    42    65    72   am
    43    65    64    1
    44    23    22    1
    45    23    24    1
    46   171   172    1
    47   158   157    1
    48   158   159    2
    49    74    80   am
    50    13    10    1
    51   172   175    1
    52   172   173    1
    53    10     9    1
    54    10    11    1
    55   157   156    1
    56   175   176    1
    57     4     3    2
    58    64    67    1
    59    24    25    1
    60     9     3   am
    61     3     2    1
    62    77    79   ar
    63    77    78   ar
    64    17    11   am
    65     2     5    1
    66    11    12    2
    67    80    81    1
    68   173   174    2
    69   176   177   ar
    70   176   178   ar
    71   156   147   am
    72     5     6    1
    73    67    68    1
    74   148   147    2
    75    81    84    1
    76    81    82    1
    77    84    85    1
    78    84    86    1
    79     7     6    1
    80   147   146    1
    81    70    69   ar
    82    85    87    1
    83    68    69    1
    84     6     8    1
    85    69    71   ar
    86    82    83    2
    87    39    38    1
    88   143   142    2
    89   144   141    1
    90   154   152   ar
    91   154   155   ar
    92   152   150   ar
    93    30    31    1
    94   146   145    1
    95   146   149    1
    96   142   145   am
    97   142   141    1
    98   131   132    1
    99    36    37    1
   100    36    35    1
   101    34    31    1
   102    34    35    1
   103    38    37    2
   104    38    40    1
   105    31    32    1
   106   136   137    1
   107   136   135    1
   108   155   153   ar
   109   141   140    1
   110   150   149    1
   111   150   151   ar
   112   132   135    1
   113   132   133    1
   114   130   128    1
   115   137   138    1
   116   153   151   ar
   117   133   134    2
   118   138   139    1
   119    32    41   am
   120    32    33    2
   121    41    42    1
   122   128   129    1
   123   128   127    1
   124    47    45    1
   125    88    89    1
   126    44    43    2
   127    45    42    1
   128    45    46    1
   129    42    43    1
   130   127   124    1
   131    89    92    1
   132    89    90    1
   133    43    48   am
   134    92    93    1
   135    55    56    1
   136    55    54    1
   137   124   123    1
   138   124   125    1
   139    93    94   ar
   140    93    95   ar
   141   122   120    1
   142    53    54    1
   143    53    52    1
   144    90    91    2
   145    90    96   am
   146    48    49    1
   147   123   118   am
   148   126   125    2
   149   120   121    1
   150   120   117    1
   151    49    52    1
   152    49    50    1
   153   118   119    2
   154   118   117    1
   155    96    97    1
   156   104   103    1
   157   104   105    1
   158   103    98   am
   159   117   116    1
   160    50    57   am
   161    50    51    2
   162   105   106    2
   163   105   107   am
   164    98    97    1
   165    98    99    2
   166   116   109   am
   167    97   100    1
   168    57    58    1
   169    62    61    1
   170   107   108    1
   171   101   100    1
   172   109   110    2
   173   109   108    1
   174   100   102    1
   175    61    58    1
   176    58    59    1
   177   108   111    1
   178    60    59    2
   179   111   112    1
   180   112   113    1
   181   113   114    1
   182   114   115    1
