@<TRIPOS>MOLECULE
tmp/6bodA00.pdb
 123 116 0 0 0
SMALL
GASTEIGER

@<TRIPOS>ATOM
      1  N        -19.4150  -13.2060    3.0130 N.3    16  LEU16      -0.1245
      2  CA       -20.7040  -13.8000    3.3400 C.3    16  LEU16       0.1561
      3  C        -20.7340  -15.3150    3.2090 C.2    16  LEU16       0.2260
      4  O        -21.5520  -15.9570    3.8710 O.2    16  LEU16      -0.2867
      5  CB       -21.8070  -13.2010    2.4530 C.3    16  LEU16       0.0270
      6  CG       -21.9070  -11.6730    2.4580 C.3    16  LEU16       0.0019
      7  CD1      -23.0430  -11.2010    1.5620 C.3    16  LEU16       0.0001
      8  CD2      -22.0820  -11.1480    3.8760 C.3    16  LEU16       0.0001
      9  N        -17.9990  -16.2950   -1.8060 N.3    24  VAL24      -0.1245
     10  CA       -19.0290  -15.2690   -1.9350 C.3    24  VAL24       0.1561
     11  C        -18.7500  -14.1540   -0.9350 C.2    24  VAL24       0.2260
     12  O        -18.7160  -14.3890    0.2790 O.2    24  VAL24      -0.2867
     13  CB       -20.4360  -15.8490   -1.7250 C.3    24  VAL24       0.0252
     14  CG1      -21.4600  -14.7300   -1.6000 C.3    24  VAL24       0.0019
     15  CG2      -20.7990  -16.7830   -2.8670 C.3    24  VAL24       0.0019
     16  N        -23.7400   -9.0950   -4.7970 N.3    37  ALA37      -0.1245
     17  CA       -23.1290  -10.3410   -4.3610 C.3    37  ALA37       0.1562
     18  C        -22.1800  -10.8400   -5.4410 C.2    37  ALA37       0.2260
     19  O        -22.4900  -10.7760   -6.6350 O.2    37  ALA37      -0.2867
     20  CB       -24.1900  -11.3990   -4.0660 C.3    37  ALA37       0.0290
     21  N        -19.5980  -14.0350   -6.5160 N.3    39  LYS39      -0.1245
     22  CA       -19.2020  -15.4290   -6.3310 C.3    39  LYS39       0.1561
     23  C        -17.9280  -15.6560   -7.1430 C.2    39  LYS39       0.2260
     24  O        -17.9780  -15.9610   -8.3350 O.2    39  LYS39      -0.2867
     25  CB       -20.3240  -16.3780   -6.7540 C.3    39  LYS39       0.0271
     26  CG       -20.1130  -17.8200   -6.3270 C.3    39  LYS39       0.0035
     27  CD       -21.3410  -18.6740   -6.5990 C.3    39  LYS39       0.0206
     28  CE       -21.1630  -20.0830   -6.0540 C.3    39  LYS39       0.1093
     29  NZ       -22.3680  -20.9300   -6.2760 N.3    39  LYS39      -0.1314
     30  N        -33.1700  -15.2100   -7.3440 N.3    60  VAL60      -0.1245
     31  CA       -32.0360  -14.3000   -7.2270 C.3    60  VAL60       0.1561
     32  C        -31.4490  -14.0880   -8.6150 C.2    60  VAL60       0.2260
     33  O        -30.8690  -15.0050   -9.2050 O.2    60  VAL60      -0.2867
     34  CB       -30.9770  -14.8350   -6.2450 C.3    60  VAL60       0.0252
     35  CG1      -29.7420  -13.9480   -6.2610 C.3    60  VAL60       0.0019
     36  CG2      -31.5540  -14.9130   -4.8420 C.3    60  VAL60       0.0019
     37  N        -24.2410  -11.1880   -8.5200 N.3    78  MET78      -0.1230
     38  CA       -25.6180  -11.5240   -8.1940 C.3    78  MET78       0.1702
     39  C        -26.2490  -10.3800   -7.4120 C.2    78  MET78       0.2592
     40  O        -25.5850   -9.4130   -7.0310 O.2    78  MET78      -0.2718
     41  CB       -25.7030  -12.8280   -7.3880 C.3    78  MET78       0.0401
     42  CG       -25.0340  -14.0170   -8.0550 C.3    78  MET78       0.0596
     43  SD       -25.2340  -15.5470   -7.1210 S.3    78  MET78      -0.1393
     44  CE       -24.4960  -15.0880   -5.5550 C.3    78  MET78       0.0692
     45  N        -27.5510  -10.5060   -7.1730 N.am   79  GLU79      -0.1966
     46  CA       -28.2880   -9.4970   -6.4270 C.3    79  GLU79       0.1733
     47  C        -28.0200   -9.6430   -4.9340 C.2    79  GLU79       0.2616
     48  O        -28.0080  -10.7530   -4.3950 O.2    79  GLU79      -0.2715
     49  CB       -29.7860   -9.6140   -6.7150 C.3    79  GLU79       0.0429
     50  CG       -30.6500   -8.6080   -5.9740 C.3    79  GLU79       0.1163
     51  CD       -32.0660   -8.5520   -6.5150 C.2    79  GLU79       0.3649
     52  OE1      -32.4370   -7.5210   -7.1160 O.co2  79  GLU79      -0.2457
     53  OE2      -32.8050   -9.5430   -6.3430 O.co2  79  GLU79      -0.2457
     54  N        -27.8030   -8.5110   -4.2690 N.am   80  PHE80      -0.1960
     55  CA       -27.4820   -8.4970   -2.8490 C.3    80  PHE80       0.1771
     56  C        -28.7580   -8.4530   -2.0180 C.2    80  PHE80       0.2620
     57  O        -29.6930   -7.7080   -2.3260 O.2    80  PHE80      -0.2715
     58  CB       -26.5910   -7.2990   -2.5150 C.3    80  PHE80       0.0574
     59  CG       -26.1530   -7.2480   -1.0800 C.ar   80  PHE80      -0.0200
     60  CD1      -25.2300   -8.1600   -0.5920 C.ar   80  PHE80      -0.0042
     61  CD2      -26.6570   -6.2870   -0.2200 C.ar   80  PHE80      -0.0042
     62  CE1      -24.8210   -8.1150    0.7270 C.ar   80  PHE80      -0.0003
     63  CE2      -26.2530   -6.2380    1.1020 C.ar   80  PHE80      -0.0003
     64  CZ       -25.3330   -7.1530    1.5750 C.ar   80  PHE80      -0.0000
     65  N        -28.7900   -9.2630   -0.9570 N.am   81  CYS81      -0.1954
     66  CA       -29.9460   -9.3770   -0.0680 C.3    81  CYS81       0.1828
     67  C        -29.5420   -8.9040    1.3220 C.2    81  CYS81       0.2467
     68  O        -29.0590   -9.6990    2.1430 O.2    81  CYS81      -0.2730
     69  CB       -30.4710  -10.8110   -0.0350 C.3    81  CYS81       0.0996
     70  SG       -30.8390  -11.4980   -1.6670 S.3    81  CYS81      -0.0797
     71  N        -29.7320   -7.6200    1.6340 N.am   82  PRO82      -0.2715
     72  CA       -29.2720   -7.1040    2.9350 C.3    82  PRO82       0.1536
     73  C        -29.9660   -7.7380    4.1290 C.2    82  PRO82       0.2599
     74  O        -29.3690   -7.8110    5.2110 O.2    82  PRO82      -0.2715
     75  CB       -29.5740   -5.6000    2.8420 C.3    82  PRO82       0.0310
     76  CG       -29.7420   -5.3180    1.3760 C.3    82  PRO82       0.0237
     77  CD       -30.3200   -6.5660    0.7920 C.3    82  PRO82       0.0939
     78  N        -31.2060   -8.2020    3.9690 N.am   83  CYS83      -0.1954
     79  CA       -31.9440   -8.7900    5.0790 C.3    83  CYS83       0.1843
     80  C        -31.5430  -10.2300    5.3690 C.2    83  CYS83       0.2626
     81  O        -32.0060  -10.7930    6.3680 O.2    83  CYS83      -0.2714
     82  CB       -33.4470   -8.7180    4.8040 C.3    83  CYS83       0.0997
     83  SG       -34.0900   -7.0330    4.7010 S.3    83  CYS83      -0.0797
     84  N        -30.7060  -10.8350    4.5370 N.am   84  GLY84      -0.1940
     85  CA       -30.2380  -12.1810    4.7890 C.3    84  GLY84       0.2014
     86  C        -31.1530  -13.2410    4.2060 C.2    84  GLY84       0.2639
     87  O        -31.9360  -13.0080    3.2800 O.2    84  GLY84      -0.2714
     88  N        -31.0420  -14.4370    4.7730 N.am   85  SER85      -0.1949
     89  CA       -31.7930  -15.5970    4.3170 C.3    85  SER85       0.1924
     90  C        -32.9640  -15.8820    5.2510 C.2    85  SER85       0.2314
     91  O        -33.1180  -15.2650    6.3080 O.2    85  SER85      -0.2863
     92  CB       -30.8760  -16.8200    4.2180 C.3    85  SER85       0.2116
     93  OG       -31.6300  -18.0130    4.1010 O.3    85  SER85      -0.2180
     94  N        -31.8920  -16.8190    8.5730 N.3    88  THR88      -0.1218
     95  CA       -31.6080  -15.6700    9.4270 C.3    88  THR88       0.1862
     96  C        -32.8850  -15.1160   10.0480 C.2    88  THR88       0.2287
     97  O        -32.8970  -14.7400   11.2270 O.2    88  THR88      -0.2866
     98  CB       -30.8870  -14.5860    8.6220 C.3    88  THR88       0.1770
     99  OG1      -29.5770  -15.0450    8.2640 O.3    88  THR88      -0.2211
    100  CG2      -30.7690  -13.2970    9.4270 C.3    88  THR88       0.0375
    101  N        -33.7170  -16.4770    0.1520 N.3   134  MET134     -0.1245
    102  CA       -33.2660  -15.1450    0.5250 C.3   134  MET134      0.1570
    103  C        -34.4510  -14.2050    0.7020 C.2   134  MET134      0.2261
    104  O        -35.5180  -14.4050    0.1170 O.2   134  MET134     -0.2867
    105  CB       -32.3100  -14.5820   -0.5290 C.3   134  MET134      0.0387
    106  CG       -31.1820  -15.5260   -0.9280 C.3   134  MET134      0.0595
    107  SD       -30.1870  -16.0970    0.4650 S.3   134  MET134     -0.1393
    108  CE       -29.8200  -14.5460    1.2840 C.3   134  MET134      0.0692
    109  N        -31.9790  -19.2720   -4.5580 N.3   148  THR148     -0.1203
    110  CA       -30.5970  -19.2320   -5.0090 C.3   148  THR148      0.1994
    111  C        -29.9430  -20.5720   -4.7060 C.2   148  THR148      0.2617
    112  O        -30.5290  -21.4400   -4.0540 O.2   148  THR148     -0.2717
    113  CB       -29.8180  -18.0910   -4.3450 C.3   148  THR148      0.1784
    114  OG1      -28.4970  -18.0260   -4.8980 O.3   148  THR148     -0.2211
    115  CG2      -29.7230  -18.3170   -2.8440 C.3   148  THR148      0.0376
    116  N        -28.7110  -20.7270   -5.1960 N.am  149  ASP149     -0.1973
    117  CA       -27.9010  -21.9300   -4.9960 C.3   149  ASP149      0.1709
    118  C        -28.6360  -23.1760   -5.5030 C.2   149  ASP149      0.2293
    119  O        -29.0510  -24.0520   -4.7420 O.2   149  ASP149     -0.2864
    120  CB       -27.5010  -22.0830   -3.5230 C.3   149  ASP149      0.1436
    121  CG       -26.0750  -21.6410   -3.2570 C.2   149  ASP149      0.3671
    122  OD1      -25.4020  -21.1890   -4.2080 O.co2 149  ASP149     -0.2456
    123  OD2      -25.6260  -21.7520   -2.0970 O.co2 149  ASP149     -0.2456
@<TRIPOS>BOND
     1    33    32    2
     2    32    31    1
     3    37    38    1
     4    24    23    2
     5    38    39    1
     6    38    41    1
     7    42    41    1
     8    42    43    1
     9    39    45   am
    10    39    40    2
    11    30    31    1
    12    31    34    1
    13    45    46    1
    14    23    22    1
    15    43    44    1
    16    52    51   ar
    17    25    22    1
    18    25    26    1
    19    49    46    1
    20    49    50    1
    21    19    18    2
    22    27    26    1
    23    27    28    1
    24    21    22    1
    25    51    53   ar
    26    51    50    1
    27    46    47    1
    28    29    28    1
    29    35    34    1
    30    34    36    1
    31   118   117    1
    32   118   119    2
    33    18    17    1
    34   116   117    1
    35   116   111   am
    36   110   111    1
    37   110   109    1
    38   110   113    1
    39   117   120    1
    40    47    48    2
    41    47    54   am
    42   114   113    1
    43    16    17    1
    44   111   112    2
    45    17    20    1
    46   113   115    1
    47    54    55    1
    48   122   121   ar
    49   120   121    1
    50   121   123   ar
    51    15    13    1
    52    55    58    1
    53    55    56    1
    54    58    59    1
    55    57    56    2
    56    56    65   am
    57    10     9    1
    58    10    13    1
    59    10    11    1
    60    13    14    1
    61    70    69    1
    62    59    60   ar
    63    59    61   ar
    64    65    66    1
    65    11    12    2
    66   106   105    1
    67   106   107    1
    68    60    62   ar
    69   105   102    1
    70    61    63   ar
    71    66    69    1
    72    66    67    1
    73   104   103    2
    74   101   102    1
    75   107   108    1
    76   102   103    1
    77    62    64   ar
    78    77    76    1
    79    77    71    1
    80    63    64   ar
    81    67    71   am
    82    67    68    2
    83    76    75    1
    84     7     6    1
    85    71    72    1
    86     5     6    1
    87     5     2    1
    88     6     8    1
    89    75    72    1
    90    72    73    1
    91     1     2    1
    92     3     2    1
    93     3     4    2
    94    87    86    2
    95    78    73   am
    96    78    79    1
    97    93    92    1
    98    73    74    2
    99    86    88   am
   100    86    85    1
   101    92    89    1
   102    89    88    1
   103    89    90    1
   104    84    85    1
   105    84    80   am
   106    83    82    1
   107    82    79    1
   108    79    80    1
   109    90    91    2
   110    80    81    2
   111    99    98    1
   112    94    95    1
   113    98    95    1
   114    98   100    1
   115    95    96    1
   116    96    97    2
