@<TRIPOS>MOLECULE
tmp/6boeA00.pdb
 141 133 0 0 0
SMALL
GASTEIGER

@<TRIPOS>ATOM
      1  N         -0.3840  -20.6480   -9.3720 N.3    15  ILE15      -0.1231
      2  CA         0.6410  -21.5770   -9.8340 C.3    15  ILE15       0.1692
      3  C          0.2070  -22.9960   -9.4980 C.2    15  ILE15       0.2592
      4  O         -0.2950  -23.2660   -8.3990 O.2    15  ILE15      -0.2718
      5  CB         2.0090  -21.2380   -9.2100 C.3    15  ILE15       0.0266
      6  CG1        3.0620  -22.2760   -9.6080 C.3    15  ILE15       0.0019
      7  CG2        1.9000  -21.1130   -7.6950 C.3    15  ILE15       0.0020
      8  CD1        3.3540  -22.3140  -11.0920 C.3    15  ILE15       0.0001
      9  N          0.3870  -23.9090  -10.4510 N.am   16  LEU16      -0.1966
     10  CA        -0.0290  -25.2910  -10.2530 C.3    16  LEU16       0.1728
     11  C          1.1570  -26.1720   -9.8800 C.2    16  LEU16       0.2616
     12  O          1.3440  -26.5060   -8.7060 O.2    16  LEU16      -0.2715
     13  CB        -0.7200  -25.8240  -11.5100 C.3    16  LEU16       0.0311
     14  CG        -1.9990  -25.0900  -11.9160 C.3    16  LEU16       0.0022
     15  CD1       -2.5620  -25.6610  -13.2070 C.3    16  LEU16       0.0001
     16  CD2       -3.0320  -25.1540  -10.8010 C.3    16  LEU16       0.0001
     17  N          1.9580  -26.5520  -10.8670 N.am   17  GLY17      -0.1955
     18  CA         3.1160  -27.4090  -10.6570 C.3    17  GLY17       0.1869
     19  C          4.4030  -26.6580  -10.9420 C.2    17  GLY17       0.2309
     20  O          4.5030  -25.9350  -11.9370 O.2    17  GLY17      -0.2863
     21  N          3.9170  -24.5420  -14.6150 N.3    20  VAL20      -0.1245
     22  CA         2.5770  -24.6400  -15.1840 C.3    20  VAL20       0.1561
     23  C          1.6390  -23.7740  -14.3540 C.2    20  VAL20       0.2260
     24  O          1.4780  -24.0000  -13.1480 O.2    20  VAL20      -0.2867
     25  CB         2.0820  -26.0940  -15.2350 C.3    20  VAL20       0.0252
     26  CG1        0.6850  -26.1550  -15.8310 C.3    20  VAL20       0.0019
     27  CG2        3.0470  -26.9520  -16.0380 C.3    20  VAL20       0.0019
     28  N         -2.2920  -21.9390  -13.9260 N.3    22  ARG22      -0.1245
     29  CA        -3.7170  -22.0580  -14.2140 C.3    22  ARG22       0.1563
     30  C         -4.1580  -20.8050  -14.9630 C.2    22  ARG22       0.2260
     31  O         -4.2710  -19.7260  -14.3720 O.2    22  ARG22      -0.2867
     32  CB        -4.4910  -22.2440  -12.9110 C.3    22  ARG22       0.0307
     33  CG        -5.9850  -21.9590  -12.9680 C.3    22  ARG22       0.0489
     34  CD        -6.5030  -21.6860  -11.5600 C.3    22  ARG22       0.2205
     35  NE        -7.8990  -21.2610  -11.5300 N.pl3  22  ARG22      -0.0865
     36  CZ        -8.8920  -21.9970  -11.0390 C.cat  22  ARG22       0.5346
     37  NH1       -8.6440  -23.1980  -10.5330 N.pl3  22  ARG22       0.1354
     38  NH2      -10.1330  -21.5320  -11.0490 N.pl3  22  ARG22       0.1354
     39  N         -4.3940  -25.3120  -18.8190 N.3    33  ALA33      -0.1245
     40  CA        -3.1100  -25.4890  -18.1510 C.3    33  ALA33       0.1562
     41  C         -2.0250  -24.9300  -19.0610 C.2    33  ALA33       0.2260
     42  O         -1.7480  -25.4910  -20.1260 O.2    33  ALA33      -0.2867
     43  CB        -2.8600  -26.9590  -17.8300 C.3    33  ALA33       0.0290
     44  N         -3.5180  -36.4130  -21.4520 N.3    55  VAL55      -0.1245
     45  CA        -3.8030  -34.9840  -21.3830 C.3    55  VAL55       0.1561
     46  C         -3.6190  -34.3790  -22.7680 C.2    55  VAL55       0.2260
     47  O         -2.5020  -34.3320  -23.2950 O.2    55  VAL55      -0.2867
     48  CB        -2.9120  -34.2800  -20.3430 C.3    55  VAL55       0.0252
     49  CG1       -3.0770  -32.7730  -20.4420 C.3    55  VAL55       0.0019
     50  CG2       -3.2580  -34.7580  -18.9440 C.3    55  VAL55       0.0019
     51  N         -2.3170  -26.7240  -22.7050 N.3    73  MET73      -0.1230
     52  CA        -2.7130  -28.0910  -22.4020 C.3    73  MET73       0.1702
     53  C         -4.0290  -28.1070  -21.6310 C.2    73  MET73       0.2592
     54  O         -4.5110  -27.0800  -21.1440 O.2    73  MET73      -0.2718
     55  CB        -1.6310  -28.8140  -21.5890 C.3    73  MET73       0.0401
     56  CG        -0.2680  -28.8580  -22.2510 C.3    73  MET73       0.0596
     57  SD         0.9080  -29.8510  -21.3120 S.3    73  MET73      -0.1393
     58  CE         0.8740  -29.0130  -19.7300 C.3    73  MET73       0.0692
     59  N         -4.5900  -29.3080  -21.5100 N.am   74  GLU74      -0.1966
     60  CA        -5.8710  -29.4920  -20.8400 C.3    74  GLU74       0.1733
     61  C         -5.7380  -29.2620  -19.3390 C.2    74  GLU74       0.2616
     62  O         -4.7740  -29.7040  -18.7070 O.2    74  GLU74      -0.2715
     63  CB        -6.4050  -30.8990  -21.1130 C.3    74  GLU74       0.0429
     64  CG        -7.7180  -31.2300  -20.4220 C.3    74  GLU74       0.1163
     65  CD        -8.1880  -32.6430  -20.7170 C.2    74  GLU74       0.3649
     66  OE1       -9.3340  -32.9810  -20.3490 O.co2  74  GLU74      -0.2457
     67  OE2       -7.4110  -33.4180  -21.3150 O.co2  74  GLU74      -0.2457
     68  N         -6.7190  -28.5680  -18.7690 N.am   75  PHE75      -0.1960
     69  CA        -6.7310  -28.2620  -17.3450 C.3    75  PHE75       0.1771
     70  C         -7.4610  -29.3570  -16.5770 C.2    75  PHE75       0.2620
     71  O         -8.4980  -29.8570  -17.0200 O.2    75  PHE75      -0.2715
     72  CB        -7.3960  -26.9070  -17.0980 C.3    75  PHE75       0.0574
     73  CG        -7.3400  -26.4540  -15.6670 C.ar   75  PHE75      -0.0200
     74  CD1       -6.1440  -26.0430  -15.1040 C.ar   75  PHE75      -0.0042
     75  CD2       -8.4860  -26.4260  -14.8900 C.ar   75  PHE75      -0.0042
     76  CE1       -6.0900  -25.6210  -13.7890 C.ar   75  PHE75      -0.0003
     77  CE2       -8.4380  -26.0040  -13.5750 C.ar   75  PHE75      -0.0003
     78  CZ        -7.2380  -25.6020  -13.0240 C.ar   75  PHE75      -0.0000
     79  N         -6.9100  -29.7240  -15.4200 N.am   76  CYS76      -0.1954
     80  CA        -7.4420  -30.8030  -14.5860 C.3    76  CYS76       0.1828
     81  C         -7.6340  -30.2740  -13.1720 C.2    76  CYS76       0.2467
     82  O         -6.7140  -30.3350  -12.3440 O.2    76  CYS76      -0.2730
     83  CB        -6.5130  -32.0150  -14.5990 C.3    76  CYS76       0.0996
     84  SG        -5.9120  -32.4790  -16.2420 S.3    76  CYS76      -0.0797
     85  N         -8.8290  -29.7700  -12.8480 N.am   77  PRO77      -0.2715
     86  CA        -9.0180  -29.0710  -11.5640 C.3    77  PRO77       0.1536
     87  C         -8.8030  -29.9380  -10.3310 C.2    77  PRO77       0.2599
     88  O         -8.6830  -29.3840   -9.2300 O.2    77  PRO77      -0.2715
     89  CB       -10.4710  -28.5800  -11.6390 C.3    77  PRO77       0.0310
     90  CG       -10.8180  -28.6060  -13.0960 C.3    77  PRO77       0.0237
     91  CD       -10.0470  -29.7510  -13.6730 C.3    77  PRO77       0.0939
     92  N         -8.7490  -31.2620  -10.4690 N.am   78  CYS78      -0.1954
     93  CA        -8.6270  -32.1330   -9.3060 C.3    78  CYS78       0.1843
     94  C         -7.1850  -32.3570   -8.8730 C.2    78  CYS78       0.2626
     95  O         -6.9310  -32.5500   -7.6780 O.2    78  CYS78      -0.2714
     96  CB        -9.2860  -33.4840   -9.5900 C.3    78  CYS78       0.0997
     97  SG       -10.9670  -33.3560  -10.2280 S.3    78  CYS78      -0.0797
     98  N         -6.2420  -32.3390   -9.8020 N.am   79  GLY79      -0.1940
     99  CA        -4.8470  -32.5550   -9.4910 C.3    79  GLY79       0.2014
    100  C         -4.3400  -33.8910   -9.9970 C.2    79  GLY79       0.2639
    101  O         -4.9170  -34.5190  -10.8890 O.2    79  GLY79      -0.2714
    102  N         -3.2320  -34.3290   -9.4090 N.am   80  SER80      -0.1949
    103  CA        -2.5780  -35.5690   -9.7940 C.3    80  SER80       0.1924
    104  C         -2.9400  -36.6930   -8.8290 C.2    80  SER80       0.2314
    105  O         -3.5770  -36.4830   -7.7940 O.2    80  SER80      -0.2863
    106  CB        -1.0590  -35.3850   -9.8480 C.3    80  SER80       0.2116
    107  OG        -0.5380  -35.0650   -8.5700 O.3    80  SER80      -0.2180
    108  N         -1.7820  -36.1110   -5.3380 N.3    83  THR83      -0.1218
    109  CA        -2.6950  -35.2950   -4.5440 C.3    83  THR83       0.1862
    110  C         -3.8160  -36.1410   -3.9530 C.2    83  THR83       0.2287
    111  O         -4.2510  -35.9070   -2.8200 O.2    83  THR83      -0.2866
    112  CB        -3.2710  -34.1660   -5.4010 C.3    83  THR83       0.1770
    113  OG1       -2.2010  -33.4400   -6.0190 O.3    83  THR83      -0.2211
    114  CG2       -4.0930  -33.2120   -4.5480 C.3    83  THR83       0.0375
    115  N          2.6490  -38.4070   -9.4850 N.3   126  GLY126     -0.1225
    116  CA         2.7210  -37.0150   -9.8870 C.3   126  GLY126      0.1811
    117  C          2.6060  -36.7900  -11.3790 C.2   126  GLY126      0.2280
    118  O          2.3690  -35.6550  -11.8060 O.2   126  GLY126     -0.2866
    119  N         -2.6370  -37.3370  -13.8990 N.3   129  MET129     -0.1245
    120  CA        -3.6390  -36.3680  -13.4860 C.3   129  MET129      0.1570
    121  C         -5.0130  -37.0230  -13.3830 C.2   129  MET129      0.2261
    122  O         -5.2710  -38.0830  -13.9580 O.2   129  MET129     -0.2867
    123  CB        -3.6940  -35.1950  -14.4650 C.3   129  MET129      0.0387
    124  CG        -2.3330  -34.6830  -14.9040 C.3   129  MET129      0.0595
    125  SD        -1.2000  -34.3930  -13.5320 S.3   129  MET129     -0.1393
    126  CE        -2.1340  -33.2140  -12.5640 C.3   129  MET129      0.0692
    127  N          0.5620  -37.0100  -18.8480 N.3   143  THR143     -0.1203
    128  CA         0.8610  -35.6700  -19.3420 C.3   143  THR143      0.1994
    129  C          2.3440  -35.4340  -19.6220 C.2   143  THR143      0.2617
    130  O          2.7150  -35.0920  -20.7490 O.2   143  THR143     -0.2717
    131  CB         0.3360  -34.6190  -18.3550 C.3   143  THR143      0.1784
    132  OG1        0.9000  -33.3370  -18.6620 O.3   143  THR143     -0.2211
    133  CG2        0.6440  -35.0080  -16.9070 C.3   143  THR143      0.0376
    134  N          3.1980  -35.6110  -18.6150 N.am  144  ASP144     -0.1973
    135  CA         4.6050  -35.2190  -18.7130 C.3   144  ASP144      0.1709
    136  C          5.4180  -36.4080  -19.2070 C.2   144  ASP144      0.2293
    137  O          5.8380  -37.2700  -18.4340 O.2   144  ASP144     -0.2864
    138  CB         5.1090  -34.7100  -17.3680 C.3   144  ASP144      0.1436
    139  CG         6.5210  -34.1670  -17.4430 C.2   144  ASP144      0.3671
    140  OD1        6.7030  -33.0510  -17.9740 O.co2 144  ASP144     -0.2456
    141  OD2        7.4480  -34.8560  -16.9690 O.co2 144  ASP144     -0.2456
@<TRIPOS>BOND
     1    47    46    2
     2    46    45    1
     3    51    52    1
     4    52    53    1
     5    52    55    1
     6    56    55    1
     7    56    57    1
     8    53    59   am
     9    53    54    2
    10    59    60    1
    11    44    45    1
    12    45    48    1
    13    67    65   ar
    14    57    58    1
    15    63    60    1
    16    63    64    1
    17    60    61    1
    18   130   129    2
    19    65    64    1
    20    65    66   ar
    21    49    48    1
    22    48    50    1
    23    42    41    2
    24   129   128    1
    25   129   134   am
    26   128   127    1
    27   128   131    1
    28    61    68   am
    29    61    62    2
    30   136   135    1
    31   136   137    2
    32    41    40    1
    33    39    40    1
    34    68    69    1
    35   135   134    1
    36   135   138    1
    37   132   131    1
    38   131   133    1
    39    40    43    1
    40   140   139   ar
    41   139   138    1
    42   139   141   ar
    43    69    72    1
    44    69    70    1
    45    72    73    1
    46    71    70    2
    47    70    79   am
    48    84    83    1
    49    27    25    1
    50    26    25    1
    51    73    74   ar
    52    73    75   ar
    53    79    80    1
    54    25    22    1
    55    22    21    1
    56    22    23    1
    57    74    76   ar
    58    30    31    2
    59    30    29    1
    60   124   123    1
    61   124   125    1
    62    75    77   ar
    63    83    80    1
    64    80    81    1
    65   123   120    1
    66    23    24    2
    67    29    28    1
    68    29    32    1
    69   122   121    2
    70   119   120    1
    71    76    78   ar
    72    91    90    1
    73    91    85    1
    74    77    78   ar
    75   125   126    1
    76   120   121    1
    77    15    14    1
    78    81    85   am
    79    81    82    2
    80    90    89    1
    81    33    32    1
    82    33    34    1
    83    85    86    1
    84    20    19    2
    85    14    13    1
    86    14    16    1
    87   118   117    2
    88    89    86    1
    89    86    87    1
    90    34    35    1
    91    35    36    2
    92    13    10    1
    93   117   116    1
    94     8     6    1
    95    38    36    1
    96    36    37    1
    97    19    18    1
    98   101   100    2
    99    17    18    1
   100    17    11   am
   101    92    87   am
   102    92    93    1
   103     9    10    1
   104     9     3   am
   105    87    88    2
   106    10    11    1
   107    97    96    1
   108   100    99    1
   109   100   102   am
   110   116   115    1
   111    11    12    2
   112   106   103    1
   113   106   107    1
   114     2     3    1
   115     2     1    1
   116     2     5    1
   117    98    99    1
   118    98    94   am
   119   103   102    1
   120   103   104    1
   121     6     5    1
   122    96    93    1
   123     3     4    2
   124    93    94    1
   125     5     7    1
   126    94    95    2
   127   104   105    2
   128   113   112    1
   129   112   114    1
   130   112   109    1
   131   108   109    1
   132   109   110    1
   133   110   111    2
