@<TRIPOS>MOLECULE
tmp/6boiA00.pdb
 132 128 0 0 0
SMALL
GASTEIGER

@<TRIPOS>ATOM
      1  N         31.8410   -5.8990  -15.7490 N.3   248  MET248     -0.1245
      2  CA        30.9230   -6.9560  -15.3800 C.3   248  MET248      0.1570
      3  C         31.7240   -8.2030  -15.0860 C.2   248  MET248      0.2261
      4  O         32.4370   -8.7130  -15.9550 O.2   248  MET248     -0.2867
      5  CB        29.9280   -7.1940  -16.4950 C.3   248  MET248      0.0387
      6  CG        29.4010   -5.8840  -16.9440 C.3   248  MET248      0.0595
      7  SD        27.6690   -5.7350  -16.6380 S.3   248  MET248     -0.1393
      8  CE        27.0550   -6.7110  -17.9850 C.3   248  MET248      0.0692
      9  N         28.0750  -12.6340   -9.5440 N.3   253  TYR253     -0.1241
     10  CA        26.7160  -13.1780   -9.5570 C.3   253  TYR253      0.1605
     11  C         26.6870  -14.6870   -9.4070 C.2   253  TYR253      0.2264
     12  O         25.6670  -15.3130   -9.7170 O.2   253  TYR253     -0.2867
     13  CB        25.9680  -12.7720  -10.8310 C.3   253  TYR253      0.0534
     14  CG        26.1070  -11.3070  -11.0650 C.ar  253  TYR253     -0.0201
     15  CD1       25.5210  -10.3950  -10.1990 C.ar  253  TYR253     -0.0009
     16  CD2       26.8840  -10.8220  -12.1170 C.ar  253  TYR253     -0.0009
     17  CE1       25.6810   -9.0290  -10.3900 C.ar  253  TYR253      0.0417
     18  CE2       27.0540   -9.4580  -12.3150 C.ar  253  TYR253      0.0417
     19  CZ        26.4480   -8.5730  -11.4490 C.ar  253  TYR253      0.1957
     20  OH        26.6290   -7.2260  -11.6310 O.3   253  TYR253     -0.2866
     21  N         31.1210  -18.1150  -17.5130 N.3   262  GLY262     -0.1210
     22  CA        31.8130  -16.9710  -16.9510 C.3   262  GLY262      0.1956
     23  C         32.2240  -15.9370  -17.9970 C.2   262  GLY262      0.2611
     24  O         32.1780  -16.1500  -19.2150 O.2   262  GLY262     -0.2717
     25  N         32.6580  -14.7890  -17.4830 N.am  263  TYR263     -0.1976
     26  CA        33.0230  -13.6280  -18.2780 C.3   263  TYR263      0.1639
     27  C         33.5220  -12.5510  -17.3310 C.2   263  TYR263      0.2290
     28  O         33.1480  -12.5030  -16.1520 O.2   263  TYR263     -0.2864
     29  CB        31.8400  -13.0870  -19.0710 C.3   263  TYR263      0.0560
     30  CG        30.6640  -12.7730  -18.1680 C.ar  263  TYR263     -0.0198
     31  CD1       30.6410  -11.6110  -17.3940 C.ar  263  TYR263     -0.0009
     32  CD2       29.5890  -13.6440  -18.0740 C.ar  263  TYR263     -0.0009
     33  CE1       29.5690  -11.3230  -16.5530 C.ar  263  TYR263      0.0417
     34  CE2       28.5120  -13.3760  -17.2450 C.ar  263  TYR263      0.0417
     35  CZ        28.4990  -12.2110  -16.4870 C.ar  263  TYR263      0.1957
     36  OH        27.4230  -11.9440  -15.6640 O.3   263  TYR263     -0.2866
     37  N         34.2390   -8.4600  -18.4190 N.3   265  THR265     -0.1218
     38  CA        34.4010   -7.5420  -19.5380 C.3   265  THR265      0.1862
     39  C         33.9350   -6.1430  -19.1690 C.2   265  THR265      0.2287
     40  O         32.9220   -5.9520  -18.4860 O.2   265  THR265     -0.2866
     41  CB        33.6450   -8.0090  -20.7920 C.3   265  THR265      0.1770
     42  OG1       32.3320   -8.4320  -20.4180 O.3   265  THR265     -0.2211
     43  CG2       34.3700   -9.1620  -21.4810 C.3   265  THR265      0.0375
     44  N         32.2220   -2.7370  -19.8810 N.3   267  VAL267     -0.1245
     45  CA        30.9960   -2.4640  -20.6150 C.3   267  VAL267      0.1561
     46  C         30.5750   -1.0200  -20.3960 C.2   267  VAL267      0.2260
     47  O         30.7680   -0.4560  -19.3140 O.2   267  VAL267     -0.2867
     48  CB        29.8850   -3.4240  -20.1630 C.3   267  VAL267      0.0252
     49  CG1       28.5550   -2.9810  -20.7170 C.3   267  VAL267      0.0019
     50  CG2       30.2490   -4.8330  -20.5900 C.3   267  VAL267      0.0019
     51  N         20.5970  -10.6080   -9.9360 N.3   276  SER276     -0.1202
     52  CA        21.2280  -11.7400  -10.5930 C.3   276  SER276      0.2020
     53  C         22.1800  -11.2940  -11.6820 C.2   276  SER276      0.2619
     54  O         22.9650  -12.1120  -12.1680 O.2   276  SER276     -0.2717
     55  CB        20.1840  -12.6850  -11.1630 C.3   276  SER276      0.2103
     56  OG        19.4170  -12.0650  -12.1780 O.3   276  SER276     -0.2182
     57  N         22.1630  -10.0220  -12.0390 N.am  277  GLY277     -0.1942
     58  CA        23.1440   -9.4570  -12.9300 C.3   277  GLY277      0.2014
     59  C         22.6620   -9.1410  -14.3450 C.2   277  GLY277      0.2638
     60  O         23.5120   -8.9490  -15.2470 O.2   277  GLY277     -0.2714
     61  N         21.3550   -9.0820  -14.5680 N.am  278  VAL278     -0.1977
     62  CA        20.8480   -8.5780  -15.8350 C.3   278  VAL278      0.1596
     63  C         21.0100   -7.0630  -15.8820 C.2   278  VAL278      0.2287
     64  O         20.6920   -6.3460  -14.9150 O.2   278  VAL278     -0.2864
     65  CB        19.3900   -9.0070  -16.0350 C.3   278  VAL278      0.0276
     66  CG1       18.8610   -8.5150  -17.4170 C.3   278  VAL278      0.0022
     67  CG2       19.2770  -10.5210  -15.9040 C.3   278  VAL278      0.0022
     68  N         22.7440   -2.7610  -21.5830 N.3   281  HIS281     -0.1241
     69  CA        24.0280   -2.1010  -21.7980 C.3   281  HIS281      0.1621
     70  C         24.4040   -2.0810  -23.2760 C.2   281  HIS281      0.2264
     71  O         23.7960   -2.7570  -24.1120 O.2   281  HIS281     -0.2867
     72  CB        25.1430   -2.7770  -20.9790 C.3   281  HIS281      0.0745
     73  CG        25.4920   -4.1570  -21.4540 C.ar  281  HIS281      0.0817
     74  ND1       26.3400   -4.3910  -22.5160 N.ar  281  HIS281     -0.2268
     75  CD2       25.0900   -5.3760  -21.0220 C.ar  281  HIS281      0.1154
     76  CE1       26.4490   -5.6940  -22.7130 C.ar  281  HIS281      0.1986
     77  NE2       25.7000   -6.3140  -21.8170 N.ar  281  HIS281     -0.2212
     78  N         29.5670   -5.3440  -30.1570 N.3   285  TRP285     -0.1241
     79  CA        29.9650   -6.5850  -30.8250 C.3   285  TRP285      0.1605
     80  C         28.7920   -7.3680  -31.4150 C.2   285  TRP285      0.2264
     81  O         29.0260   -8.2720  -32.2250 O.2   285  TRP285     -0.2867
     82  CB        30.7280   -7.4890  -29.8480 C.3   285  TRP285      0.0550
     83  CG        29.9970   -7.7020  -28.5560 C.ar  285  TRP285      0.0003
     84  CD1       29.0870   -8.6900  -28.2700 C.ar  285  TRP285      0.0946
     85  CD2       30.0940   -6.8940  -27.3760 C.ar  285  TRP285      0.0152
     86  NE1       28.6220   -8.5470  -26.9790 N.ar  285  TRP285     -0.2442
     87  CE2       29.2210   -7.4520  -26.4110 C.ar  285  TRP285      0.0810
     88  CE3       30.8310   -5.7500  -27.0400 C.ar  285  TRP285      0.0012
     89  CZ2       29.0690   -6.9000  -25.1300 C.ar  285  TRP285      0.0191
     90  CZ3       30.6800   -5.2060  -25.7690 C.ar  285  TRP285      0.0001
     91  CH2       29.8060   -5.7810  -24.8310 C.ar  285  TRP285      0.0015
     92  N         22.1210  -13.5650  -28.2550 N.3   295  THR295     -0.1203
     93  CA        23.5340  -13.9170  -28.1560 C.3   295  THR295      0.1994
     94  C         24.1750  -13.6090  -26.8070 C.2   295  THR295      0.2619
     95  O         25.3700  -13.8680  -26.6440 O.2   295  THR295     -0.2717
     96  CB        24.3610  -13.1920  -29.2280 C.3   295  THR295      0.1784
     97  OG1       24.4350  -11.7980  -28.8980 O.3   295  THR295     -0.2211
     98  CG2       23.7550  -13.3800  -30.6210 C.3   295  THR295      0.0376
     99  N         23.4410  -13.0550  -25.8470 N.am  296  SER296     -0.1937
    100  CA        24.0690  -12.5940  -24.6200 C.3   296  SER296      0.2055
    101  C         24.0440  -13.6790  -23.5460 C.2   296  SER296      0.2643
    102  O         23.5250  -14.7790  -23.7460 O.2   296  SER296     -0.2714
    103  CB        23.3830  -11.3310  -24.1020 C.3   296  SER296      0.2130
    104  OG        22.2130  -11.6680  -23.3830 O.3   296  SER296     -0.2179
    105  N         24.6050  -13.3380  -22.3770 N.am  297  HIS297     -0.1959
    106  CA        24.5510  -14.1530  -21.1650 C.3   297  HIS297      0.1787
    107  C         23.2970  -13.8850  -20.3490 C.2   297  HIS297      0.2621
    108  O         23.0900  -14.5090  -19.3090 O.2   297  HIS297     -0.2715
    109  CB        25.7980  -13.9090  -20.3000 C.3   297  HIS297      0.0785
    110  CG        27.0480  -14.5110  -20.8680 C.ar  297  HIS297      0.0821
    111  ND1       27.7080  -13.9810  -21.9610 N.ar  297  HIS297     -0.2267
    112  CD2       27.7480  -15.6100  -20.5070 C.ar  297  HIS297      0.1154
    113  CE1       28.7590  -14.7280  -22.2430 C.ar  297  HIS297      0.1986
    114  NE2       28.8020  -15.7270  -21.3790 N.ar  297  HIS297     -0.2212
    115  N         22.4430  -12.9890  -20.7960 N.am  298  GLY298     -0.1940
    116  CA        21.2280  -12.7420  -20.0560 C.3   298  GLY298      0.2014
    117  C         20.8480  -11.2870  -20.1950 C.2   298  GLY298      0.2639
    118  O         19.6650  -10.9460  -20.0720 O.2   298  GLY298     -0.2714
    119  N         21.8410  -10.4360  -20.4770 N.am  299  CYS299     -0.1967
    120  CA        21.6230   -9.0000  -20.5990 C.3   299  CYS299      0.1712
    121  C         20.7530   -8.6560  -21.8070 C.2   299  CYS299      0.2296
    122  O         20.6010   -9.4370  -22.7520 O.2   299  CYS299     -0.2864
    123  CB        22.9460   -8.2560  -20.7360 C.3   299  CYS299      0.0983
    124  SG        23.9320   -8.2600  -19.2370 S.3   299  CYS299     -0.0798
    125  N         21.1700   -6.6280  -24.6670 N.3   301  ASN301     -0.1240
    126  CA        22.1820   -5.9470  -25.4690 C.3   301  ASN301      0.1653
    127  C         21.5130   -5.0090  -26.4700 C.2   301  ASN301      0.2266
    128  O         20.5930   -5.4160  -27.1870 O.2   301  ASN301     -0.2867
    129  CB        23.0560   -6.9660  -26.1930 C.3   301  ASN301      0.1155
    130  CG        24.0500   -7.6480  -25.2500 C.2   301  ASN301      0.2627
    131  OD1       24.0510   -7.4020  -24.0380 O.2   301  ASN301     -0.2716
    132  ND2       24.8980   -8.4880  -25.8000 N.am  301  ASN301     -0.0877
@<TRIPOS>BOND
     1    81    80    2
     2    80    79    1
     3    79    78    1
     4    79    82    1
     5    98    96    1
     6    82    83    1
     7    96    97    1
     8    96    93    1
     9    83    84   ar
    10    83    85   ar
    11    84    86   ar
    12    92    93    1
    13    93    94    1
    14    85    88   ar
    15    85    87   ar
    16   128   127    2
    17    88    90   ar
    18    86    87   ar
    19    94    95    2
    20    94    99   am
    21   127   126    1
    22    87    89   ar
    23   129   126    1
    24   129   130    1
    25    99   100    1
    26   132   130   am
    27    90    91   ar
    28   126   125    1
    29   130   131    2
    30    89    91   ar
    31   100   103    1
    32   100   101    1
    33    71    70    2
    34   103   104    1
    35   102   101    2
    36   101   105   am
    37    70    69    1
    38   122   121    2
    39    76    74   ar
    40    76    77   ar
    41    74    73   ar
    42   105   106    1
    43   113   111   ar
    44   113   114   ar
    45   111   110   ar
    46    77    75   ar
    47   121   120    1
    48    69    68    1
    49    69    72    1
    50    43    41    1
    51    73    75   ar
    52    73    72    1
    53   114   112   ar
    54   106   107    1
    55   106   109    1
    56   110   112   ar
    57   110   109    1
    58   115   107   am
    59   115   116    1
    60    41    42    1
    61    41    38    1
    62   123   120    1
    63   123   124    1
    64    49    48    1
    65    45    46    1
    66    45    48    1
    67    45    44    1
    68   120   119    1
    69    50    48    1
    70   119   117   am
    71    46    47    2
    72   107   108    2
    73   117   118    2
    74   117   116    1
    75    38    39    1
    76    38    37    1
    77    24    23    2
    78    39    40    2
    79    29    26    1
    80    29    30    1
    81    26    25    1
    82    26    27    1
    83    30    32   ar
    84    30    31   ar
    85    32    34   ar
    86    23    25   am
    87    23    22    1
    88     8     7    1
    89    21    22    1
    90    66    65    1
    91    31    33   ar
    92    27    28    2
    93    34    35   ar
    94     6     7    1
    95     6     5    1
    96    33    35   ar
    97     5     2    1
    98    35    36    1
    99    65    67    1
   100    65    62    1
   101     4     3    2
   102    63    62    1
   103    63    64    2
   104    62    61    1
   105     1     2    1
   106     2     3    1
   107    60    59    2
   108    61    59   am
   109    59    58    1
   110    58    57    1
   111    18    16   ar
   112    18    19   ar
   113    56    55    1
   114    54    53    2
   115    16    14   ar
   116    57    53   am
   117    53    52    1
   118    20    19    1
   119    19    17   ar
   120    55    52    1
   121    14    13    1
   122    14    15   ar
   123    13    10    1
   124    52    51    1
   125    17    15   ar
   126    12    11    2
   127    10     9    1
   128    10    11    1
