@<TRIPOS>MOLECULE
tmp/6bojD00.pdb
 250 241 0 0 0
SMALL
GASTEIGER

@<TRIPOS>ATOM
      1  N        -31.7570   16.0540   10.7270 N.3    72  TYR72      -0.1227
      2  CA       -31.2270   17.2860   10.1990 C.3    72  TYR72       0.1736
      3  C        -29.6650   17.2680   10.1410 C.2    72  TYR72       0.2595
      4  O        -29.0810   17.4450    9.0870 O.2    72  TYR72      -0.2718
      5  CB       -31.7310   18.4590   10.9900 C.3    72  TYR72       0.0548
      6  CG       -31.2170   19.7990   10.4510 C.ar   72  TYR72      -0.0200
      7  CD1      -29.9960   20.3120   10.8710 C.ar   72  TYR72      -0.0009
      8  CD2      -31.9630   20.5490    9.5120 C.ar   72  TYR72      -0.0009
      9  CE1      -29.5120   21.5190   10.3830 C.ar   72  TYR72       0.0417
     10  CE2      -31.5080   21.7880    9.0530 C.ar   72  TYR72       0.0417
     11  CZ       -30.2580   22.2540    9.4890 C.ar   72  TYR72       0.1957
     12  OH       -29.7480   23.4510    9.0120 O.3    72  TYR72      -0.2866
     13  N        -29.0390   17.0360   11.3030 N.am   73  HIS73      -0.1975
     14  CA       -27.5670   17.0590   11.4110 C.3    73  HIS73       0.1656
     15  C        -26.9410   15.8030   10.8870 C.2    73  HIS73       0.2291
     16  O        -26.3050   15.0550   11.6230 O.2    73  HIS73      -0.2864
     17  CB       -27.1350   17.3640   12.8450 C.3    73  HIS73       0.0771
     18  CG       -27.4510   18.7700   13.2610 C.ar   73  HIS73       0.0820
     19  ND1      -28.4800   19.0720   14.1160 N.ar   73  HIS73      -0.2267
     20  CD2      -26.9140   19.9430   12.8930 C.ar   73  HIS73       0.1154
     21  CE1      -28.5530   20.3900   14.2690 C.ar   73  HIS73       0.1986
     22  NE2      -27.6090   20.9360   13.5430 N.ar   73  HIS73      -0.2212
     23  N        -22.5760   14.1320   14.9240 N.3   117  HIS117     -0.1241
     24  CA       -23.6130   14.7930   15.7000 C.3   117  HIS117      0.1621
     25  C        -24.6340   13.7270   16.1470 C.2   117  HIS117      0.2264
     26  O        -25.1230   12.9840   15.3230 O.2   117  HIS117     -0.2867
     27  CB       -24.3010   15.8800   14.8470 C.3   117  HIS117      0.0745
     28  CG       -25.0030   16.9320   15.6280 C.ar  117  HIS117      0.0817
     29  ND1      -26.1000   16.6590   16.3930 N.ar  117  HIS117     -0.2268
     30  CD2      -24.8180   18.2770   15.7120 C.ar  117  HIS117      0.1154
     31  CE1      -26.5510   17.7630   16.9620 C.ar  117  HIS117      0.1986
     32  NE2      -25.7950   18.7690   16.5630 N.ar  117  HIS117     -0.2212
     33  N        -28.8480   15.7260   19.3960 N.3   120  VAL120     -0.1231
     34  CA       -29.3100   16.4850   20.5410 C.3   120  VAL120      0.1692
     35  C        -28.3800   17.6790   20.7200 C.2   120  VAL120      0.2592
     36  O        -27.2580   17.6810   20.2290 O.2   120  VAL120     -0.2718
     37  CB       -29.3320   15.6230   21.8230 C.3   120  VAL120      0.0266
     38  CG1      -30.3240   14.4480   21.6690 C.3   120  VAL120      0.0020
     39  CG2      -27.9500   15.0660   22.1160 C.3   120  VAL120      0.0020
     40  N        -28.8550   18.6480   21.4710 N.am  121  SER121     -0.1952
     41  CA       -28.1500   19.9250   21.6710 C.3   121  SER121      0.1924
     42  C        -27.0510   19.8750   22.7170 C.2   121  SER121      0.2314
     43  O        -27.0100   18.9990   23.5590 O.2   121  SER121     -0.2863
     44  CB       -29.1620   20.9770   22.0880 C.3   121  SER121      0.2116
     45  OG       -29.6080   20.7560   23.4220 O.3   121  SER121     -0.2180
     46  N        -27.0080   21.7980   25.1830 N.3   123  GLN123     -0.1245
     47  CA       -27.6650   21.9600   26.4800 C.3   123  GLN123      0.1566
     48  C        -28.2000   20.6230   26.9920 C.2   123  GLN123      0.2260
     49  O        -28.1310   20.3540   28.1900 O.2   123  GLN123     -0.2867
     50  CB       -28.7720   23.0040   26.4100 C.3   123  GLN123      0.0367
     51  CG       -28.2530   24.4120   26.1880 C.3   123  GLN123      0.0905
     52  CD       -27.9050   24.7610   24.7210 C.2   123  GLN123      0.2608
     53  OE1      -28.1670   24.0120   23.7680 O.2   123  GLN123     -0.2717
     54  NE2      -27.2730   25.9230   24.5610 N.am  123  GLN123     -0.0878
     55  N        -20.3270   19.9860   21.4600 N.3   142  LEU142     -0.1245
     56  CA       -20.4530   19.3400   20.1650 C.3   142  LEU142      0.1561
     57  C        -19.3700   19.8210   19.1800 C.2   142  LEU142      0.2260
     58  O        -18.7980   19.0390   18.4800 O.2   142  LEU142     -0.2867
     59  CB       -21.8150   19.5870   19.5400 C.3   142  LEU142      0.0270
     60  CG       -22.9700   18.8750   20.2130 C.3   142  LEU142      0.0019
     61  CD1      -24.2670   19.5630   19.8760 C.3   142  LEU142      0.0001
     62  CD2      -22.9700   17.4610   19.7790 C.3   142  LEU142      0.0001
     63  N        -23.8350   27.7240   18.2470 N.3   186  MET186     -0.1245
     64  CA       -24.9090   28.7240   18.0620 C.3   186  MET186      0.1570
     65  C        -24.9680   29.7400   19.1770 C.2   186  MET186      0.2261
     66  O        -25.3720   30.8930   18.9400 O.2   186  MET186     -0.2867
     67  CB       -26.2700   28.0520   17.9090 C.3   186  MET186      0.0387
     68  CG       -26.3800   27.1690   16.6890 C.3   186  MET186      0.0595
     69  SD       -26.2100   28.1080   15.1940 S.3   186  MET186     -0.1393
     70  CE       -26.2180   26.7660   13.9420 C.3   186  MET186      0.0692
     71  N        -24.2770   27.8620    7.5910 N.3   228  ASP228     -0.1225
     72  CA       -24.9510   26.9920    8.5250 C.3   228  ASP228      0.1805
     73  C        -26.3960   27.4970    8.7790 C.2   228  ASP228      0.2597
     74  O        -27.3010   26.6870    8.9600 O.2   228  ASP228     -0.2718
     75  CB       -24.1480   27.0270    9.8630 C.3   228  ASP228      0.1424
     76  CG       -24.2530   25.7740   10.6880 C.2   228  ASP228      0.3668
     77  OD1      -24.7470   24.6870   10.2580 O.co2 228  ASP228     -0.2456
     78  OD2      -23.6870   25.8560   11.8130 O.co2 228  ASP228     -0.2456
     79  N        -26.6000   28.8170    8.7180 N.am  229  LEU229     -0.1979
     80  CA       -27.8990   29.4460    8.9240 C.3   229  LEU229      0.1596
     81  C        -28.4750   29.9570    7.6010 C.2   229  LEU229      0.2287
     82  O        -29.1310   30.9760    7.5540 O.2   229  LEU229     -0.2864
     83  CB       -27.8180   30.6000    9.9290 C.3   229  LEU229      0.0297
     84  CG       -27.4470   30.1620   11.3640 C.3   229  LEU229      0.0022
     85  CD1      -27.4930   31.3770   12.2930 C.3   229  LEU229      0.0001
     86  CD2      -28.3250   29.0690   11.9060 C.3   229  LEU229      0.0001
     87  N        -30.5660   28.0590    5.5050 N.3   231  ASN231     -0.1240
     88  CA       -31.7520   27.3150    4.9750 C.3   231  ASN231      0.1653
     89  C        -32.9060   28.2660    4.5800 C.2   231  ASN231      0.2266
     90  O        -33.5200   28.0630    3.5200 O.2   231  ASN231     -0.2867
     91  CB       -32.3240   26.2600    5.9360 C.3   231  ASN231      0.1155
     92  CG       -31.3240   25.1820    6.3590 C.2   231  ASN231      0.2627
     93  OD1      -31.4790   24.6370    7.4480 O.2   231  ASN231     -0.2716
     94  ND2      -30.3510   24.8440    5.5220 N.am  231  ASN231     -0.0877
     95  N        -36.0070   24.9590    1.5780 N.3   239  TYR239     -0.1241
     96  CA       -36.2360   25.4560    2.9320 C.3   239  TYR239      0.1605
     97  C        -37.2750   24.6250    3.6860 C.2   239  TYR239      0.2264
     98  O        -37.0670   24.2370    4.8400 O.2   239  TYR239     -0.2867
     99  CB       -36.6150   26.9500    2.8780 C.3   239  TYR239      0.0534
    100  CG       -36.9380   27.6450    4.1820 C.ar  239  TYR239     -0.0201
    101  CD1      -36.4690   27.1780    5.4120 C.ar  239  TYR239     -0.0009
    102  CD2      -37.6370   28.8370    4.1820 C.ar  239  TYR239     -0.0009
    103  CE1      -36.7750   27.8440    6.5810 C.ar  239  TYR239      0.0417
    104  CE2      -37.9230   29.5140    5.3340 C.ar  239  TYR239      0.0417
    105  CZ       -37.4640   29.0430    6.5460 C.ar  239  TYR239      0.1957
    106  OH       -37.7710   29.7150    7.7160 O.3   239  TYR239     -0.2866
    107  N        -35.8490   21.4530    4.9470 N.3   242  TRP242     -0.1227
    108  CA       -34.9330   21.6770    6.1190 C.3   242  TRP242      0.1737
    109  C        -35.7170   21.9010    7.3700 C.2   242  TRP242      0.2596
    110  O        -35.3900   21.3760    8.4280 O.2   242  TRP242     -0.2718
    111  CB       -33.9720   22.8420    5.8870 C.3   242  TRP242      0.0564
    112  CG       -32.9680   22.5660    4.8170 C.ar  242  TRP242      0.0003
    113  CD1      -32.8000   23.2700    3.6880 C.ar  242  TRP242      0.0946
    114  CD2      -31.9720   21.5060    4.7760 C.ar  242  TRP242      0.0152
    115  NE1      -31.7770   22.7260    2.9200 N.ar  242  TRP242     -0.2442
    116  CE2      -31.2690   21.6430    3.5680 C.ar  242  TRP242      0.0810
    117  CE3      -31.6340   20.4620    5.6340 C.ar  242  TRP242      0.0012
    118  CZ2      -30.2170   20.7950    3.2210 C.ar  242  TRP242      0.0191
    119  CZ3      -30.6220   19.5930    5.2780 C.ar  242  TRP242      0.0001
    120  CH2      -29.9400   19.7550    4.0910 C.ar  242  TRP242      0.0015
    121  N        -36.7870   22.6930    7.2830 N.am  243  THR243     -0.1953
    122  CA       -37.6660   22.8890    8.4510 C.3   243  THR243      0.1897
    123  C        -38.2390   21.5900    8.9630 C.2   243  THR243      0.2313
    124  O        -38.2390   21.3140   10.1720 O.2   243  THR243     -0.2863
    125  CB       -38.8130   23.8790    8.1030 C.3   243  THR243      0.1794
    126  OG1      -38.2030   25.1240    7.7490 O.3   243  THR243     -0.2208
    127  CG2      -39.6880   24.1020    9.2800 C.3   243  THR243      0.0378
    128  N        -35.4630   19.6010   10.7630 N.3   246  ILE246     -0.1231
    129  CA       -35.0330   20.0830   12.0820 C.3   246  ILE246      0.1692
    130  C        -36.0930   19.8290   13.1390 C.2   246  ILE246      0.2591
    131  O        -35.7930   19.4390   14.2540 O.2   246  ILE246     -0.2718
    132  CB       -34.5720   21.5600   12.1010 C.3   246  ILE246      0.0266
    133  CG1      -33.7600   21.8460   13.3810 C.3   246  ILE246      0.0019
    134  CG2      -35.7210   22.5240   12.1120 C.3   246  ILE246      0.0020
    135  CD1      -32.3020   21.7220   13.2020 C.3   246  ILE246      0.0001
    136  N        -37.3790   19.9940   12.7640 N.am  247  MET247     -0.1979
    137  CA       -38.4350   19.6980   13.7250 C.3   247  MET247      0.1605
    138  C        -38.4760   18.2370   14.1050 C.2   247  MET247      0.2287
    139  O        -38.6720   17.9200   15.2770 O.2   247  MET247     -0.2864
    140  CB       -39.8030   20.1950   13.2270 C.3   247  MET247      0.0413
    141  CG       -39.8340   21.7050   13.0020 C.3   247  MET247      0.0598
    142  SD       -39.2310   22.7290   14.3600 S.3   247  MET247     -0.1393
    143  CE       -40.3270   22.2270   15.6760 C.3   247  MET247      0.0692
    144  N        -35.9910   16.2480   14.1990 N.3   249  GLU249     -0.1231
    145  CA       -34.8470   16.0390   15.1110 C.3   249  GLU249      0.1699
    146  C        -35.0910   16.6010   16.5180 C.2   249  GLU249      0.2592
    147  O        -34.8440   15.9190   17.5310 O.2   249  GLU249     -0.2718
    148  CB       -33.5620   16.6490   14.5060 C.3   249  GLU249      0.0402
    149  CG       -32.3350   16.4200   15.3530 C.3   249  GLU249      0.1161
    150  CD       -31.0370   16.8550   14.6730 C.2   249  GLU249      0.3649
    151  OE1      -30.8840   16.6290   13.4520 O.co2 249  GLU249     -0.2457
    152  OE2      -30.1790   17.4550   15.3670 O.co2 249  GLU249     -0.2457
    153  N        -35.6380   17.8090   16.5810 N.am  250  PHE250     -0.1976
    154  CA       -35.9870   18.4310   17.8530 C.3   250  PHE250      0.1639
    155  C        -37.0190   17.6040   18.6140 C.2   250  PHE250      0.2290
    156  O        -36.8870   17.4110   19.8150 O.2   250  PHE250     -0.2864
    157  CB       -36.5190   19.8440   17.6800 C.3   250  PHE250      0.0560
    158  CG       -35.4900   20.8750   17.2860 C.ar  250  PHE250     -0.0200
    159  CD1      -34.1260   20.5750   17.1710 C.ar  250  PHE250     -0.0042
    160  CD2      -35.8840   22.1550   17.0480 C.ar  250  PHE250     -0.0042
    161  CE1      -33.2260   21.5500   16.7970 C.ar  250  PHE250     -0.0003
    162  CE2      -34.9850   23.1470   16.7000 C.ar  250  PHE250     -0.0003
    163  CZ       -33.6380   22.8550   16.6150 C.ar  250  PHE250     -0.0000
    164  N        -35.4960   14.6900   20.3070 N.3   253  GLN253     -0.1245
    165  CA       -34.8420   15.0710   21.5520 C.3   253  GLN253      0.1566
    166  C        -35.8660   15.1930   22.6650 C.2   253  GLN253      0.2260
    167  O        -35.6470   14.6960   23.7840 O.2   253  GLN253     -0.2867
    168  CB       -34.0710   16.3850   21.4370 C.3   253  GLN253      0.0367
    169  CG       -33.4350   16.7850   22.7680 C.3   253  GLN253      0.0905
    170  CD       -32.6250   18.0730   22.6950 C.2   253  GLN253      0.2608
    171  OE1      -31.8160   18.2610   21.7960 O.2   253  GLN253     -0.2717
    172  NE2      -32.8460   18.9670   23.6400 N.am  253  GLN253     -0.0878
    173  N        -39.3740   24.1150   21.7500 N.3   267  MET267     -0.1245
    174  CA       -39.2970   23.6940   20.3480 C.3   267  MET267      0.1570
    175  C        -39.2000   22.1920   20.1710 C.2   267  MET267      0.2261
    176  O        -39.2220   21.7300   19.0380 O.2   267  MET267     -0.2867
    177  CB       -38.1000   24.3180   19.5770 C.3   267  MET267      0.0387
    178  CG       -38.1940   25.7580   19.2350 C.3   267  MET267      0.0595
    179  SD       -39.6330   26.2140   18.2720 S.3   267  MET267     -0.1393
    180  CE       -39.6290   27.8380   18.9500 C.3   267  MET267      0.0692
    181  N        -42.6670   29.6090   14.5590 N.3   278  SER278     -0.1202
    182  CA       -41.2840   29.4770   15.0210 C.3   278  SER278      0.2020
    183  C        -40.2930   29.8520   13.9310 C.2   278  SER278      0.2618
    184  O        -39.2800   30.4990   14.2020 O.2   278  SER278     -0.2717
    185  CB       -41.0630   28.0740   15.5780 C.3   278  SER278      0.2103
    186  OG       -41.8710   27.9060   16.7440 O.3   278  SER278     -0.2182
    187  N        -40.5820   29.4740   12.6920 N.am  279  GLN279     -0.1979
    188  CA       -39.7180   29.8880   11.5750 C.3   279  GLN279      0.1601
    189  C        -39.7580   31.4010   11.3650 C.2   279  GLN279      0.2287
    190  O        -38.7500   32.0160   11.1060 O.2   279  GLN279     -0.2864
    191  CB       -40.0730   29.1720   10.2520 C.3   279  GLN279      0.0394
    192  CG       -39.6200   27.7290   10.1790 C.3   279  GLN279      0.0908
    193  CD       -38.1140   27.5680   10.4130 C.2   279  GLN279      0.2608
    194  OE1      -37.3060   28.2020    9.7760 O.2   279  GLN279     -0.2717
    195  NE2      -37.7590   26.6670   11.3500 N.am  279  GLN279     -0.0878
    196  N        -37.4980   32.7610   14.0140 N.3   282  PHE282     -0.1241
    197  CA       -36.1170   32.4460   13.6050 C.3   282  PHE282      0.1605
    198  C        -35.6240   33.4450   12.5800 C.2   282  PHE282      0.2264
    199  O        -34.5210   34.0140   12.7150 O.2   282  PHE282     -0.2867
    200  CB       -36.0990   31.0120   13.0630 C.3   282  PHE282      0.0534
    201  CG       -34.7470   30.5000   12.6140 C.ar  282  PHE282     -0.0203
    202  CD1      -33.5870   30.7590   13.3280 C.ar  282  PHE282     -0.0042
    203  CD2      -34.6590   29.7010   11.4780 C.ar  282  PHE282     -0.0042
    204  CE1      -32.3530   30.2500   12.8830 C.ar  282  PHE282     -0.0003
    205  CE2      -33.4560   29.1580   11.0650 C.ar  282  PHE282     -0.0003
    206  CZ       -32.2970   29.4380   11.7640 C.ar  282  PHE282     -0.0000
    207  N        -40.6260   30.2880   21.3400 N.3   325  VAL325     -0.1245
    208  CA       -39.6740   30.9060   20.4140 C.3   325  VAL325      0.1561
    209  C        -38.6670   31.7430   21.1690 C.2   325  VAL325      0.2260
    210  O        -37.4430   31.6340   20.9810 O.2   325  VAL325     -0.2867
    211  CB       -40.3710   31.8270   19.3950 C.3   325  VAL325      0.0252
    212  CG1      -39.3670   32.7470   18.6800 C.3   325  VAL325      0.0019
    213  CG2      -41.1360   30.9960   18.3920 C.3   325  VAL325      0.0019
    214  N        -36.4120   29.5540   23.3250 N.3   328  PHE328     -0.1227
    215  CA       -35.4650   28.8050   22.4510 C.3   328  PHE328      0.1736
    216  C        -34.3320   29.6940   21.9780 C.2   328  PHE328      0.2595
    217  O        -33.1710   29.3350   22.0390 O.2   328  PHE328     -0.2718
    218  CB       -36.1790   28.2160   21.2420 C.3   328  PHE328      0.0547
    219  CG       -35.2510   27.4860   20.3050 C.ar  328  PHE328     -0.0202
    220  CD1      -34.9570   26.1500   20.5050 C.ar  328  PHE328     -0.0042
    221  CD2      -34.6950   28.1340   19.2140 C.ar  328  PHE328     -0.0042
    222  CE1      -34.1160   25.4670   19.6400 C.ar  328  PHE328     -0.0003
    223  CE2      -33.8420   27.4550   18.3530 C.ar  328  PHE328     -0.0003
    224  CZ       -33.5760   26.1010   18.5670 C.ar  328  PHE328     -0.0000
    225  N        -34.6780   30.8740   21.5160 N.am  329  ILE329     -0.1980
    226  CA       -33.6700   31.8370   21.0720 C.3   329  ILE329      0.1595
    227  C        -32.7230   32.2420   22.1720 C.2   329  ILE329      0.2287
    228  O        -31.4880   32.2070   22.0030 O.2   329  ILE329     -0.2864
    229  CB       -34.3260   33.0570   20.4130 C.3   329  ILE329      0.0276
    230  CG1      -34.8760   32.6070   19.0660 C.3   329  ILE329      0.0022
    231  CG2      -33.3130   34.2000   20.2810 C.3   329  ILE329      0.0022
    232  CD1      -35.7510   33.6270   18.3680 C.3   329  ILE329      0.0001
    233  N        -30.4230   29.3720   22.9890 N.3   332  THR332     -0.1203
    234  CA       -29.6500   28.8510   21.8590 C.3   332  THR332      0.1994
    235  C        -28.5800   29.7820   21.3030 C.2   332  THR332      0.2617
    236  O        -27.4660   29.3440   20.9890 O.2   332  THR332     -0.2717
    237  CB       -30.6140   28.4370   20.7190 C.3   332  THR332      0.1784
    238  OG1      -31.5160   27.4290   21.2030 O.3   332  THR332     -0.2211
    239  CG2      -29.8470   27.8770   19.5230 C.3   332  THR332      0.0376
    240  N        -28.9250   31.0480   21.1270 N.am  333  PHE333     -0.1975
    241  CA       -28.1140   31.9730   20.3300 C.3   333  PHE333      0.1639
    242  C        -27.3540   33.0360   21.1250 C.2   333  PHE333      0.2290
    243  O        -26.6730   33.8800   20.5310 O.2   333  PHE333     -0.2864
    244  CB       -28.9580   32.6280   19.2340 C.3   333  PHE333      0.0560
    245  CG       -29.5350   31.6770   18.2610 C.ar  333  PHE333     -0.0200
    246  CD1      -28.7270   31.0640   17.2950 C.ar  333  PHE333     -0.0042
    247  CD2      -30.8830   31.3600   18.2880 C.ar  333  PHE333     -0.0042
    248  CE1      -29.2690   30.1560   16.3920 C.ar  333  PHE333     -0.0003
    249  CE2      -31.4180   30.4440   17.3790 C.ar  333  PHE333     -0.0003
    250  CZ       -30.6140   29.8540   16.4290 C.ar  333  PHE333     -0.0000
@<TRIPOS>BOND
     1    95    96    1
     2    99    96    1
     3    99   100    1
     4   115   116   ar
     5   115   113   ar
     6    96    97    1
     7   118   116   ar
     8   118   120   ar
     9    90    89    2
    10   116   114   ar
    11    97    98    2
    12   113   112   ar
    13   120   119   ar
    14   102   100   ar
    15   102   104   ar
    16   100   101   ar
    17    89    88    1
    18   114   112   ar
    19   114   117   ar
    20   112   111    1
    21   107   108    1
    22    88    87    1
    23    88    91    1
    24   119   117   ar
    25   104   105   ar
    26   101   103   ar
    27    94    92   am
    28   111   108    1
    29    91    92    1
    30   108   109    1
    31    92    93    2
    32   105   103   ar
    33   105   106    1
    34   121   109   am
    35   121   122    1
    36   109   110    2
    37    82    81    2
    38    71    72    1
    39    81    80    1
    40   126   125    1
    41   125   122    1
    42   125   127    1
    43   122   123    1
    44    72    73    1
    45    72    75    1
    46    79    73   am
    47    79    80    1
    48    73    74    2
    49    80    83    1
    50   123   124    2
    51    12    11    1
    52    10    11   ar
    53    10     8   ar
    54     4     3    2
    55    11     9   ar
    56     8     6   ar
    57   194   193    2
    58    75    76    1
    59    83    84    1
    60     3     2    1
    61     3    13   am
    62   192   191    1
    63   192   193    1
    64     2     1    1
    65     2     5    1
    66   191   188    1
    67    77    76   ar
    68     9     7   ar
    69   193   195   am
    70     6     7   ar
    71     6     5    1
    72    76    78   ar
    73   128   129    1
    74    15    14    1
    75    15    16    2
    76   205   203   ar
    77   205   206   ar
    78   190   189    2
    79    13    14    1
    80    84    86    1
    81    84    85    1
    82   189   188    1
    83    14    17    1
    84   203   201   ar
    85   188   187    1
    86   206   204   ar
    87   129   132    1
    88   129   130    1
    89   132   134    1
    90   132   133    1
    91   198   199    2
    92   198   197    1
    93   201   200    1
    94   201   202   ar
    95   187   183   am
    96   136   130   am
    97   136   137    1
    98    17    18    1
    99   204   202   ar
   100    20    18   ar
   101    20    22   ar
   102   141   140    1
   103   141   142    1
   104   200   197    1
   105   130   131    2
   106   135   133    1
   107   140   137    1
   108    18    19   ar
   109   151   150   ar
   110    22    21   ar
   111   197   196    1
   112   137   138    1
   113   183   184    2
   114   183   182    1
   115    70    69    1
   116   138   139    2
   117    19    21   ar
   118   144   145    1
   119   142   143    1
   120   148   145    1
   121   148   149    1
   122   181   182    1
   123   150   149    1
   124   150   152   ar
   125    27    28    1
   126    27    24    1
   127    23    24    1
   128   182   185    1
   129   145   146    1
   130    69    68    1
   131    26    25    2
   132   185   186    1
   133    28    30   ar
   134    28    29   ar
   135    24    25    1
   136    30    32   ar
   137   248   250   ar
   138   248   246   ar
   139    29    31   ar
   140   250   249   ar
   141   146   153   am
   142   146   147    2
   143    32    31   ar
   144   153   154    1
   145   163   162   ar
   146   163   161   ar
   147    68    67    1
   148   162   160   ar
   149   161   159   ar
   150   160   158   ar
   151   159   158   ar
   152   158   157    1
   153   246   245   ar
   154   249   247   ar
   155   157   154    1
   156   154   155    1
   157    67    64    1
   158    64    63    1
   159    64    65    1
   160   245   247   ar
   161   245   244    1
   162   179   180    1
   163   179   178    1
   164   223   224   ar
   165   223   221   ar
   166   232   230    1
   167   213   211    1
   168    58    57    2
   169   224   222   ar
   170   155   156    2
   171   212   211    1
   172    66    65    2
   173   176   175    2
   174   230   229    1
   175    57    56    1
   176   221   219   ar
   177   244   241    1
   178   178   177    1
   179   211   208    1
   180    33    34    1
   181   239   237    1
   182    59    56    1
   183    59    60    1
   184   177   174    1
   185   222   220   ar
   186    62    60    1
   187    61    60    1
   188    56    55    1
   189   175   174    1
   190    36    35    2
   191   231   229    1
   192   219   220   ar
   193   219   218    1
   194   164   165    1
   195   241   242    1
   196   241   240    1
   197   174   173    1
   198   229   226    1
   199   208   209    1
   200   208   207    1
   201   243   242    2
   202    34    35    1
   203    34    37    1
   204   237   238    1
   205   237   234    1
   206    35    40   am
   207   210   209    2
   208   236   235    2
   209   226   225    1
   210   226   227    1
   211   240   235   am
   212   218   215    1
   213   235   234    1
   214   168   165    1
   215   168   169    1
   216    40    41    1
   217   225   216   am
   218   165   166    1
   219    38    37    1
   220    41    44    1
   221    41    42    1
   222   171   170    2
   223    37    39    1
   224   234   233    1
   225   216   217    2
   226   216   215    1
   227   228   227    2
   228    44    45    1
   229   215   214    1
   230   166   167    2
   231   170   169    1
   232   170   172   am
   233    42    43    2
   234    53    52    2
   235    54    52   am
   236    52    51    1
   237    46    47    1
   238    51    50    1
   239    50    47    1
   240    47    48    1
   241    48    49    2
