@<TRIPOS>MOLECULE
tmp/6boyC00.pdb
 150 147 0 0 0
SMALL
GASTEIGER

@<TRIPOS>ATOM
      1  N         75.5220   48.8800   56.7570 N.3    37  GLN37      -0.1245
      2  CA        75.1430   48.3810   55.4380 C.3    37  GLN37       0.1566
      3  C         75.0700   46.8570   55.4050 C.2    37  GLN37       0.2260
      4  O         74.1590   46.2860   54.7950 O.2    37  GLN37      -0.2867
      5  CB        76.1450   48.8880   54.3990 C.3    37  GLN37       0.0367
      6  CG        75.5640   49.1860   53.0320 C.3    37  GLN37       0.0905
      7  CD        76.6040   49.7480   52.0780 C.2    37  GLN37       0.2608
      8  OE1       77.2970   50.7160   52.3940 O.2    37  GLN37      -0.2717
      9  NE2       76.7260   49.1330   50.9090 N.am   37  GLN37      -0.0878
     10  N         72.1910   43.0590   57.6380 N.3    40  TRP40      -0.1228
     11  CA        70.9410   42.3110   57.5160 C.3    40  TRP40       0.1722
     12  C         71.0780   40.7940   57.6650 C.2    40  TRP40       0.2437
     13  O         70.1560   40.1860   58.2350 O.2    40  TRP40      -0.2733
     14  CB        70.2460   42.6650   56.1900 C.3    40  TRP40       0.0563
     15  CG        70.7310   41.8950   55.0120 C.ar   40  TRP40       0.0003
     16  CD1       71.8080   42.1870   54.2340 C.ar   40  TRP40       0.0946
     17  CD2       70.1490   40.7010   54.4670 C.ar   40  TRP40       0.0152
     18  NE1       71.9480   41.2370   53.2520 N.ar   40  TRP40      -0.2442
     19  CE2       70.9380   40.3200   53.3650 C.ar   40  TRP40       0.0810
     20  CE3       69.0400   39.9190   54.8050 C.ar   40  TRP40       0.0012
     21  CZ2       70.6560   39.1910   52.5960 C.ar   40  TRP40       0.0191
     22  CZ3       68.7600   38.7960   54.0400 C.ar   40  TRP40       0.0001
     23  CH2       69.5660   38.4440   52.9480 C.ar   40  TRP40       0.0015
     24  N         72.1470   40.1200   57.2080 N.am   41  PRO41      -0.2718
     25  CA        72.2000   38.6610   57.4090 C.3    41  PRO41       0.1535
     26  C         72.3210   38.2660   58.8690 C.2    41  PRO41       0.2598
     27  O         71.9890   37.1250   59.2160 O.2    41  PRO41      -0.2715
     28  CB        73.4450   38.2310   56.6160 C.3    41  PRO41       0.0310
     29  CG        73.7720   39.3800   55.7350 C.3    41  PRO41       0.0237
     30  CD        73.3640   40.5800   56.5170 C.3    41  PRO41       0.0939
     31  N         72.7780   39.1700   59.7290 N.am   42  PHE42      -0.1974
     32  CA        72.9530   38.9010   61.1480 C.3    42  PHE42       0.1639
     33  C         71.8130   39.4460   61.9970 C.2    42  PHE42       0.2290
     34  O         71.8220   39.2540   63.2150 O.2    42  PHE42      -0.2864
     35  CB        74.2900   39.4820   61.6220 C.3    42  PHE42       0.0560
     36  CG        75.4530   39.1060   60.7450 C.ar   42  PHE42      -0.0200
     37  CD1       76.1160   37.9050   60.9330 C.ar   42  PHE42      -0.0042
     38  CD2       75.8680   39.9400   59.7200 C.ar   42  PHE42      -0.0042
     39  CE1       77.1780   37.5500   60.1260 C.ar   42  PHE42      -0.0003
     40  CE2       76.9300   39.5870   58.9070 C.ar   42  PHE42      -0.0003
     41  CZ        77.5860   38.3920   59.1120 C.ar   42  PHE42      -0.0000
     42  N         68.8570   38.3320   62.1190 N.3    44  GLN44      -0.1231
     43  CA        67.9300   37.2590   62.4500 C.3    44  GLN44       0.1683
     44  C         68.6880   35.9420   62.3900 C.2    44  GLN44       0.2434
     45  O         69.7570   35.8690   61.7720 O.2    44  GLN44      -0.2733
     46  CB        66.7300   37.2360   61.4870 C.3    44  GLN44       0.0380
     47  CG        67.0850   36.9100   60.0480 C.3    44  GLN44       0.0905
     48  CD        67.7170   38.0760   59.3260 C.2    44  GLN44       0.2608
     49  OE1       67.1990   39.1920   59.3560 O.2    44  GLN44      -0.2717
     50  NE2       68.8440   37.8260   58.6700 N.am   44  GLN44      -0.0878
     51  N         68.1760   34.8910   63.0340 N.am   45  PRO45      -0.2718
     52  CA        68.8480   33.5890   62.9570 C.3    45  PRO45       0.1535
     53  C         68.9500   33.1000   61.5200 C.2    45  PRO45       0.2598
     54  O         68.1460   33.4600   60.6580 O.2    45  PRO45      -0.2715
     55  CB        67.9490   32.6750   63.7950 C.3    45  PRO45       0.0310
     56  CG        67.2980   33.5860   64.7650 C.3    45  PRO45       0.0237
     57  CD        67.1010   34.8940   64.0420 C.3    45  PRO45       0.0939
     58  N         69.9680   32.2770   61.2670 N.am   46  VAL46      -0.1964
     59  CA        70.1440   31.6930   59.9420 C.3    46  VAL46       0.1727
     60  C         68.9750   30.7650   59.6500 C.2    46  VAL46       0.2616
     61  O         68.7070   29.8220   60.4050 O.2    46  VAL46      -0.2715
     62  CB        71.4800   30.9510   59.8500 C.3    46  VAL46       0.0290
     63  CG1       71.5110   30.0750   58.6070 C.3    46  VAL46       0.0023
     64  CG2       72.6350   31.9400   59.8370 C.3    46  VAL46       0.0023
     65  N         68.2660   31.0320   58.5560 N.am   47  ASP47      -0.1971
     66  CA        67.1640   30.1750   58.1200 C.3    47  ASP47       0.1709
     67  C         67.7760   29.0930   57.2440 C.2    47  ASP47       0.2293
     68  O         67.8400   29.2150   56.0210 O.2    47  ASP47      -0.2864
     69  CB        66.1030   30.9830   57.3820 C.3    47  ASP47       0.1436
     70  CG        64.8260   30.1940   57.1350 C.2    47  ASP47       0.3671
     71  OD1       64.8860   28.9470   57.0830 O.co2  47  ASP47      -0.2456
     72  OD2       63.7580   30.8250   56.9870 O.co2  47  ASP47      -0.2456
     73  N         67.8270   28.7420   53.0730 N.3    51  LEU51      -0.1245
     74  CA        69.1560   28.8640   52.4870 C.3    51  LEU51       0.1561
     75  C         69.6980   27.5420   51.9610 C.2    51  LEU51       0.2260
     76  O         70.7670   27.5380   51.3390 O.2    51  LEU51      -0.2867
     77  CB        70.1320   29.4420   53.5150 C.3    51  LEU51       0.0270
     78  CG        69.8420   30.8630   54.0050 C.3    51  LEU51       0.0019
     79  CD1       70.7610   31.2390   55.1550 C.3    51  LEU51       0.0001
     80  CD2       69.9720   31.8670   52.8700 C.3    51  LEU51       0.0001
     81  N         70.9370   24.8720   53.6190 N.3    53  LEU53      -0.1245
     82  CA        72.1840   24.6000   54.3310 C.3    53  LEU53       0.1561
     83  C         71.9280   23.5310   55.3890 C.2    53  LEU53       0.2260
     84  O         71.9410   23.8170   56.5940 O.2    53  LEU53      -0.2867
     85  CB        72.7410   25.8680   54.9750 C.3    53  LEU53       0.0270
     86  CG        72.9670   27.0670   54.0570 C.3    53  LEU53       0.0019
     87  CD1       73.4400   28.2650   54.8660 C.3    53  LEU53       0.0001
     88  CD2       73.9550   26.7200   52.9590 C.3    53  LEU53       0.0001
     89  N         74.3790   23.3590   58.4300 N.3    56  TYR56      -0.1241
     90  CA        74.7360   24.5310   59.2270 C.3    56  TYR56       0.1605
     91  C         74.5910   24.2470   60.7160 C.2    56  TYR56       0.2264
     92  O         75.5380   24.4290   61.4900 O.2    56  TYR56      -0.2867
     93  CB        73.8860   25.7380   58.8290 C.3    56  TYR56       0.0534
     94  CG        74.3080   27.0090   59.5410 C.ar   56  TYR56      -0.0201
     95  CD1       73.7840   27.3450   60.7850 C.ar   56  TYR56      -0.0009
     96  CD2       75.2520   27.8580   58.9800 C.ar   56  TYR56      -0.0009
     97  CE1       74.1800   28.4970   61.4430 C.ar   56  TYR56       0.0417
     98  CE2       75.6530   29.0120   59.6280 C.ar   56  TYR56       0.0417
     99  CZ        75.1140   29.3280   60.8590 C.ar   56  TYR56       0.1957
    100  OH        75.5150   30.4790   61.5020 O.3    56  TYR56      -0.2866
    101  N         80.0290   32.4500   61.9110 N.3    95  CYS95      -0.1235
    102  CA        80.0980   32.8700   60.5140 C.3    95  CYS95       0.1677
    103  C         81.4310   32.4840   59.8830 C.2    95  CYS95       0.2270
    104  O         81.4670   31.9800   58.7530 O.2    95  CYS95      -0.2867
    105  CB        79.8730   34.3760   60.3990 C.3    95  CYS95       0.0956
    106  SG        79.7410   34.9520   58.6900 S.3    95  CYS95      -0.0801
    107  N         81.5470   28.2670   59.4940 N.3    98  TYR98      -0.1227
    108  CA        80.8150   27.4970   58.4900 C.3    98  TYR98       0.1736
    109  C         81.2780   27.8290   57.0750 C.2    98  TYR98       0.2595
    110  O         81.2750   26.9520   56.2040 O.2    98  TYR98      -0.2718
    111  CB        79.3050   27.7120   58.6130 C.3    98  TYR98       0.0548
    112  CG        78.5310   27.0110   57.5110 C.ar   98  TYR98      -0.0200
    113  CD1       78.2890   25.6460   57.5690 C.ar   98  TYR98      -0.0009
    114  CD2       78.0540   27.7090   56.4110 C.ar   98  TYR98      -0.0009
    115  CE1       77.5960   25.0010   56.5610 C.ar   98  TYR98       0.0417
    116  CE2       77.3630   27.0750   55.4000 C.ar   98  TYR98       0.0417
    117  CZ        77.1330   25.7200   55.4800 C.ar   98  TYR98       0.1957
    118  OH        76.4410   25.0850   54.4740 O.3    98  TYR98      -0.2866
    119  N         81.6960   29.0640   56.8290 N.am   99  ASN99      -0.1974
    120  CA        81.9810   29.4990   55.4690 C.3    99  ASN99       0.1688
    121  C         83.4530   29.2400   55.1470 C.2    99  ASN99       0.2292
    122  O         84.1220   28.4560   55.8250 O.2    99  ASN99      -0.2864
    123  CB        81.6040   30.9730   55.2940 C.3    99  ASN99       0.1181
    124  CG        80.1170   31.2170   55.4050 C.2    99  ASN99       0.2629
    125  OD1       79.6250   32.2560   54.9940 O.2    99  ASN99      -0.2716
    126  ND2       79.3970   30.2680   55.9620 N.am   99  ASN99      -0.0877
    127  N         82.1380   36.4690   50.4210 N.3   104  ASP104     -0.1225
    128  CA        81.5620   37.8020   50.5910 C.3   104  ASP104      0.1805
    129  C         81.0510   38.0070   52.0120 C.2   104  ASP104      0.2597
    130  O         81.3560   39.0140   52.6650 O.2   104  ASP104     -0.2718
    131  CB        80.4250   38.0070   49.5870 C.3   104  ASP104      0.1424
    132  CG        80.9210   38.2870   48.1810 C.2   104  ASP104      0.3668
    133  OD1       82.0670   38.7590   48.0280 O.co2 104  ASP104     -0.2456
    134  OD2       80.1580   38.0350   47.2250 O.co2 104  ASP104     -0.2456
    135  N         80.2690   37.0480   52.5040 N.am  105  ILE105     -0.1980
    136  CA        79.7080   37.1430   53.8440 C.3   105  ILE105      0.1595
    137  C         80.7940   37.0550   54.9140 C.2   105  ILE105      0.2287
    138  O         80.6560   37.6460   55.9910 O.2   105  ILE105     -0.2864
    139  CB        78.6240   36.0620   53.9950 C.3   105  ILE105      0.0276
    140  CG1       78.0540   36.0320   55.4170 C.3   105  ILE105      0.0022
    141  CG2       79.1400   34.7300   53.4800 C.3   105  ILE105      0.0022
    142  CD1       77.2590   37.2580   55.7730 C.3   105  ILE105      0.0001
    143  N         82.0310   40.5420   55.0740 N.3   108  MET108     -0.1245
    144  CA        81.0470   41.3650   55.7710 C.3   108  MET108      0.1570
    145  C         81.1160   41.1480   57.2790 C.2   108  MET108      0.2261
    146  O         81.0550   42.1070   58.0610 O.2   108  MET108     -0.2867
    147  CB        79.6490   41.0520   55.2420 C.3   108  MET108      0.0387
    148  CG        79.4280   41.4820   53.8040 C.3   108  MET108      0.0595
    149  SD        77.8990   40.8160   53.1190 S.3   108  MET108     -0.1393
    150  CE        76.7270   41.2260   54.4110 C.3   108  MET108      0.0692
@<TRIPOS>BOND
     1   134   132   ar
     2   133   132   ar
     3   132   131    1
     4   131   128    1
     5   127   128    1
     6   128   129    1
     7     9     7   am
     8    76    75    2
     9    75    74    1
    10   129   135   am
    11   129   130    2
    12     7     8    2
    13     7     6    1
    14    74    73    1
    15    74    77    1
    16   135   136    1
    17    21    23   ar
    18    21    19   ar
    19    80    78    1
    20    23    22   ar
    21    88    86    1
    22     6     5    1
    23   149   148    1
    24   149   150    1
    25    18    19   ar
    26    18    16   ar
    27    19    17   ar
    28   141   139    1
    29    77    78    1
    30    81    82    1
    31   148   147    1
    32   136   139    1
    33   136   137    1
    34   139   140    1
    35    78    79    1
    36    22    20   ar
    37    86    87    1
    38    86    85    1
    39    16    15   ar
    40    82    85    1
    41    82    83    1
    42     5     2    1
    43    17    20   ar
    44    17    15   ar
    45   118   117    1
    46     4     3    2
    47   137   138    2
    48   125   124    2
    49    15    14    1
    50   143   144    1
    51   121   120    1
    52   121   122    2
    53   147   144    1
    54   123   124    1
    55   123   120    1
    56    83    84    2
    57   116   117   ar
    58   116   114   ar
    59     3     2    1
    60   124   126   am
    61   140   142    1
    62     2     1    1
    63   120   119    1
    64   117   115   ar
    65    29    30    1
    66    29    28    1
    67   144   145    1
    68    68    67    2
    69    14    11    1
    70   110   109    2
    71   114   112   ar
    72    30    24    1
    73   115   113   ar
    74    28    25    1
    75   119   109   am
    76    72    70   ar
    77   109   108    1
    78    71    70   ar
    79    70    69    1
    80    24    25    1
    81    24    12   am
    82    67    66    1
    83   145   146    2
    84    69    66    1
    85    25    26    1
    86   112   113   ar
    87   112   111    1
    88    11    10    1
    89    11    12    1
    90    12    13    2
    91    66    65    1
    92    89    90    1
    93   108   111    1
    94   108   107    1
    95    65    60   am
    96    63    62    1
    97    50    48   am
    98   106   105    1
    99   104   103    2
   100    93    90    1
   101    93    94    1
   102    26    27    2
   103    26    31   am
   104    40    41   ar
   105    40    38   ar
   106    96    94   ar
   107    96    98   ar
   108    41    39   ar
   109    90    91    1
   110    48    49    2
   111    48    47    1
   112    94    95   ar
   113    98    99   ar
   114    60    59    1
   115    60    61    2
   116    38    36   ar
   117    31    32    1
   118    64    62    1
   119    62    59    1
   120   103   102    1
   121    59    58    1
   122    47    46    1
   123    39    37   ar
   124   105   102    1
   125   102   101    1
   126    54    53    2
   127    91    92    2
   128    36    37   ar
   129    36    35    1
   130    95    97   ar
   131    99    97   ar
   132    99   100    1
   133    32    35    1
   134    32    33    1
   135    58    53   am
   136    46    43    1
   137    53    52    1
   138    45    44    2
   139    33    34    2
   140    42    43    1
   141    44    43    1
   142    44    51   am
   143    52    51    1
   144    52    55    1
   145    51    57    1
   146    55    56    1
   147    57    56    1
