@<TRIPOS>MOLECULE
tmp/6boyB00.pdb
 153 157 0 0 0
SMALL
GASTEIGER

@<TRIPOS>ATOM
      1  N         84.2690   45.7730   47.6980 N.3    59  PHE59      -0.1241
      2  CA        84.9840   45.6330   48.9590 C.3    59  PHE59       0.1605
      3  C         86.0010   44.5010   48.9690 C.2    59  PHE59       0.2264
      4  O         86.7230   44.3620   49.9620 O.2    59  PHE59      -0.2867
      5  CB        84.0020   45.4360   50.1270 C.3    59  PHE59       0.0534
      6  CG        82.9040   44.4470   49.8480 C.ar   59  PHE59      -0.0203
      7  CD1       81.7480   44.8420   49.1940 C.ar   59  PHE59      -0.0042
      8  CD2       83.0200   43.1260   50.2520 C.ar   59  PHE59      -0.0042
      9  CE1       80.7360   43.9420   48.9380 C.ar   59  PHE59      -0.0003
     10  CE2       82.0060   42.2180   49.9990 C.ar   59  PHE59      -0.0003
     11  CZ        80.8630   42.6280   49.3410 C.ar   59  PHE59      -0.0000
     12  N         72.8250   47.4070   45.0310 N.3   299  ASN299     -0.1226
     13  CA        72.3560   47.0550   46.3640 C.3   299  ASN299      0.1770
     14  C         73.5230   47.0700   47.3430 C.2   299  ASN299      0.2439
     15  O         74.6770   47.2520   46.9480 O.2   299  ASN299     -0.2733
     16  CB        71.6640   45.6910   46.3060 C.3   299  ASN299      0.1168
     17  CG        72.6380   44.5370   46.3590 C.2   299  ASN299      0.2627
     18  OD1       73.7520   44.6210   45.8440 O.2   299  ASN299     -0.2716
     19  ND2       72.2240   43.4480   46.9910 N.am  299  ASN299     -0.0877
     20  N         73.2660   46.8920   48.6590 N.am  300  PRO300     -0.2718
     21  CA        74.3650   46.9820   49.6350 C.3   300  PRO300      0.1535
     22  C         75.4750   45.9520   49.4680 C.2   300  PRO300      0.2598
     23  O         76.4560   45.9940   50.2180 O.2   300  PRO300     -0.2715
     24  CB        73.6510   46.7880   50.9790 C.3   300  PRO300      0.0310
     25  CG        72.2760   47.2540   50.7400 C.3   300  PRO300      0.0237
     26  CD        71.9540   46.8620   49.3350 C.3   300  PRO300      0.0939
     27  N         75.3580   45.0330   48.5070 N.am  301  HIS301     -0.1974
     28  CA        76.3280   43.9520   48.3590 C.3   301  HIS301      0.1656
     29  C         76.9850   43.9420   46.9840 C.2   301  HIS301      0.2291
     30  O         77.5890   42.9360   46.5960 O.2   301  HIS301     -0.2864
     31  CB        75.6550   42.6110   48.6450 C.3   301  HIS301      0.0771
     32  CG        74.7750   42.6450   49.8510 C.ar  301  HIS301      0.0820
     33  ND1       75.2750   42.6090   51.1350 N.ar  301  HIS301     -0.2267
     34  CD2       73.4320   42.7550   49.9710 C.ar  301  HIS301      0.1154
     35  CE1       74.2750   42.6750   51.9940 C.ar  301  HIS301      0.1986
     36  NE2       73.1460   42.7680   51.3140 N.ar  301  HIS301     -0.2212
     37  N         75.5740   43.8980   44.0820 N.3   303  TYR303     -0.1241
     38  CA        74.7100   43.3890   43.0260 C.3   303  TYR303      0.1605
     39  C         74.0180   44.5420   42.3120 C.2   303  TYR303      0.2264
     40  O         73.5720   45.5070   42.9400 O.2   303  TYR303     -0.2867
     41  CB        73.6720   42.4230   43.5990 C.3   303  TYR303      0.0534
     42  CG        74.2590   41.1330   44.1290 C.ar  303  TYR303     -0.0201
     43  CD1       74.7390   41.0440   45.4300 C.ar  303  TYR303     -0.0009
     44  CD2       74.3340   40.0030   43.3250 C.ar  303  TYR303     -0.0009
     45  CE1       75.2780   39.8650   45.9160 C.ar  303  TYR303      0.0417
     46  CE2       74.8720   38.8200   43.8020 C.ar  303  TYR303      0.0417
     47  CZ        75.3420   38.7570   45.0980 C.ar  303  TYR303      0.1957
     48  OH        75.8790   37.5840   45.5780 O.3   303  TYR303     -0.2866
     49  N         71.0060   45.8390   39.7930 N.3   305  HIS305     -0.1241
     50  CA        69.6670   45.5630   39.2940 C.3   305  HIS305      0.1621
     51  C         69.2280   46.6930   38.3730 C.2   305  HIS305      0.2264
     52  O         69.3210   47.8710   38.7380 O.2   305  HIS305     -0.2867
     53  CB        68.6690   45.4010   40.4450 C.3   305  HIS305      0.0745
     54  CG        68.7990   44.1040   41.1800 C.ar  305  HIS305      0.0817
     55  ND1       68.8980   44.0330   42.5530 N.ar  305  HIS305     -0.2268
     56  CD2       68.8400   42.8270   40.7340 C.ar  305  HIS305      0.1154
     57  CE1       68.9970   42.7690   42.9210 C.ar  305  HIS305      0.1986
     58  NE2       68.9640   42.0160   41.8360 N.ar  305  HIS305     -0.2212
     59  N         66.2230   51.5720   54.4130 N.3   325  GLU325     -0.1231
     60  CA        67.6670   51.3930   54.3730 C.3   325  GLU325      0.1699
     61  C         68.1290   51.1460   52.9420 C.2   325  GLU325      0.2592
     62  O         67.6260   50.2440   52.2640 O.2   325  GLU325     -0.2718
     63  CB        68.0810   50.2270   55.2700 C.3   325  GLU325      0.0402
     64  CG        67.6780   50.3830   56.7300 C.3   325  GLU325      0.1161
     65  CD        68.3810   51.5400   57.4120 C.2   325  GLU325      0.3649
     66  OE1       69.5460   51.8200   57.0590 O.co2 325  GLU325     -0.2457
     67  OE2       67.7690   52.1670   58.3020 O.co2 325  GLU325     -0.2457
     68  N         69.0830   51.9600   52.4860 N.am  326  HIS326     -0.1962
     69  CA        69.6870   51.8110   51.1610 C.3   326  HIS326      0.1787
     70  C         68.6380   51.9120   50.0560 C.2   326  HIS326      0.2621
     71  O         68.6780   51.1790   49.0660 O.2   326  HIS326     -0.2715
     72  CB        70.4620   50.4950   51.0580 C.3   326  HIS326      0.0785
     73  CG        71.6870   50.5770   50.2040 C.ar  326  HIS326      0.0821
     74  ND1       71.6950   50.2100   48.8760 N.ar  326  HIS326     -0.2267
     75  CD2       72.9500   50.9740   50.4930 C.ar  326  HIS326      0.1154
     76  CE1       72.9080   50.3820   48.3810 C.ar  326  HIS326      0.1986
     77  NE2       73.6880   50.8450   49.3420 N.ar  326  HIS326     -0.2212
     78  N         67.6880   52.8290   50.2250 N.am  327  SER327     -0.1936
     79  CA        66.6280   53.0140   49.2440 C.3   327  SER327      0.2055
     80  C         67.1610   53.7570   48.0270 C.2   327  SER327      0.2643
     81  O         67.7950   54.8090   48.1580 O.2   327  SER327     -0.2714
     82  CB        65.4560   53.7780   49.8590 C.3   327  SER327      0.2130
     83  OG        64.4460   54.0180   48.8940 O.3   327  SER327     -0.2179
     84  N         66.9000   53.2070   46.8400 N.am  328  TRP328     -0.1973
     85  CA        67.3630   53.8420   45.6110 C.3   328  TRP328      0.1640
     86  C         66.5800   55.1110   45.3030 C.2   328  TRP328      0.2290
     87  O         67.1210   56.0380   44.6900 O.2   328  TRP328     -0.2864
     88  CB        67.2640   52.8560   44.4480 C.3   328  TRP328      0.0576
     89  CG        68.1630   51.6740   44.6110 C.ar  328  TRP328      0.0006
     90  CD1       69.3860   51.6550   45.2130 C.ar  328  TRP328      0.0946
     91  CD2       67.9070   50.3320   44.1800 C.ar  328  TRP328      0.0152
     92  NE1       69.9130   50.3870   45.1760 N.ar  328  TRP328     -0.2442
     93  CE2       69.0240   49.5560   44.5460 C.ar  328  TRP328      0.0810
     94  CE3       66.8460   49.7140   43.5140 C.ar  328  TRP328      0.0012
     95  CZ2       69.1090   48.1940   44.2710 C.ar  328  TRP328      0.0191
     96  CZ3       66.9330   48.3600   43.2430 C.ar  328  TRP328      0.0001
     97  CH2       68.0550   47.6160   43.6210 C.ar  328  TRP328      0.0015
     98  N         61.0290   50.2420   50.3870 N.3   334  TRP334     -0.1241
     99  CA        60.8920   49.1100   49.4840 C.3   334  TRP334      0.1605
    100  C         60.4180   47.8690   50.2290 C.2   334  TRP334      0.2264
    101  O         60.6540   47.7080   51.4290 O.2   334  TRP334     -0.2867
    102  CB        62.2170   48.8120   48.7820 C.3   334  TRP334      0.0550
    103  CG        63.3780   48.6660   49.7170 C.ar  334  TRP334      0.0003
    104  CD1       64.2650   49.6360   50.0800 C.ar  334  TRP334      0.0946
    105  CD2       63.7800   47.4760   50.4060 C.ar  334  TRP334      0.0152
    106  NE1       65.1960   49.1250   50.9510 N.ar  334  TRP334     -0.2442
    107  CE2       64.9200   47.8010   51.1680 C.ar  334  TRP334      0.0810
    108  CE3       63.2890   46.1680   50.4520 C.ar  334  TRP334      0.0012
    109  CZ2       65.5740   46.8670   51.9650 C.ar  334  TRP334      0.0191
    110  CZ3       63.9390   45.2440   51.2440 C.ar  334  TRP334      0.0001
    111  CH2       65.0690   45.5970   51.9900 C.ar  334  TRP334      0.0015
    112  N         60.1430   43.5550   49.3550 N.3   336  VAL336     -0.1245
    113  CA        60.4920   42.5110   48.3980 C.3   336  VAL336      0.1561
    114  C         59.2330   41.9250   47.7720 C.2   336  VAL336      0.2260
    115  O         58.2370   41.6580   48.4560 O.2   336  VAL336     -0.2867
    116  CB        61.3310   41.4230   49.0890 C.3   336  VAL336      0.0252
    117  CG1       61.6270   40.2820   48.1280 C.3   336  VAL336      0.0019
    118  CG2       62.6210   42.0170   49.6310 C.3   336  VAL336      0.0019
    119  N         62.0360   36.1870   42.6630 N.3   345  HIS345     -0.1241
    120  CA        62.0950   37.6140   42.9620 C.3   345  HIS345      0.1621
    121  C         61.9020   38.4290   41.6880 C.2   345  HIS345      0.2264
    122  O         62.6840   38.3040   40.7400 O.2   345  HIS345     -0.2867
    123  CB        63.4310   37.9530   43.6180 C.3   345  HIS345      0.0745
    124  CG        63.6660   39.4210   43.7850 C.ar  345  HIS345      0.0817
    125  ND1       64.6850   40.0890   43.1410 N.ar  345  HIS345     -0.2268
    126  CD2       63.0150   40.3500   44.5220 C.ar  345  HIS345      0.1154
    127  CE1       64.6510   41.3660   43.4750 C.ar  345  HIS345      0.1986
    128  NE2       63.6470   41.5510   44.3120 N.ar  345  HIS345     -0.2212
    129  N         60.5410   45.0070   43.7780 N.3   348  TRP348     -0.1241
    130  CA        60.1410   45.5820   45.0520 C.3   348  TRP348      0.1605
    131  C         58.9260   46.4760   44.8530 C.2   348  TRP348      0.2264
    132  O         58.6740   46.9870   43.7590 O.2   348  TRP348     -0.2867
    133  CB        61.2780   46.3880   45.6950 C.3   348  TRP348      0.0550
    134  CG        62.5620   45.6350   45.8030 C.ar  348  TRP348      0.0003
    135  CD1       63.0190   44.9440   46.8870 C.ar  348  TRP348      0.0946
    136  CD2       63.5590   45.4940   44.7870 C.ar  348  TRP348      0.0152
    137  NE1       64.2410   44.3820   46.6080 N.ar  348  TRP348     -0.2442
    138  CE2       64.5940   44.7040   45.3240 C.ar  348  TRP348      0.0810
    139  CE3       63.6770   45.9580   43.4740 C.ar  348  TRP348      0.0012
    140  CZ2       65.7320   44.3700   44.5950 C.ar  348  TRP348      0.0191
    141  CZ3       64.8060   45.6250   42.7530 C.ar  348  TRP348      0.0001
    142  CH2       65.8190   44.8390   43.3140 C.ar  348  TRP348      0.0015
    143  N         57.6590   49.9500   46.1980 N.3   350  PHE350     -0.1241
    144  CA        58.0990   51.1480   46.8940 C.3   350  PHE350      0.1605
    145  C         56.8880   51.9460   47.3550 C.2   350  PHE350      0.2264
    146  O         55.9800   52.2220   46.5630 O.2   350  PHE350     -0.2867
    147  CB        58.9880   52.0010   45.9910 C.3   350  PHE350      0.0534
    148  CG        60.3240   51.3840   45.6970 C.ar  350  PHE350     -0.0203
    149  CD1       60.4560   50.4150   44.7160 C.ar  350  PHE350     -0.0042
    150  CD2       61.4500   51.7750   46.4010 C.ar  350  PHE350     -0.0042
    151  CE1       61.6850   49.8480   44.4440 C.ar  350  PHE350     -0.0003
    152  CE2       62.6810   51.2110   46.1330 C.ar  350  PHE350     -0.0003
    153  CZ        62.7990   50.2460   45.1540 C.ar  350  PHE350     -0.0000
@<TRIPOS>BOND
     1    51    52    2
     2    51    50    1
     3    50    49    1
     4    50    53    1
     5    53    54    1
     6    56    54   ar
     7    56    58   ar
     8   122   121    2
     9    54    55   ar
    10   121   120    1
    11    58    57   ar
    12    39    40    2
    13    39    38    1
    14    55    57   ar
    15   119   120    1
    16   141   142   ar
    17   141   139   ar
    18   120   123    1
    19    38    41    1
    20    38    37    1
    21   125   127   ar
    22   125   124   ar
    23    96    94   ar
    24    96    97   ar
    25   142   140   ar
    26    44    46   ar
    27    44    42   ar
    28   139   136   ar
    29   127   128   ar
    30    94    91   ar
    31    41    42    1
    32   123   124    1
    33    97    95   ar
    34   132   131    2
    35   129   130    1
    36   124   126   ar
    37    46    47   ar
    38    42    43   ar
    39    91    93   ar
    40    91    89   ar
    41    95    93   ar
    42   128   126   ar
    43   151   149   ar
    44   151   153   ar
    45    88    89    1
    46    88    85    1
    47    93    92   ar
    48   140   138   ar
    49    89    90   ar
    50    87    86    2
    51   149   148   ar
    52   136   138   ar
    53   136   134   ar
    54   131   130    1
    55    12    13    1
    56   130   133    1
    57    47    48    1
    58    47    45   ar
    59   153   152   ar
    60    92    90   ar
    61    86    85    1
    62   138   137   ar
    63    43    45   ar
    64    85    84    1
    65   133   134    1
    66   148   147    1
    67   148   150   ar
    68   134   135   ar
    69    18    17    2
    70   147   144    1
    71   152   150   ar
    72   143   144    1
    73    16    17    1
    74    16    13    1
    75    17    19   am
    76    13    14    1
    77   146   145    2
    78    30    29    2
    79   137   135   ar
    80    84    80   am
    81   144   145    1
    82    15    14    2
    83    29    28    1
    84    14    20   am
    85     1     2    1
    86   114   113    1
    87   114   115    2
    88    80    81    2
    89    80    79    1
    90   117   116    1
    91    28    27    1
    92    28    31    1
    93    76    74   ar
    94    76    77   ar
    95   113   116    1
    96   113   112    1
    97    27    22   am
    98    31    32    1
    99    20    26    1
   100    20    21    1
   101   102    99    1
   102   102   103    1
   103    74    73   ar
   104    83    82    1
   105     9     7   ar
   106     9    11   ar
   107     2     3    1
   108     2     5    1
   109     3     4    2
   110    71    70    2
   111   116   118    1
   112     7     6   ar
   113    79    82    1
   114    79    78    1
   115    26    25    1
   116    11    10   ar
   117    77    75   ar
   118    22    21    1
   119    22    23    2
   120    99   100    1
   121    99    98    1
   122    21    24    1
   123   103   104   ar
   124   103   105   ar
   125     6     5    1
   126     6     8   ar
   127    32    34   ar
   128    32    33   ar
   129    34    36   ar
   130    10     8   ar
   131    70    78   am
   132    70    69    1
   133   104   106   ar
   134    73    75   ar
   135    73    72    1
   136   100   101    2
   137   105   108   ar
   138   105   107   ar
   139   108   110   ar
   140    25    24    1
   141   106   107   ar
   142    72    69    1
   143    33    35   ar
   144    69    68    1
   145   107   109   ar
   146   110   111   ar
   147    36    35   ar
   148   109   111   ar
   149    62    61    2
   150    68    61   am
   151    61    60    1
   152    60    59    1
   153    60    63    1
   154    63    64    1
   155    64    65    1
   156    66    65   ar
   157    65    67   ar
