@<TRIPOS>MOLECULE
tmp/6bp2A00.pdb
 78 72 0 0 0
SMALL
GASTEIGER

@<TRIPOS>ATOM
      1  N        179.5950   49.4100   55.5570 N.3    62  ASN62      -0.1240
      2  CA       180.4160   48.4920   54.7630 C.3    62  ASN62       0.1653
      3  C        180.9940   49.3500   53.6610 C.2    62  ASN62       0.2266
      4  O        180.3540   49.5710   52.6390 O.2    62  ASN62      -0.2867
      5  CB       179.6100   47.3210   54.2070 C.3    62  ASN62       0.1155
      6  CG       180.4700   46.3000   53.4510 C.2    62  ASN62       0.2627
      7  OD1      181.6890   46.3120   53.6240 O.2    62  ASN62      -0.2716
      8  ND2      179.8790   45.4550   52.6250 N.am   62  ASN62      -0.0877
      9  N        183.9920   50.9870   50.9460 N.3    64  SER64      -0.1217
     10  CA       185.1890   50.9220   50.1180 C.3    64  SER64       0.1889
     11  C        185.4220   52.2720   49.4710 C.2    64  SER64       0.2288
     12  O        184.5330   52.8150   48.8110 O.2    64  SER64      -0.2866
     13  CB       185.0970   49.8790   49.0520 C.3    64  SER64       0.2089
     14  OG       186.2660   49.9040   48.2800 O.3    64  SER64      -0.2183
     15  N        183.2610   40.8520   59.9570 N.3    83  ASP83      -0.1239
     16  CA       182.1610   41.8080   59.9980 C.3    83  ASP83       0.1674
     17  C        181.5670   41.9230   61.4130 C.2    83  ASP83       0.2266
     18  O        181.4210   40.9200   62.1220 O.2    83  ASP83      -0.2867
     19  CB       181.0680   41.3790   59.0140 C.3    83  ASP83       0.1410
     20  CG       181.4300   41.5960   57.5710 C.2    83  ASP83       0.3668
     21  OD1      182.2320   42.4520   57.2790 O.co2  83  ASP83      -0.2456
     22  OD2      180.9030   40.8810   56.7590 O.co2  83  ASP83      -0.2456
     23  N        172.8520   48.0120   57.8380 N.3    90  VAL90      -0.1245
     24  CA       174.1820   48.2390   57.2800 C.3    90  VAL90       0.1561
     25  C        174.1230   49.2360   56.1170 C.2    90  VAL90       0.2260
     26  O        173.2480   49.1580   55.2510 O.2    90  VAL90      -0.2867
     27  CB       174.8320   46.9430   56.7790 C.3    90  VAL90       0.0252
     28  CG1      176.2070   47.2670   56.1930 C.3    90  VAL90       0.0019
     29  CG2      174.9700   45.9520   57.8970 C.3    90  VAL90       0.0019
     30  N        176.0220   50.2360   53.0050 N.3    92  HIS92      -0.1226
     31  CA       176.9810   49.8240   52.0130 C.3    92  HIS92       0.1752
     32  C        177.2980   51.0150   51.1740 C.2    92  HIS92       0.2596
     33  O        176.3980   51.6350   50.6220 O.2    92  HIS92      -0.2718
     34  CB       176.4080   48.7380   51.1650 C.3    92  HIS92       0.0759
     35  CG       176.0760   47.5170   51.9180 C.ar   92  HIS92       0.0818
     36  ND1      176.9840   46.5110   52.1750 N.ar   92  HIS92      -0.2268
     37  CD2      174.9130   47.1360   52.4770 C.ar   92  HIS92       0.1154
     38  CE1      176.3810   45.5620   52.8650 C.ar   92  HIS92       0.1986
     39  NE2      175.1290   45.9190   53.0620 N.ar   92  HIS92      -0.2212
     40  N        178.5620   51.3850   51.1470 N.am   93  ILE93      -0.1966
     41  CA       179.0200   52.5520   50.4050 C.3    93  ILE93       0.1727
     42  C        180.2690   52.2220   49.5940 C.2    93  ILE93       0.2616
     43  O        181.2070   51.6070   50.1040 O.2    93  ILE93      -0.2715
     44  CB       179.2870   53.7370   51.3660 C.3    93  ILE93       0.0290
     45  CG1      178.0020   54.1370   52.0880 C.3    93  ILE93       0.0022
     46  CG2      179.8830   54.9360   50.6480 C.3    93  ILE93       0.0023
     47  CD1      178.2350   55.1200   53.1990 C.3    93  ILE93       0.0001
     48  N        180.2800   52.6130   48.3290 N.am   94  GLN94      -0.1977
     49  CA       181.4360   52.3350   47.5090 C.3    94  GLN94       0.1601
     50  C        181.6770   53.5060   46.5880 C.2    94  GLN94       0.2287
     51  O        180.7670   53.9140   45.8670 O.2    94  GLN94      -0.2864
     52  CB       181.2170   51.0310   46.7490 C.3    94  GLN94       0.0394
     53  CG       182.4000   50.5310   45.9610 C.3    94  GLN94       0.0908
     54  CD       182.1120   49.1640   45.3740 C.2    94  GLN94       0.2608
     55  OE1      181.5080   48.3170   46.0390 O.2    94  GLN94      -0.2717
     56  NE2      182.5290   48.9410   44.1310 N.am   94  GLN94      -0.0878
     57  N        188.7460   48.2430   54.4600 N.3   124  ARG124     -0.1231
     58  CA       188.0030   48.1340   53.2280 C.3   124  ARG124      0.1694
     59  C        187.0910   46.9270   53.1800 C.2   124  ARG124      0.2592
     60  O        187.5510   45.7880   53.2720 O.2   124  ARG124     -0.2718
     61  CB       188.9510   48.0340   52.0470 C.3   124  ARG124      0.0321
     62  CG       188.2470   47.9700   50.6930 C.3   124  ARG124      0.0489
     63  CD       189.1910   47.7960   49.5660 C.3   124  ARG124      0.2205
     64  NE       189.9950   46.5960   49.7240 N.pl3 124  ARG124     -0.0865
     65  CZ       189.5720   45.3530   49.4420 C.cat 124  ARG124      0.5346
     66  NH1      188.3460   45.1470   49.0090 N.pl3 124  ARG124      0.1354
     67  NH2      190.4080   44.3480   49.6170 N.pl3 124  ARG124      0.1354
     68  N        185.8010   47.1780   52.9820 N.am  125  GLY125     -0.1957
     69  CA       184.8470   46.1050   52.7680 C.3   125  GLY125      0.1869
     70  C        184.4460   45.3410   53.9980 C.2   125  GLY125      0.2309
     71  O        183.8530   44.2630   53.8950 O.2   125  GLY125     -0.2863
     72  N        182.3340   45.2910   57.6430 N.3   127  VAL127     -0.1245
     73  CA       181.2510   45.9080   58.3620 C.3   127  VAL127      0.1561
     74  C        181.7090   46.3980   59.7000 C.2   127  VAL127      0.2260
     75  O        182.2330   45.6230   60.5020 O.2   127  VAL127     -0.2867
     76  CB       180.1030   44.9240   58.5630 C.3   127  VAL127      0.0252
     77  CG1      179.0320   45.5580   59.4060 C.3   127  VAL127      0.0019
     78  CG2      179.5290   44.5240   57.2340 C.3   127  VAL127      0.0019
@<TRIPOS>BOND
     1    56    54   am
     2    54    53    1
     3    54    55    2
     4    51    50    2
     5    53    52    1
     6    50    49    1
     7    52    49    1
     8    49    48    1
     9    14    13    1
    10    48    42   am
    11    12    11    2
    12    66    65    1
    13    13    10    1
    14    65    67    1
    15    65    64    2
    16    11    10    1
    17    63    64    1
    18    63    62    1
    19    42    43    2
    20    42    41    1
    21    10     9    1
    22    41    40    1
    23    41    44    1
    24    33    32    2
    25    46    44    1
    26    62    61    1
    27    40    32   am
    28    34    35    1
    29    34    31    1
    30    32    31    1
    31    44    45    1
    32    35    36   ar
    33    35    37   ar
    34    31    30    1
    35    61    58    1
    36    45    47    1
    37    36    38   ar
    38    37    39   ar
    39     8     6   am
    40     4     3    2
    41    69    68    1
    42    69    70    1
    43    38    39   ar
    44    68    59   am
    45    59    58    1
    46    59    60    2
    47    58    57    1
    48     6     7    2
    49     6     5    1
    50     3     2    1
    51    71    70    2
    52     5     2    1
    53     2     1    1
    54    26    25    2
    55    25    24    1
    56    28    27    1
    57    22    20   ar
    58    27    24    1
    59    27    29    1
    60    78    76    1
    61    21    20   ar
    62    24    23    1
    63    20    19    1
    64    72    73    1
    65    73    76    1
    66    73    74    1
    67    76    77    1
    68    19    16    1
    69    74    75    2
    70    15    16    1
    71    16    17    1
    72    17    18    2
