@<TRIPOS>MOLECULE
tmp/6bp4A00.pdb
 206 206 0 0 0
SMALL
GASTEIGER

@<TRIPOS>ATOM
      1  N         85.6800   -5.0390   69.3930 N.3   142  GLU142     -0.1231
      2  CA        84.7650   -4.5960   70.4370 C.3   142  GLU142      0.1699
      3  C         85.3730   -3.5820   71.3980 C.2   142  GLU142      0.2592
      4  O         84.6500   -3.0540   72.2510 O.2   142  GLU142     -0.2718
      5  CB        84.2670   -5.8070   71.2410 C.3   142  GLU142      0.0402
      6  CG        83.7160   -6.9410   70.3850 C.3   142  GLU142      0.1161
      7  CD        83.4230   -8.1950   71.1900 C.2   142  GLU142      0.3649
      8  OE1       82.4000   -8.2190   71.9060 O.co2 142  GLU142     -0.2457
      9  OE2       84.2220   -9.1540   71.1120 O.co2 142  GLU142     -0.2457
     10  N         86.6710   -3.3110   71.3020 N.am  143  LYS143     -0.1966
     11  CA        87.3490   -2.3090   72.1110 C.3   143  LYS143      0.1728
     12  C         87.6490   -1.0900   71.2450 C.2   143  LYS143      0.2617
     13  O         87.3580   -1.0650   70.0450 O.2   143  LYS143     -0.2715
     14  CB        88.6310   -2.8830   72.7100 C.3   143  LYS143      0.0311
     15  CG        88.4560   -4.2560   73.3370 C.3   143  LYS143      0.0038
     16  CD        89.7940   -4.9460   73.5190 C.3   143  LYS143      0.0206
     17  CE        89.6260   -6.4440   73.6860 C.3   143  LYS143      0.1093
     18  NZ        90.9370   -7.1250   73.8690 N.3   143  LYS143     -0.1314
     19  N         88.2510   -0.0720   71.8510 N.am  144  GLY144     -0.1940
     20  CA        88.5560    1.1130   71.0780 C.3   144  GLY144      0.2014
     21  C         89.7510    0.9120   70.1680 C.2   144  GLY144      0.2638
     22  O         89.6430    0.2830   69.1130 O.2   144  GLY144     -0.2714
     23  N         90.9100    1.3830   70.6000 N.am  145  TRP145     -0.1973
     24  CA        92.1430    1.2520   69.8480 C.3   145  TRP145      0.1640
     25  C         93.0600    0.2890   70.5820 C.2   145  TRP145      0.2290
     26  O         93.0480    0.2140   71.8130 O.2   145  TRP145     -0.2864
     27  CB        92.8370    2.6070   69.6980 C.3   145  TRP145      0.0576
     28  CG        92.1570    3.5440   68.7500 C.ar  145  TRP145      0.0006
     29  CD1       91.3550    4.5990   69.0750 C.ar  145  TRP145      0.0946
     30  CD2       92.2290    3.5220   67.3220 C.ar  145  TRP145      0.0152
     31  NE1       90.9170    5.2290   67.9370 N.ar  145  TRP145     -0.2442
     32  CE2       91.4410    4.5860   66.8460 C.ar  145  TRP145      0.0810
     33  CE3       92.8800    2.7020   66.3980 C.ar  145  TRP145      0.0012
     34  CZ2       91.2860    4.8510   65.4890 C.ar  145  TRP145      0.0191
     35  CZ3       92.7240    2.9670   65.0510 C.ar  145  TRP145      0.0001
     36  CH2       91.9360    4.0310   64.6100 C.ar  145  TRP145      0.0015
     37  N        105.5510    2.8490   80.1590 N.3   162  TYR162     -0.1241
     38  CA       104.2950    3.5760   80.2950 C.3   162  TYR162      0.1605
     39  C        104.6200    4.9880   80.7610 C.2   162  TYR162      0.2264
     40  O        105.1060    5.1840   81.8790 O.2   162  TYR162     -0.2867
     41  CB       103.3530    2.8810   81.2750 C.3   162  TYR162      0.0534
     42  CG       101.9220    3.3390   81.1230 C.ar  162  TYR162     -0.0201
     43  CD1      101.0850    2.7460   80.1890 C.ar  162  TYR162     -0.0009
     44  CD2      101.4140    4.3760   81.8940 C.ar  162  TYR162     -0.0009
     45  CE1       99.7790    3.1660   80.0290 C.ar  162  TYR162      0.0417
     46  CE2      100.1060    4.8020   81.7420 C.ar  162  TYR162      0.0417
     47  CZ        99.2940    4.1910   80.8050 C.ar  162  TYR162      0.1957
     48  OH        97.9910    4.5930   80.6340 O.3   162  TYR162     -0.2866
     49  N         83.4630    8.2990   79.7280 N.3   183  GLY183     -0.1210
     50  CA        84.8430    8.7220   79.6110 C.3   183  GLY183      0.1956
     51  C         85.8060    7.5530   79.6390 C.2   183  GLY183      0.2612
     52  O         85.5050    6.4620   80.1280 O.2   183  GLY183     -0.2717
     53  N         86.9950    7.7980   79.0950 N.am  184  ILE184     -0.1965
     54  CA        88.0600    6.8060   79.0320 C.3   184  ILE184      0.1727
     55  C         89.2350    7.3430   79.8340 C.2   184  ILE184      0.2617
     56  O         89.7690    8.4150   79.5210 O.2   184  ILE184     -0.2715
     57  CB        88.4780    6.5050   77.5840 C.3   184  ILE184      0.0290
     58  CG1       87.2840    5.9590   76.7910 C.3   184  ILE184      0.0022
     59  CG2       89.6170    5.4970   77.5760 C.3   184  ILE184      0.0023
     60  CD1       87.5550    5.7510   75.3040 C.3   184  ILE184      0.0001
     61  N         89.6370    6.6030   80.8600 N.am  185  THR185     -0.1937
     62  CA        90.7400    6.9950   81.7220 C.3   185  THR185      0.2028
     63  C         91.9990    6.2170   81.3590 C.2   185  THR185      0.2642
     64  O         91.9450    5.1440   80.7520 O.2   185  THR185     -0.2714
     65  CB        90.3960    6.7590   83.1950 C.3   185  THR185      0.1808
     66  OG1       90.3630    5.3510   83.4650 O.3   185  THR185     -0.2208
     67  CG2       89.0470    7.3750   83.5370 C.3   185  THR185      0.0379
     68  N         93.1420    6.7730   81.7490 N.am  186  TYR186     -0.1973
     69  CA        94.4420    6.1830   81.4430 C.3   186  TYR186      0.1639
     70  C         95.3840    6.3330   82.6370 C.2   186  TYR186      0.2290
     71  O         96.5440    6.7240   82.5000 O.2   186  TYR186     -0.2864
     72  CB        95.0450    6.8270   80.1950 C.3   186  TYR186      0.0560
     73  CG        94.0870    6.9650   79.0330 C.ar  186  TYR186     -0.0198
     74  CD1       93.2880    8.0950   78.8960 C.ar  186  TYR186     -0.0009
     75  CD2       93.9890    5.9740   78.0670 C.ar  186  TYR186     -0.0009
     76  CE1       92.4130    8.2290   77.8310 C.ar  186  TYR186      0.0417
     77  CE2       93.1170    6.0990   76.9990 C.ar  186  TYR186      0.0417
     78  CZ        92.3320    7.2260   76.8860 C.ar  186  TYR186      0.1957
     79  OH        91.4670    7.3440   75.8190 O.3   186  TYR186     -0.2866
     80  N         99.7840    3.7690   75.9080 N.3   211  ARG211     -0.1231
     81  CA        98.4830    4.2740   76.3260 C.3   211  ARG211      0.1694
     82  C         97.3440    3.4640   75.7210 C.2   211  ARG211      0.2592
     83  O         96.2620    3.3800   76.3130 O.2   211  ARG211     -0.2718
     84  CB        98.3510    5.7470   75.9450 C.3   211  ARG211      0.0321
     85  CG        96.9770    6.3270   76.2120 C.3   211  ARG211      0.0489
     86  CD        96.9650    7.8230   75.9740 C.3   211  ARG211      0.2205
     87  NE        96.6690    8.1940   74.5930 N.pl3 211  ARG211     -0.0865
     88  CZ        95.4440    8.2750   74.0800 C.cat 211  ARG211      0.5346
     89  NH1       94.3850    8.0020   74.8270 N.pl3 211  ARG211      0.1354
     90  NH2       95.2760    8.6300   72.8120 N.pl3 211  ARG211      0.1354
     91  N         97.5620    2.8720   74.5450 N.am  212  PHE212     -0.1962
     92  CA        96.5340    2.1330   73.8230 C.3   212  PHE212      0.1771
     93  C         96.5020    0.6430   74.1600 C.2   212  PHE212      0.2620
     94  O         95.7470   -0.1040   73.5280 O.2   212  PHE212     -0.2715
     95  CB        96.7280    2.3130   72.3170 C.3   212  PHE212      0.0574
     96  CG        96.7290    3.7450   71.8760 C.ar  212  PHE212     -0.0200
     97  CD1       95.5400    4.4010   71.6080 C.ar  212  PHE212     -0.0042
     98  CD2       97.9180    4.4350   71.7220 C.ar  212  PHE212     -0.0042
     99  CE1       95.5380    5.7180   71.2010 C.ar  212  PHE212     -0.0003
    100  CE2       97.9200    5.7540   71.3120 C.ar  212  PHE212     -0.0003
    101  CZ        96.7310    6.3930   71.0510 C.ar  212  PHE212     -0.0000
    102  N         97.3040    0.1870   75.1200 N.am  213  PHE213     -0.1960
    103  CA        97.2510   -1.2120   75.5240 C.3   213  PHE213      0.1771
    104  C         95.8940   -1.5330   76.1400 C.2   213  PHE213      0.2620
    105  O         95.4010   -0.8010   77.0030 O.2   213  PHE213     -0.2715
    106  CB        98.3700   -1.5230   76.5190 C.3   213  PHE213      0.0574
    107  CG        99.7580   -1.5530   75.9100 C.ar  213  PHE213     -0.0200
    108  CD1       99.9480   -1.5020   74.5370 C.ar  213  PHE213     -0.0042
    109  CD2      100.8760   -1.6520   76.7230 C.ar  213  PHE213     -0.0042
    110  CE1      101.2240   -1.5400   73.9950 C.ar  213  PHE213     -0.0003
    111  CE2      102.1500   -1.6900   76.1810 C.ar  213  PHE213     -0.0003
    112  CZ       102.3210   -1.6350   74.8190 C.ar  213  PHE213     -0.0000
    113  N         95.2890   -2.6270   75.6880 N.am  214  ASN214     -0.1958
    114  CA        93.9880   -3.0460   76.1870 C.3   214  ASN214      0.1819
    115  C         94.1460   -4.0470   77.3270 C.2   214  ASN214      0.2621
    116  O         95.1690   -4.7230   77.4620 O.2   214  ASN214     -0.2715
    117  CB        93.1470   -3.6610   75.0660 C.3   214  ASN214      0.1195
    118  CG        92.6400   -2.6250   74.0790 C.2   214  ASN214      0.2630
    119  OD1       91.9760   -1.6590   74.4580 O.2   214  ASN214     -0.2716
    120  ND2       92.9650   -2.8130   72.8060 N.am  214  ASN214     -0.0877
    121  N         93.1130   -4.1220   78.1600 N.am  215  HIS215     -0.1973
    122  CA        93.1090   -5.0410   79.2840 C.3   215  HIS215      0.1656
    123  C         92.7240   -6.4460   78.8510 C.2   215  HIS215      0.2291
    124  O         91.8890   -6.6440   77.9640 O.2   215  HIS215     -0.2864
    125  CB        92.1350   -4.5890   80.3660 C.3   215  HIS215      0.0771
    126  CG        91.8410   -5.6520   81.3780 C.ar  215  HIS215      0.0820
    127  ND1       92.7340   -6.0050   82.3660 N.ar  215  HIS215     -0.2267
    128  CD2       90.7670   -6.4630   81.5350 C.ar  215  HIS215      0.1154
    129  CE1       92.2170   -6.9740   83.1000 C.ar  215  HIS215      0.1986
    130  NE2       91.0240   -7.2710   82.6160 N.ar  215  HIS215     -0.2212
    131  N         97.7000   -6.2580   78.9190 N.3   254  PHE254     -0.1241
    132  CA        98.1570   -6.5190   80.2710 C.3   254  PHE254      0.1605
    133  C         96.9590   -6.4740   81.2060 C.2   254  PHE254      0.2264
    134  O         95.8420   -6.1280   80.8080 O.2   254  PHE254     -0.2867
    135  CB        99.2400   -5.5220   80.7100 C.3   254  PHE254      0.0534
    136  CG        98.7410   -4.1270   80.9380 C.ar  254  PHE254     -0.0203
    137  CD1       98.4240   -3.6890   82.2160 C.ar  254  PHE254     -0.0042
    138  CD2       98.6160   -3.2410   79.8800 C.ar  254  PHE254     -0.0042
    139  CE1       97.9770   -2.3990   82.4320 C.ar  254  PHE254     -0.0003
    140  CE2       98.1660   -1.9480   80.0860 C.ar  254  PHE254     -0.0003
    141  CZ        97.8490   -1.5250   81.3660 C.ar  254  PHE254     -0.0000
    142  N         95.0010   -4.8440   84.1870 N.3   256  TYR256     -0.1241
    143  CA        94.8560   -3.5630   84.8740 C.3   256  TYR256      0.1605
    144  C         94.8070   -3.7180   86.3950 C.2   256  TYR256      0.2264
    145  O         94.0730   -2.9970   87.0700 O.2   256  TYR256     -0.2867
    146  CB        93.5990   -2.8600   84.3660 C.3   256  TYR256      0.0534
    147  CG        93.6580   -2.3520   82.9300 C.ar  256  TYR256     -0.0201
    148  CD1       94.7430   -2.6250   82.1040 C.ar  256  TYR256     -0.0009
    149  CD2       92.6150   -1.5990   82.4030 C.ar  256  TYR256     -0.0009
    150  CE1       94.7790   -2.1630   80.7920 C.ar  256  TYR256      0.0417
    151  CE2       92.6470   -1.1350   81.1000 C.ar  256  TYR256      0.0417
    152  CZ        93.7260   -1.4180   80.2990 C.ar  256  TYR256      0.1957
    153  OH        93.7350   -0.9460   79.0020 O.3   256  TYR256     -0.2866
    154  N         82.7220   -0.2360   82.6570 N.3   267  ARG267     -0.1231
    155  CA        82.4350   -0.9260   81.3970 C.3   267  ARG267      0.1694
    156  C         82.6050   -2.4420   81.5380 C.2   267  ARG267      0.2592
    157  O         83.0510   -2.9280   82.5830 O.2   267  ARG267     -0.2718
    158  CB        83.3380   -0.3890   80.2780 C.3   267  ARG267      0.0321
    159  CG        83.3480    1.1380   80.1760 C.3   267  ARG267      0.0489
    160  CD        84.3490    1.6560   79.1460 C.3   267  ARG267      0.2205
    161  NE        83.8200    1.6590   77.7820 N.pl3 267  ARG267     -0.0865
    162  CZ        83.1660    2.6810   77.2280 C.cat 267  ARG267      0.5346
    163  NH1       82.9480    3.7970   77.9140 N.pl3 267  ARG267      0.1354
    164  NH2       82.7240    2.5920   75.9800 N.pl3 267  ARG267      0.1354
    165  N         82.2660   -3.1900   80.4830 N.am  268  GLN268     -0.1966
    166  CA        82.2940   -4.6510   80.4820 C.3   268  GLN268      0.1733
    167  C         83.5410   -5.1740   79.7780 C.2   268  GLN268      0.2616
    168  O         83.9860   -4.6010   78.7790 O.2   268  GLN268     -0.2715
    169  CB        81.0490   -5.2150   79.7930 C.3   268  GLN268      0.0408
    170  CG        80.9210   -6.7340   79.8730 C.3   268  GLN268      0.0908
    171  CD        79.6970   -7.2590   79.1400 C.2   268  GLN268      0.2608
    172  OE1       78.7870   -6.5000   78.8040 O.2   268  GLN268     -0.2717
    173  NE2       79.6750   -8.5650   78.8850 N.am  268  GLN268     -0.0878
    174  N         84.0800   -6.2850   80.2780 N.am  269  CYS269     -0.1954
    175  CA        85.2740   -6.8760   79.6920 C.3   269  CYS269      0.1843
    176  C         84.9340   -7.7960   78.5260 C.2   269  CYS269      0.2625
    177  O         83.9110   -8.4860   78.5240 O.2   269  CYS269     -0.2714
    178  CB        86.0630   -7.6600   80.7380 C.3   269  CYS269      0.0997
    179  SG        87.6190   -8.3260   80.1020 S.3   269  CYS269     -0.0797
    180  N         85.8270   -7.8140   77.5420 N.am  270  LYS270     -0.1963
    181  CA        85.6210   -8.5680   76.3110 C.3   270  LYS270      0.1728
    182  C         86.9650   -9.0370   75.7560 C.2   270  LYS270      0.2616
    183  O         87.2570   -8.8900   74.5680 O.2   270  LYS270     -0.2715
    184  CB        84.8520   -7.7350   75.2860 C.3   270  LYS270      0.0311
    185  CG        83.4740   -7.3210   75.7670 C.3   270  LYS270      0.0038
    186  CD        82.7070   -6.5730   74.7100 C.3   270  LYS270      0.0206
    187  CE        81.3010   -6.2520   75.1820 C.3   270  LYS270      0.1093
    188  NZ        80.5140   -7.4860   75.4620 N.3   270  LYS270     -0.1314
    189  N         87.8100   -9.6030   76.6180 N.am  271  CYS271     -0.1968
    190  CA        89.0860  -10.1530   76.1770 C.3   271  CYS271      0.1712
    191  C         88.9720  -11.5750   75.6360 C.2   271  CYS271      0.2296
    192  O         89.9910  -12.1480   75.2330 O.2   271  CYS271     -0.2864
    193  CB        90.0980  -10.1230   77.3260 C.3   271  CYS271      0.0983
    194  SG        89.6360  -11.1000   78.7750 S.3   271  CYS271     -0.0798
    195  N         85.6290   -4.5900   84.2290 N.3   280  LEU280     -0.1245
    196  CA        86.8000   -3.8420   83.8010 C.3   280  LEU280      0.1561
    197  C         86.7450   -2.4450   84.4000 C.2   280  LEU280      0.2260
    198  O         85.6690   -1.9400   84.7270 O.2   280  LEU280     -0.2867
    199  CB        86.8740   -3.7730   82.2700 C.3   280  LEU280      0.0270
    200  CG        88.1180   -3.1560   81.6340 C.3   280  LEU280      0.0019
    201  CD1       88.4750   -3.9100   80.3770 C.3   280  LEU280      0.0001
    202  CD2       87.8650   -1.7030   81.2930 C.3   280  LEU280      0.0001
    203  N         88.2330    1.3280   83.2910 N.3   282  GLY282     -0.1225
    204  CA        88.7900    2.0650   82.1680 C.3   282  GLY282      0.1811
    205  C         90.2600    2.4480   82.2430 C.2   282  GLY282      0.2280
    206  O         90.9260    2.2880   83.2650 O.2   282  GLY282     -0.2866
@<TRIPOS>BOND
     1    36    35   ar
     2    36    34   ar
     3    35    33   ar
     4    34    32   ar
     5    33    30   ar
     6    32    30   ar
     7    32    31   ar
     8    30    28   ar
     9    31    29   ar
    10    28    29   ar
    11    28    27    1
    12    22    21    2
    13     1     2    1
    14    27    24    1
    15    24    25    1
    16    24    23    1
    17    13    12    2
    18    21    23   am
    19    21    20    1
    20     6     7    1
    21     6     5    1
    22     2     5    1
    23     2     3    1
    24    25    26    2
    25   101    99   ar
    26   101   100   ar
    27    20    19    1
    28     9     7   ar
    29     7     8   ar
    30    99    97   ar
    31    12    19   am
    32    12    11    1
    33    10     3   am
    34    10    11    1
    35   100    98   ar
    36     3     4    2
    37    97    96   ar
    38    98    96   ar
    39    96    95    1
    40    11    14    1
    41    95    92    1
    42    14    15    1
    43   120   118   am
    44    90    88    1
    45    15    16    1
    46    16    17    1
    47    94    93    2
    48    17    18    1
    49    92    93    1
    50    92    91    1
    51   110   108   ar
    52   110   112   ar
    53   118   119    2
    54   118   117    1
    55    88    87    2
    56    88    89    1
    57    93   102   am
    58   108   107   ar
    59    91    82   am
    60   183   182    2
    61    87    86    1
    62   186   187    1
    63   186   185    1
    64   112   111   ar
    65   117   114    1
    66   102   103    1
    67   187   188    1
    68   192   191    2
    69   184   185    1
    70   184   181    1
    71    60    58    1
    72   103   104    1
    73   103   106    1
    74   191   190    1
    75   113   104   am
    76   113   114    1
    77    82    83    2
    78    82    81    1
    79   182   181    1
    80   182   189   am
    81    79    78    1
    82    80    81    1
    83   107   106    1
    84   107   109   ar
    85    84    85    1
    86    84    81    1
    87    86    85    1
    88   164   162    1
    89   104   105    2
    90   190   189    1
    91   190   193    1
    92   111   109   ar
    93   114   115    1
    94   181   180    1
    95    58    57    1
    96    78    77   ar
    97    78    76   ar
    98    77    75   ar
    99   162   161    2
   100   162   163    1
   101   193   194    1
   102   115   116    2
   103   115   121   am
   104   180   176   am
   105    59    57    1
   106    57    54    1
   107   161   160    1
   108    76    74   ar
   109   124   123    2
   110    75    73   ar
   111   121   122    1
   112   177   176    2
   113   176   175    1
   114   168   167    2
   115   172   171    2
   116   123   122    1
   117   173   171   am
   118    74    73   ar
   119   131   132    1
   120   153   152    1
   121    54    53    1
   122    54    55    1
   123    73    72    1
   124    53    51   am
   125   171   170    1
   126   160   159    1
   127   122   125    1
   128    56    55    2
   129    50    51    1
   130    50    49    1
   131    51    52    2
   132   175   174    1
   133   175   178    1
   134   167   174   am
   135   167   166    1
   136   169   170    1
   137   169   166    1
   138    55    61   am
   139   138   140   ar
   140   138   136   ar
   141    45    43   ar
   142    45    47   ar
   143   140   141   ar
   144   179   178    1
   145    37    38    1
   146   159   158    1
   147    43    42   ar
   148    72    69    1
   149   132   135    1
   150   132   133    1
   151   158   155    1
   152    38    39    1
   153    38    41    1
   154   152   150   ar
   155   152   151   ar
   156   125   126    1
   157   201   200    1
   158   166   165    1
   159   165   156   am
   160    48    47    1
   161   135   136    1
   162    64    63    2
   163    39    40    2
   164   150   148   ar
   165    47    46   ar
   166   134   133    2
   167    61    62    1
   168   136   137   ar
   169   151   149   ar
   170    42    41    1
   171    42    44   ar
   172   202   200    1
   173    63    62    1
   174    63    68   am
   175   141   139   ar
   176   126   128   ar
   177   126   127   ar
   178   155   156    1
   179   155   154    1
   180    69    68    1
   181    69    70    1
   182   128   130   ar
   183   156   157    2
   184   200   199    1
   185    62    65    1
   186    46    44   ar
   187   148   147   ar
   188   204   205    1
   189   204   203    1
   190   137   139   ar
   191   205   206    2
   192   199   196    1
   193   127   129   ar
   194   149   147   ar
   195    71    70    2
   196   130   129   ar
   197   147   146    1
   198    65    66    1
   199    65    67    1
   200   196   195    1
   201   196   197    1
   202   142   143    1
   203   146   143    1
   204   197   198    2
   205   143   144    1
   206   144   145    2
