@<TRIPOS>MOLECULE
tmp/6bpfA00.pdb
 118 111 0 0 0
SMALL
GASTEIGER

@<TRIPOS>ATOM
      1  N         12.8650   -6.5550   71.0220 N.3    46  CYS46      -0.1221
      2  CA        12.0810   -7.6710   70.4580 C.3    46  CYS46       0.1808
      3  C         11.3440   -7.1640   69.2180 C.2    46  CYS46       0.2601
      4  O         11.9260   -6.3950   68.4370 O.2    46  CYS46      -0.2717
      5  CB        11.2130   -8.3300   71.5330 C.3    46  CYS46       0.0970
      6  SG        12.1630   -8.9780   72.9040 S.3    46  CYS46      -0.0800
      7  N         10.0540   -7.4810   69.0630 N.am   47  SER47      -0.1952
      8  CA         9.2890   -7.1730   67.8560 C.3    47  SER47       0.1924
      9  C          9.0720   -5.6880   67.6610 C.2    47  SER47       0.2314
     10  O          8.6900   -5.2870   66.5610 O.2    47  SER47      -0.2863
     11  CB         7.9340   -7.8780   67.8460 C.3    47  SER47       0.2116
     12  OG         8.1040   -9.2490   67.5790 O.3    47  SER47      -0.2180
     13  N          9.9430  -19.0490   63.8250 N.3    81  ASN81      -0.1225
     14  CA         9.1520  -19.4770   64.9800 C.3    81  ASN81       0.1785
     15  C          7.6930  -19.0270   64.9390 C.2    81  ASN81       0.2597
     16  O          6.8550  -19.6490   65.6040 O.2    81  ASN81      -0.2718
     17  CB         9.7780  -18.9930   66.2940 C.3    81  ASN81       0.1169
     18  CG         9.8120  -17.4830   66.4000 C.2    81  ASN81       0.2627
     19  OD1       10.0860  -16.7930   65.4230 O.2    81  ASN81      -0.2716
     20  ND2        9.5660  -16.9600   67.5990 N.am   81  ASN81      -0.0877
     21  N          7.3650  -17.9560   64.2170 N.am   82  TYR82      -0.1976
     22  CA         6.0100  -17.4100   64.2750 C.3    82  TYR82       0.1639
     23  C          5.7360  -16.7440   62.9360 C.2    82  TYR82       0.2290
     24  O          6.3020  -15.6860   62.6380 O.2    82  TYR82      -0.2864
     25  CB         5.8580  -16.4190   65.4300 C.3    82  TYR82       0.0560
     26  CG         4.4330  -15.9500   65.6000 C.ar   82  TYR82      -0.0198
     27  CD1        3.4320  -16.8540   65.9410 C.ar   82  TYR82      -0.0009
     28  CD2        4.0770  -14.6190   65.4070 C.ar   82  TYR82      -0.0009
     29  CE1        2.1220  -16.4550   66.0810 C.ar   82  TYR82       0.0417
     30  CE2        2.7540  -14.2050   65.5520 C.ar   82  TYR82       0.0417
     31  CZ         1.7890  -15.1320   65.8910 C.ar   82  TYR82       0.1957
     32  OH         0.4760  -14.7490   66.0350 O.3    82  TYR82      -0.2866
     33  N          2.8080   -9.2430   63.5950 N.3   107  SER107     -0.1217
     34  CA         4.1390   -9.5440   64.1080 C.3   107  SER107      0.1889
     35  C          4.6930  -10.8470   63.5200 C.2   107  SER107      0.2288
     36  O          5.2420  -11.6970   64.2250 O.2   107  SER107     -0.2866
     37  CB         4.1880   -9.4950   65.6400 C.3   107  SER107      0.2089
     38  OG         5.4740   -9.0790   66.0630 O.3   107  SER107     -0.2183
     39  N          7.2850  -13.0630   61.9140 N.3   109  ASN109     -0.1240
     40  CA         8.7450  -13.0030   61.9790 C.3   109  ASN109      0.1653
     41  C          9.3890  -13.3680   60.6550 C.2   109  ASN109      0.2266
     42  O         10.4660  -12.8520   60.3460 O.2   109  ASN109     -0.2867
     43  CB         9.2880  -13.9120   63.0930 C.3   109  ASN109      0.1155
     44  CG         9.2970  -13.2360   64.4570 C.2   109  ASN109      0.2627
     45  OD1        9.1320  -12.0160   64.5640 O.2   109  ASN109     -0.2716
     46  ND2        9.5140  -14.0310   65.5110 N.am  109  ASN109     -0.0877
     47  N         15.4700  -12.6620   62.8960 N.3   143  GLU143     -0.1231
     48  CA        14.5080  -13.4770   63.6240 C.3   143  GLU143      0.1684
     49  C         14.8650  -14.9510   63.5470 C.2   143  GLU143      0.2434
     50  O         15.2640  -15.4370   62.4860 O.2   143  GLU143     -0.2733
     51  CB        13.0960  -13.2780   63.0510 C.3   143  GLU143      0.0402
     52  CG        12.6180  -11.8320   63.0860 C.3   143  GLU143      0.1161
     53  CD        12.2740  -11.3340   64.4910 C.2   143  GLU143      0.3649
     54  OE1       12.3720  -12.1200   65.4560 O.co2 143  GLU143     -0.2457
     55  OE2       11.8660  -10.1590   64.6170 O.co2 143  GLU143     -0.2457
     56  N         14.6660  -15.6880   64.6510 N.am  144  PRO144     -0.2729
     57  CA        14.0710  -15.2420   65.9200 C.3   144  PRO144      0.1401
     58  C         15.0700  -14.8960   67.0270 C.2   144  PRO144      0.2269
     59  O         14.6330  -14.5660   68.1310 O.2   144  PRO144     -0.2865
     60  CB        13.2870  -16.4780   66.3640 C.3   144  PRO144      0.0296
     61  CG        14.1580  -17.6150   65.9020 C.3   144  PRO144      0.0237
     62  CD        14.8050  -17.1570   64.6020 C.3   144  PRO144      0.0939
     63  N         15.3290  -11.9130   69.8700 N.3   147  ASN147     -0.1240
     64  CA        14.4250  -11.8380   71.0170 C.3   147  ASN147      0.1653
     65  C         14.9650  -12.5000   72.2850 C.2   147  ASN147      0.2266
     66  O         14.1940  -12.7330   73.2180 O.2   147  ASN147     -0.2867
     67  CB        13.0610  -12.4380   70.6510 C.3   147  ASN147      0.1155
     68  CG        12.4660  -11.8140   69.4040 C.2   147  ASN147      0.2627
     69  OD1       12.0090  -10.6760   69.4470 O.2   147  ASN147     -0.2716
     70  ND2       12.4800  -12.5490   68.2930 N.am  147  ASN147     -0.0877
     71  N         -2.3430   -6.9400   67.8010 N.3   193  THR193     -0.1218
     72  CA        -1.7770   -7.6060   68.9680 C.3   193  THR193      0.1862
     73  C         -1.7250   -6.7280   70.2110 C.2   193  THR193      0.2287
     74  O         -1.1110   -7.1320   71.2100 O.2   193  THR193     -0.2866
     75  CB        -0.3610   -8.0780   68.6560 C.3   193  THR193      0.1770
     76  OG1        0.4650   -6.9320   68.4160 O.3   193  THR193     -0.2211
     77  CG2       -0.3500   -8.9570   67.4140 C.3   193  THR193      0.0375
     78  N          2.9840   -0.9160   68.2520 N.3   211  LYS211     -0.1231
     79  CA         3.6560   -2.1710   67.9160 C.3   211  LYS211      0.1693
     80  C          4.1540   -2.8050   69.2040 C.2   211  LYS211      0.2593
     81  O          4.9220   -2.1790   69.9470 O.2   211  LYS211     -0.2718
     82  CB         4.8360   -1.9540   66.9720 C.3   211  LYS211      0.0285
     83  CG         5.5480   -3.2530   66.6160 C.3   211  LYS211      0.0035
     84  CD         4.7430   -4.1060   65.6490 C.3   211  LYS211      0.0206
     85  CE         5.3000   -5.5420   65.5910 C.3   211  LYS211      0.1093
     86  NZ         4.8720   -6.3920   66.7300 N.3   211  LYS211     -0.1314
     87  N          3.7210   -4.0340   69.4730 N.am  212  THR212     -0.1939
     88  CA         4.1160   -4.7700   70.6640 C.3   212  THR212      0.2028
     89  C          5.3840   -5.5780   70.4170 C.2   212  THR212      0.2643
     90  O          5.8700   -5.7140   69.2980 O.2   212  THR212     -0.2714
     91  CB         3.0220   -5.7650   71.0430 C.3   212  THR212      0.1808
     92  OG1        2.6680   -6.5110   69.8700 O.3   212  THR212     -0.2208
     93  CG2        1.7960   -5.0440   71.6100 C.3   212  THR212      0.0379
     94  N          5.9000   -6.1560   71.4980 N.am  213  GLY213     -0.1939
     95  CA         6.9180   -7.1790   71.3680 C.3   213  GLY213      0.2014
     96  C          6.9630   -8.0110   72.6290 C.2   213  GLY213      0.2640
     97  O          6.4790   -7.6000   73.6900 O.2   213  GLY213     -0.2714
     98  N          7.5070   -9.2130   72.4890 N.am  214  SER214     -0.1935
     99  CA         7.6650  -10.1240   73.6130 C.3   214  SER214      0.2055
    100  C          8.9550  -10.8960   73.4110 C.2   214  SER214      0.2643
    101  O          9.4100  -11.0890   72.2830 O.2   214  SER214     -0.2714
    102  CB         6.5250  -11.1550   73.7040 C.3   214  SER214      0.2130
    103  OG         5.2390  -10.5660   73.7250 O.3   214  SER214     -0.2179
    104  N          9.5500  -11.3400   74.5070 N.am  215  GLY215     -0.1954
    105  CA        10.7050  -12.1980   74.3670 C.3   215  GLY215      0.1869
    106  C         10.9690  -12.9710   75.6370 C.2   215  GLY215      0.2309
    107  O         10.1600  -12.9750   76.5680 O.2   215  GLY215     -0.2863
    108  N          1.5460   -8.0430   80.2440 N.3   251  ARG251     -0.1245
    109  CA         0.9110   -6.9470   79.5180 C.3   251  ARG251      0.1563
    110  C          0.1840   -5.9410   80.4120 C.2   251  ARG251      0.2260
    111  O          0.2330   -4.7410   80.0970 O.2   251  ARG251     -0.2867
    112  CB         0.0420   -7.4930   78.3760 C.3   251  ARG251      0.0307
    113  CG         0.8850   -8.1220   77.2610 C.3   251  ARG251      0.0489
    114  CD         0.0430   -8.8020   76.1890 C.3   251  ARG251      0.2205
    115  NE        -0.3520  -10.1490   76.5930 N.pl3 251  ARG251     -0.0865
    116  CZ         0.4010  -11.2320   76.4020 C.cat 251  ARG251      0.5346
    117  NH1       -0.0300  -12.4190   76.8020 N.pl3 251  ARG251      0.1354
    118  NH2        1.5880  -11.1250   75.8150 N.pl3 251  ARG251      0.1354
@<TRIPOS>BOND
     1    42    41    2
     2    41    40    1
     3    39    40    1
     4    40    43    1
     5    50    49    2
     6    24    23    2
     7    47    48    1
     8    23    22    1
     9    51    52    1
    10    51    48    1
    11    52    53    1
    12    43    44    1
    13    35    34    1
    14    35    36    2
    15    49    48    1
    16    49    56   am
    17    33    34    1
    18    13    14    1
    19    34    37    1
    20    21    22    1
    21    21    15   am
    22    22    25    1
    23    44    45    2
    24    44    46   am
    25    53    55   ar
    26    53    54   ar
    27    62    56    1
    28    62    61    1
    29    56    57    1
    30    15    14    1
    31    15    16    2
    32    14    17    1
    33    28    30   ar
    34    28    26   ar
    35    19    18    2
    36    25    26    1
    37    30    31   ar
    38    85    84    1
    39    85    86    1
    40    26    27   ar
    41    37    38    1
    42    84    83    1
    43    31    32    1
    44    31    29   ar
    45    61    60    1
    46    57    60    1
    47    57    58    1
    48    27    29   ar
    49    17    18    1
    50    18    20   am
    51    10     9    2
    52    83    82    1
    53    82    79    1
    54    58    59    2
    55    77    75    1
    56    12    11    1
    57     9     8    1
    58    71    72    1
    59    11     8    1
    60     8     7    1
    61    79    78    1
    62    79    80    1
    63    70    68   am
    64    76    75    1
    65     4     3    2
    66    75    72    1
    67    72    73    1
    68     7     3   am
    69    80    87   am
    70    80    81    2
    71     3     2    1
    72    90    89    2
    73    68    69    2
    74    68    67    1
    75    87    88    1
    76    92    91    1
    77    63    64    1
    78    73    74    2
    79    89    88    1
    80    89    94   am
    81     2     1    1
    82     2     5    1
    83    67    64    1
    84    88    91    1
    85    64    65    1
    86    91    93    1
    87    95    94    1
    88    95    96    1
    89     5     6    1
    90   101   100    2
    91    65    66    2
    92    98    96   am
    93    98    99    1
    94    96    97    2
    95   100    99    1
    96   100   104   am
    97    99   102    1
    98   102   103    1
    99   105   104    1
   100   105   106    1
   101   106   107    2
   102   118   116    1
   103   114   115    1
   104   114   113    1
   105   116   115    2
   106   116   117    1
   107   113   112    1
   108   112   109    1
   109   109   108    1
   110   109   110    1
   111   111   110    2
