@<TRIPOS>MOLECULE
tmp/6bplA00.pdb
 78 74 0 0 0
SMALL
GASTEIGER

@<TRIPOS>ATOM
      1  N        -47.1190   19.4330   44.2590 N.3    36  ALA36      -0.1245
      2  CA       -47.3490   19.6190   45.6860 C.3    36  ALA36       0.1562
      3  C        -48.2850   20.7910   45.9500 C.2    36  ALA36       0.2260
      4  O        -49.0710   20.7510   46.9040 O.2    36  ALA36      -0.2867
      5  CB       -46.0200   19.8260   46.4090 C.3    36  ALA36       0.0290
      6  N        -51.5060   19.2700   45.7270 N.3    39  THR39      -0.1203
      7  CA       -51.7430   18.3830   46.8590 C.3    39  THR39       0.1994
      8  C        -51.9680   19.1830   48.1350 C.2    39  THR39       0.2617
      9  O        -52.8900   18.8900   48.9050 O.2    39  THR39      -0.2717
     10  CB       -50.5650   17.4210   47.0220 C.3    39  THR39       0.1784
     11  OG1      -50.3320   16.7350   45.7850 O.3    39  THR39      -0.2211
     12  CG2      -50.8490   16.3920   48.1050 C.3    39  THR39       0.0376
     13  N        -51.1500   20.2080   48.3710 N.am   40  PHE40      -0.1975
     14  CA       -51.2860   20.9870   49.5960 C.3    40  PHE40       0.1639
     15  C        -52.5430   21.8400   49.6050 C.2    40  PHE40       0.2290
     16  O        -52.9980   22.2320   50.6840 O.2    40  PHE40      -0.2864
     17  CB       -50.0580   21.8830   49.7980 C.3    40  PHE40       0.0560
     18  CG       -48.8320   21.1540   50.3040 C.ar   40  PHE40      -0.0200
     19  CD1      -48.9440   19.9860   51.0510 C.ar   40  PHE40      -0.0042
     20  CD2      -47.5620   21.6500   50.0370 C.ar   40  PHE40      -0.0042
     21  CE1      -47.8190   19.3320   51.5130 C.ar   40  PHE40      -0.0003
     22  CE2      -46.4340   20.9950   50.5000 C.ar   40  PHE40      -0.0003
     23  CZ       -46.5650   19.8330   51.2380 C.ar   40  PHE40      -0.0000
     24  N        -55.5550   19.6060   50.7970 N.3    43  SER43      -0.1217
     25  CA       -55.5210   19.4630   52.2480 C.3    43  SER43       0.1889
     26  C        -56.1900   20.6450   52.9370 C.2    43  SER43       0.2288
     27  O        -56.8060   20.4780   53.9950 O.2    43  SER43      -0.2866
     28  CB       -54.0800   19.3230   52.7350 C.3    43  SER43       0.2089
     29  OG       -53.3410   20.5050   52.4890 O.3    43  SER43      -0.2183
     30  N        -45.4640   12.3510   40.6030 N.3   148  ALA148     -0.1245
     31  CA       -45.3000   12.9590   41.9190 C.3   148  ALA148      0.1562
     32  C        -46.6410   13.1410   42.6180 C.2   148  ALA148      0.2260
     33  O        -46.7530   12.9090   43.8280 O.2   148  ALA148     -0.2867
     34  CB       -44.5820   14.3030   41.7890 C.3   148  ALA148      0.0290
     35  N        -48.1120   12.0430   46.1950 N.3   152  GLY152     -0.1225
     36  CA       -48.6590   13.0210   47.1190 C.3   152  GLY152      0.1811
     37  C        -50.0910   12.7210   47.5060 C.2   152  GLY152      0.2280
     38  O        -50.4770   12.8700   48.6670 O.2   152  GLY152     -0.2866
     39  N        -50.4380    9.2250   49.6730 N.3   155  ILE155     -0.1231
     40  CA       -50.0800    9.4040   51.0780 C.3   155  ILE155      0.1692
     41  C        -51.1950   10.1300   51.8160 C.2   155  ILE155      0.2591
     42  O        -51.6920    9.6590   52.8430 O.2   155  ILE155     -0.2718
     43  CB       -48.7370   10.1480   51.1930 C.3   155  ILE155      0.0266
     44  CG1      -47.5920    9.2050   50.8070 C.3   155  ILE155      0.0019
     45  CG2      -48.5340   10.7080   52.6090 C.3   155  ILE155      0.0020
     46  CD1      -46.2470    9.8900   50.6710 C.3   155  ILE155      0.0001
     47  N        -51.6000   11.2960   51.3070 N.am  156  MET156     -0.1979
     48  CA       -52.6330   12.0780   51.9800 C.3   156  MET156      0.1605
     49  C        -53.8990   11.2600   52.1980 C.2   156  MET156      0.2287
     50  O        -54.5920   11.4440   53.2040 O.2   156  MET156     -0.2864
     51  CB       -52.9440   13.3360   51.1710 C.3   156  MET156      0.0413
     52  CG       -53.9810   14.2390   51.8190 C.3   156  MET156      0.0598
     53  SD       -54.1950   15.8230   50.9840 S.3   156  MET156     -0.1393
     54  CE       -52.5620   16.5270   51.1800 C.3   156  MET156      0.0692
     55  N        -53.0360    9.0380   55.3020 N.3   159  TYR159     -0.1227
     56  CA       -53.0130    9.7690   56.5640 C.3   159  TYR159      0.1736
     57  C        -54.4320   10.0680   57.0380 C.2   159  TYR159      0.2595
     58  O        -54.8310    9.6680   58.1370 O.2   159  TYR159     -0.2718
     59  CB       -52.1980   11.0530   56.4060 C.3   159  TYR159      0.0548
     60  CG       -52.0400   11.8470   57.6830 C.ar  159  TYR159     -0.0200
     61  CD1      -51.0410   11.5380   58.6010 C.ar  159  TYR159     -0.0009
     62  CD2      -52.8840   12.9120   57.9670 C.ar  159  TYR159     -0.0009
     63  CE1      -50.8910   12.2650   59.7650 C.ar  159  TYR159      0.0417
     64  CE2      -52.7430   13.6460   59.1260 C.ar  159  TYR159      0.0417
     65  CZ       -51.7460   13.3200   60.0240 C.ar  159  TYR159      0.1957
     66  OH       -51.6070   14.0520   61.1820 O.3   159  TYR159     -0.2866
     67  N        -55.2150   10.7670   56.2170 N.am  160  TYR160     -0.1976
     68  CA       -56.6390   10.9510   56.4830 C.3   160  TYR160      0.1639
     69  C        -57.3810    9.6890   56.0580 C.2   160  TYR160      0.2290
     70  O        -57.5130    9.4170   54.8600 O.2   160  TYR160     -0.2864
     71  CB       -57.1930   12.1550   55.7280 C.3   160  TYR160      0.0560
     72  CG       -56.4050   13.4340   55.8630 C.ar  160  TYR160     -0.0198
     73  CD1      -56.2030   14.0240   57.1000 C.ar  160  TYR160     -0.0009
     74  CD2      -55.8940   14.0710   54.7420 C.ar  160  TYR160     -0.0009
     75  CE1      -55.4950   15.2030   57.2200 C.ar  160  TYR160      0.0417
     76  CE2      -55.1880   15.2470   54.8500 C.ar  160  TYR160      0.0417
     77  CZ       -54.9900   15.8110   56.0900 C.ar  160  TYR160      0.1957
     78  OH       -54.2840   16.9870   56.1950 O.3   160  TYR160     -0.2866
@<TRIPOS>BOND
     1    30    31    1
     2    34    31    1
     3    31    32    1
     4    32    33    2
     5     1     2    1
     6     2     3    1
     7     2     5    1
     8     6     7    1
     9    11    10    1
    10     3     4    2
    11    35    36    1
    12     7    10    1
    13     7     8    1
    14    10    12    1
    15    36    37    1
    16    37    38    2
    17     8    13   am
    18     8     9    2
    19    13    14    1
    20    14    15    1
    21    14    17    1
    22    15    16    2
    23    39    40    1
    24    17    18    1
    25    20    18   ar
    26    20    22   ar
    27    18    19   ar
    28    22    23   ar
    29    46    44    1
    30    24    25    1
    31    44    43    1
    32    53    54    1
    33    53    52    1
    34    19    21   ar
    35    40    43    1
    36    40    41    1
    37    51    52    1
    38    51    48    1
    39    43    45    1
    40    23    21   ar
    41    47    41   am
    42    47    48    1
    43    41    42    2
    44    48    49    1
    45    49    50    2
    46    25    28    1
    47    25    26    1
    48    29    28    1
    49    26    27    2
    50    74    76   ar
    51    74    72   ar
    52    76    77   ar
    53    70    69    2
    54    55    56    1
    55    71    72    1
    56    71    68    1
    57    72    73   ar
    58    69    68    1
    59    77    78    1
    60    77    75   ar
    61    67    68    1
    62    67    57   am
    63    59    56    1
    64    59    60    1
    65    56    57    1
    66    57    58    2
    67    73    75   ar
    68    60    62   ar
    69    60    61   ar
    70    62    64   ar
    71    61    63   ar
    72    64    65   ar
    73    63    65   ar
    74    65    66    1
