@<TRIPOS>MOLECULE
tmp/6bplB03.pdb
 157 144 0 0 0
SMALL
GASTEIGER

@<TRIPOS>ATOM
      1  N        -74.5280   29.3530   37.9850 N.3   151  PHE151     -0.1241
      2  CA       -74.7960   30.6500   38.5980 C.3   151  PHE151      0.1605
      3  C        -76.0230   30.5890   39.5000 C.2   151  PHE151      0.2264
      4  O        -76.0530   31.2220   40.5620 O.2   151  PHE151     -0.2867
      5  CB       -74.9820   31.7230   37.5190 C.3   151  PHE151      0.0534
      6  CG       -73.7350   32.5130   37.2070 C.ar  151  PHE151     -0.0203
      7  CD1      -72.8910   32.9430   38.2160 C.ar  151  PHE151     -0.0042
      8  CD2      -73.4200   32.8390   35.8970 C.ar  151  PHE151     -0.0042
      9  CE1      -71.7530   33.6700   37.9250 C.ar  151  PHE151     -0.0003
     10  CE2      -72.2830   33.5670   35.6020 C.ar  151  PHE151     -0.0003
     11  CZ       -71.4500   33.9830   36.6170 C.ar  151  PHE151     -0.0000
     12  N        -68.7590   37.9120   44.1770 N.3   165  LEU165     -0.1231
     13  CA       -67.9960   37.4970   43.0060 C.3   165  LEU165      0.1693
     14  C        -68.4270   38.2760   41.7710 C.2   165  LEU165      0.2591
     15  O        -67.5890   38.6540   40.9450 O.2   165  LEU165     -0.2718
     16  CB       -68.1700   35.9950   42.7850 C.3   165  LEU165      0.0284
     17  CG       -67.5290   35.3770   41.5410 C.3   165  LEU165      0.0019
     18  CD1      -66.0490   35.0960   41.7520 C.3   165  LEU165      0.0001
     19  CD2      -68.2860   34.1130   41.1800 C.3   165  LEU165      0.0001
     20  N        -69.7280   38.5340   41.6330 N.am  166  ILE166     -0.1980
     21  CA       -70.2300   39.2390   40.4580 C.3   166  ILE166      0.1595
     22  C        -69.6970   40.6680   40.4170 C.2   166  ILE166      0.2287
     23  O        -69.2900   41.1590   39.3570 O.2   166  ILE166     -0.2864
     24  CB       -71.7710   39.2010   40.4410 C.3   166  ILE166      0.0276
     25  CG1      -72.2780   37.7540   40.3560 C.3   166  ILE166      0.0022
     26  CG2      -72.3260   40.0260   39.2840 C.3   166  ILE166      0.0022
     27  CD1      -71.8300   36.9880   39.1330 C.3   166  ILE166      0.0001
     28  N        -66.9760   41.6920   41.4650 N.3   168  LEU168     -0.1231
     29  CA       -65.5680   41.6360   41.0930 C.3   168  LEU168      0.1693
     30  C        -65.3600   41.2680   39.6320 C.2   168  LEU168      0.2591
     31  O        -64.3040   41.5870   39.0750 O.2   168  LEU168     -0.2718
     32  CB       -64.8260   40.6250   41.9720 C.3   168  LEU168      0.0284
     33  CG       -64.5610   41.0140   43.4270 C.3   168  LEU168      0.0019
     34  CD1      -63.8730   39.8700   44.1450 C.3   168  LEU168      0.0001
     35  CD2      -63.7220   42.2800   43.5240 C.3   168  LEU168      0.0001
     36  N        -66.3360   40.6110   39.0060 N.am  169  ALA169     -0.1980
     37  CA       -66.1610   40.1410   37.6340 C.3   169  ALA169      0.1597
     38  C        -65.7740   41.2580   36.6730 C.2   169  ALA169      0.2287
     39  O        -64.8560   41.0530   35.8600 O.2   169  ALA169     -0.2864
     40  CB       -67.4370   39.4280   37.1770 C.3   169  ALA169      0.0319
     41  N        -62.0690   41.8610   37.0890 N.3   172  VAL172     -0.1231
     42  CA       -61.3430   40.6810   36.6210 C.3   172  VAL172      0.1692
     43  C        -61.3650   40.6210   35.1000 C.2   172  VAL172      0.2592
     44  O        -60.3380   40.3840   34.4530 O.2   172  VAL172     -0.2718
     45  CB       -61.9380   39.4040   37.2420 C.3   172  VAL172      0.0266
     46  CG1      -61.3090   38.1550   36.6340 C.3   172  VAL172      0.0020
     47  CG2      -61.7430   39.4180   38.7480 C.3   172  VAL172      0.0020
     48  N        -62.5400   40.8280   34.5060 N.am  173  SER173     -0.1952
     49  CA       -62.6540   40.7900   33.0530 C.3   173  SER173      0.1924
     50  C        -61.6640   41.7510   32.4070 C.2   173  SER173      0.2314
     51  O        -60.9470   41.3860   31.4690 O.2   173  SER173     -0.2863
     52  CB       -64.0890   41.1240   32.6340 C.3   173  SER173      0.2116
     53  OG       -64.2590   40.9680   31.2370 O.3   173  SER173     -0.2180
     54  N        -57.9400   40.4250   32.8580 N.3   176  ILE176     -0.1245
     55  CA       -57.5560   39.3470   31.9550 C.3   176  ILE176      0.1561
     56  C        -57.4360   39.8460   30.5190 C.2   176  ILE176      0.2260
     57  O        -56.7340   39.2280   29.7090 O.2   176  ILE176     -0.2867
     58  CB       -58.5540   38.1780   32.0700 C.3   176  ILE176      0.0252
     59  CG1      -58.5150   37.6120   33.4950 C.3   176  ILE176      0.0019
     60  CG2      -58.2300   37.0820   31.0540 C.3   176  ILE176      0.0019
     61  CD1      -59.4790   36.4780   33.7550 C.3   176  ILE176      0.0001
     62  N        -53.9390   39.0270   28.3940 N.3   180  SER180     -0.1217
     63  CA       -54.1430   38.2340   27.1890 C.3   180  SER180      0.1889
     64  C        -53.7030   38.9910   25.9450 C.2   180  SER180      0.2288
     65  O        -53.3530   38.3640   24.9380 O.2   180  SER180     -0.2866
     66  CB       -55.6140   37.8280   27.0620 C.3   180  SER180      0.2089
     67  OG       -55.9580   36.8200   27.9990 O.3   180  SER180     -0.2183
     68  N        -51.2300   32.2850   31.2610 N.3   238  ASP238     -0.1239
     69  CA       -52.2580   31.6120   32.0490 C.3   238  ASP238      0.1674
     70  C        -51.9230   31.6240   33.5380 C.2   238  ASP238      0.2266
     71  O        -52.8120   31.8850   34.3590 O.2   238  ASP238     -0.2867
     72  CB       -52.4590   30.1770   31.5590 C.3   238  ASP238      0.1410
     73  CG       -53.7470   29.5580   32.0770 C.2   238  ASP238      0.3668
     74  OD1      -54.4640   30.2240   32.8580 O.co2 238  ASP238     -0.2456
     75  OD2      -54.0490   28.4070   31.6970 O.co2 238  ASP238     -0.2456
     76  N        -53.3150   34.6670   34.7020 N.3   241  ILE241     -0.1245
     77  CA       -54.7750   34.6290   34.6560 C.3   241  ILE241      0.1561
     78  C        -55.3230   33.7890   35.8040 C.2   241  ILE241      0.2260
     79  O        -56.2970   34.1740   36.4630 O.2   241  ILE241     -0.2867
     80  CB       -55.2530   34.1130   33.2840 C.3   241  ILE241      0.0252
     81  CG1      -54.8950   35.1290   32.1920 C.3   241  ILE241      0.0019
     82  CG2      -56.7640   33.8500   33.2990 C.3   241  ILE241      0.0019
     83  CD1      -55.2470   34.6900   30.7810 C.3   241  ILE241      0.0001
     84  N        -57.6740   35.1710   38.9850 N.3   245  ALA245     -0.1245
     85  CA       -58.8990   34.5050   39.4100 C.3   245  ALA245      0.1562
     86  C        -58.7830   34.0140   40.8440 C.2   245  ALA245      0.2260
     87  O        -59.7580   34.0490   41.6020 O.2   245  ALA245     -0.2867
     88  CB       -59.2150   33.3430   38.4740 C.3   245  ALA245      0.0290
     89  N        -59.4770   36.9760   43.4290 N.3   248  ALA248     -0.1231
     90  CA       -60.8970   37.2410   43.6300 C.3   248  ALA248      0.1694
     91  C        -61.5550   36.1490   44.4690 C.2   248  ALA248      0.2591
     92  O        -62.3210   36.4380   45.3940 O.2   248  ALA248     -0.2718
     93  CB       -61.5950   37.3730   42.2760 C.3   248  ALA248      0.0304
     94  N        -61.2730   34.8840   44.1520 N.am  249  LEU249     -0.1980
     95  CA       -61.8630   33.7820   44.9070 C.3   249  LEU249      0.1596
     96  C        -61.3530   33.7580   46.3410 C.2   249  LEU249      0.2287
     97  O        -62.1020   33.4250   47.2660 O.2   249  LEU249     -0.2864
     98  CB       -61.5670   32.4540   44.2150 C.3   249  LEU249      0.0297
     99  CG       -62.4360   32.1530   42.9990 C.3   249  LEU249      0.0022
    100  CD1      -61.7020   31.2020   42.0590 C.3   249  LEU249      0.0001
    101  CD2      -63.7640   31.5650   43.4330 C.3   249  LEU249      0.0001
    102  N        -68.2430   27.7730   41.7660 N.3   277  MET277     -0.1245
    103  CA       -67.4590   28.9200   41.3180 C.3   277  MET277      0.1570
    104  C        -66.2310   28.4700   40.5370 C.2   277  MET277      0.2261
    105  O        -65.8560   29.0960   39.5380 O.2   277  MET277     -0.2867
    106  CB       -67.0380   29.7700   42.5130 C.3   277  MET277      0.0387
    107  CG       -68.0900   30.7520   42.9910 C.3   277  MET277      0.0595
    108  SD       -67.4830   31.7800   44.3480 S.3   277  MET277     -0.1393
    109  CE       -68.9840   32.6200   44.8430 C.3   277  MET277      0.0692
    110  N        -66.9540   27.2610   37.0530 N.3   280  LEU280     -0.1231
    111  CA       -67.2480   28.3370   36.1150 C.3   280  LEU280      0.1693
    112  C        -66.0140   28.8610   35.3930 C.2   280  LEU280      0.2591
    113  O        -66.1610   29.6470   34.4510 O.2   280  LEU280     -0.2718
    114  CB       -67.9160   29.5120   36.8420 C.3   280  LEU280      0.0284
    115  CG       -69.3980   29.4240   37.2050 C.3   280  LEU280      0.0019
    116  CD1      -69.7630   30.6220   38.0540 C.3   280  LEU280      0.0001
    117  CD2      -70.2790   29.3690   35.9660 C.3   280  LEU280      0.0001
    118  N        -64.8100   28.4640   35.8050 N.am  281  MET281     -0.1979
    119  CA       -63.6030   29.0240   35.2140 C.3   281  MET281      0.1605
    120  C        -63.3090   28.4590   33.8310 C.2   281  MET281      0.2287
    121  O        -62.6300   29.1240   33.0420 O.2   281  MET281     -0.2864
    122  CB       -62.4010   28.7770   36.1300 C.3   281  MET281      0.0413
    123  CG       -62.4660   29.5160   37.4600 C.3   281  MET281      0.0598
    124  SD       -61.1090   29.0990   38.5790 S.3   281  MET281     -0.1393
    125  CE       -59.7500   29.9480   37.7910 C.3   281  MET281      0.0692
    126  N        -66.0750   29.9670   31.2260 N.3   284  LEU284     -0.1231
    127  CA       -65.7130   31.3480   30.9300 C.3   284  LEU284      0.1693
    128  C        -64.5300   31.4090   29.9730 C.2   284  LEU284      0.2591
    129  O        -64.5300   32.2060   29.0290 O.2   284  LEU284     -0.2718
    130  CB       -65.4060   32.1020   32.2270 C.3   284  LEU284      0.0284
    131  CG       -66.6100   32.3360   33.1470 C.3   284  LEU284      0.0019
    132  CD1      -66.1610   32.9340   34.4760 C.3   284  LEU284      0.0001
    133  CD2      -67.6520   33.2290   32.4840 C.3   284  LEU284      0.0001
    134  N        -63.5170   30.5650   30.1870 N.am  285  LYS285     -0.1980
    135  CA       -62.3770   30.5520   29.2740 C.3   285  LYS285      0.1596
    136  C        -62.8080   30.1280   27.8770 C.2   285  LYS285      0.2287
    137  O        -62.3350   30.6820   26.8780 O.2   285  LYS285     -0.2864
    138  CB       -61.2770   29.6240   29.7920 C.3   285  LYS285      0.0298
    139  CG       -60.0280   29.6470   28.9120 C.3   285  LYS285      0.0038
    140  CD       -58.9240   28.7270   29.4050 C.3   285  LYS285      0.0206
    141  CE       -57.7210   28.8050   28.4750 C.3   285  LYS285      0.1093
    142  NZ       -56.7050   27.7540   28.7450 N.3   285  LYS285     -0.1314
    143  N        -65.0660   32.9170   26.0120 N.3   288  THR288     -0.1203
    144  CA       -64.3690   34.1130   25.5570 C.3   288  THR288      0.1994
    145  C        -63.5620   33.8710   24.2890 C.2   288  THR288      0.2617
    146  O        -63.2380   34.8340   23.5850 O.2   288  THR288     -0.2717
    147  CB       -63.4420   34.6400   26.6540 C.3   288  THR288      0.1784
    148  OG1      -62.5390   33.6080   27.0660 O.3   288  THR288     -0.2211
    149  CG2      -64.2510   35.1200   27.8500 C.3   288  THR288      0.0376
    150  N        -63.2350   32.6180   23.9840 N.am  289  ASN289     -0.1974
    151  CA       -62.4640   32.2690   22.8010 C.3   289  ASN289      0.1688
    152  C        -63.3280   31.7380   21.6650 C.2   289  ASN289      0.2292
    153  O        -62.7880   31.3610   20.6210 O.2   289  ASN289     -0.2864
    154  CB       -61.4040   31.2210   23.1610 C.3   289  ASN289      0.1181
    155  CG       -60.5180   31.6540   24.3180 C.2   289  ASN289      0.2629
    156  OD1      -60.6950   32.7320   24.8840 O.2   289  ASN289     -0.2716
    157  ND2      -59.5650   30.8010   24.6820 N.am  289  ASN289     -0.0877
@<TRIPOS>BOND
     1   153   152    2
     2   152   151    1
     3   151   154    1
     4   151   150    1
     5   154   155    1
     6   146   145    2
     7   150   145   am
     8   145   144    1
     9   155   157   am
    10   155   156    2
    11    65    64    2
    12   144   143    1
    13   144   147    1
    14    64    63    1
    15   147   148    1
    16   147   149    1
    17   137   136    2
    18    66    63    1
    19    66    67    1
    20    63    62    1
    21   136   135    1
    22   141   142    1
    23   141   140    1
    24   139   140    1
    25   139   138    1
    26   129   128    2
    27   135   138    1
    28   135   134    1
    29    57    56    2
    30   128   134   am
    31   128   127    1
    32    56    55    1
    33    83    81    1
    34   127   126    1
    35   127   130    1
    36    60    58    1
    37    53    52    1
    38    68    69    1
    39    51    50    2
    40    72    69    1
    41    72    73    1
    42    75    73   ar
    43    55    58    1
    44    55    54    1
    45    69    70    1
    46    58    59    1
    47    73    74   ar
    48    81    80    1
    49   130   131    1
    50    50    49    1
    51   133   131    1
    52    52    49    1
    53   121   120    2
    54    49    48    1
    55   131   132    1
    56    80    82    1
    57    80    77    1
    58    59    61    1
    59    70    71    2
    60   120   119    1
    61   113   112    2
    62    44    43    2
    63    48    43   am
    64    77    76    1
    65    77    78    1
    66    43    42    1
    67   119   118    1
    68   119   122    1
    69   112   118   am
    70   112   111    1
    71    10     8   ar
    72    10    11   ar
    73    78    79    2
    74    39    38    2
    75     8     6   ar
    76   117   115    1
    77   111   114    1
    78   111   110    1
    79   122   123    1
    80    11     9   ar
    81    42    41    1
    82    42    45    1
    83    46    45    1
    84    38    37    1
    85   114   115    1
    86    40    37    1
    87   115   116    1
    88     6     5    1
    89     6     7   ar
    90    45    47    1
    91   123   124    1
    92     5     2    1
    93    37    36    1
    94   125   124    1
    95     9     7   ar
    96     1     2    1
    97    88    85    1
    98     2     3    1
    99    84    85    1
   100    36    30   am
   101    31    30    2
   102    27    25    1
   103    26    24    1
   104    23    22    2
   105    85    86    1
   106     3     4    2
   107   105   104    2
   108    30    29    1
   109    25    24    1
   110    22    21    1
   111    24    21    1
   112    21    20    1
   113   104   103    1
   114    86    87    2
   115    15    14    2
   116    29    28    1
   117    29    32    1
   118    19    17    1
   119   103   102    1
   120   103   106    1
   121    17    18    1
   122    17    16    1
   123    20    14   am
   124    14    13    1
   125    32    33    1
   126   100    99    1
   127    93    90    1
   128   106   107    1
   129    16    13    1
   130   107   108    1
   131    99   101    1
   132    99    98    1
   133    13    12    1
   134    33    35    1
   135    33    34    1
   136    89    90    1
   137    90    91    1
   138    94    91   am
   139    94    95    1
   140    98    95    1
   141   108   109    1
   142    91    92    2
   143    95    96    1
   144    96    97    2
