@<TRIPOS>MOLECULE
tmp/6bpmA02.pdb
 133 131 0 0 0
SMALL
GASTEIGER

@<TRIPOS>ATOM
      1  N        -22.8850   17.9260   48.8740 N.3   279  THR279     -0.1218
      2  CA       -23.7410   17.2920   47.8830 C.3   279  THR279      0.1862
      3  C        -24.1270   18.3400   46.8580 C.2   279  THR279      0.2287
      4  O        -24.5030   19.4560   47.2260 O.2   279  THR279     -0.2866
      5  CB       -24.9900   16.7000   48.5020 C.3   279  THR279      0.1770
      6  OG1      -24.6200   15.8240   49.5840 O.3   279  THR279     -0.2211
      7  CG2      -25.7390   15.9170   47.4240 C.3   279  THR279      0.0375
      8  N        -24.4690   14.4460   39.6510 N.3   326  LEU326     -0.1231
      9  CA       -24.9040   14.2890   41.0350 C.3   326  LEU326      0.1693
     10  C        -23.7230   13.7240   41.8170 C.2   326  LEU326      0.2593
     11  O        -23.1550   12.7010   41.4180 O.2   326  LEU326     -0.2718
     12  CB       -26.1250   13.3600   41.1390 C.3   326  LEU326      0.0284
     13  CG       -26.6630   12.9640   42.5300 C.3   326  LEU326      0.0019
     14  CD1      -27.0630   14.1980   43.3400 C.3   326  LEU326      0.0001
     15  CD2      -27.8440   11.9520   42.4580 C.3   326  LEU326      0.0001
     16  N        -23.3290   14.4000   42.9020 N.am  327  THR327     -0.1939
     17  CA       -22.1400   13.9820   43.6380 C.3   327  THR327      0.2028
     18  C        -22.2490   14.2860   45.1320 C.2   327  THR327      0.2642
     19  O        -22.8420   15.2880   45.5490 O.2   327  THR327     -0.2714
     20  CB       -20.8740   14.6560   43.0930 C.3   327  THR327      0.1808
     21  OG1      -19.7120   14.0570   43.6950 O.3   327  THR327     -0.2208
     22  CG2      -20.9080   16.1540   43.4070 C.3   327  THR327      0.0379
     23  N        -21.6150   13.4240   45.9260 N.am  328  ASN328     -0.1971
     24  CA       -21.4820   13.6030   47.3650 C.3   328  ASN328      0.1688
     25  C        -20.0220   13.4140   47.7650 C.2   328  ASN328      0.2292
     26  O        -19.4350   12.3580   47.4950 O.2   328  ASN328     -0.2864
     27  CB       -22.3710   12.6180   48.1180 C.3   328  ASN328      0.1181
     28  CG       -22.4070   12.8980   49.5890 C.2   328  ASN328      0.2629
     29  OD1      -23.0100   13.8750   50.0180 O.2   328  ASN328     -0.2716
     30  ND2      -21.7650   12.0500   50.3740 N.am  328  ASN328     -0.0877
     31  N        -18.5950   10.0330   45.8710 N.3   351  PHE351     -0.1227
     32  CA       -19.5150    9.2950   45.0130 C.3   351  PHE351      0.1736
     33  C        -20.0600   10.2650   43.9740 C.2   351  PHE351      0.2596
     34  O        -20.4560   11.3880   44.3160 O.2   351  PHE351     -0.2718
     35  CB       -20.6600    8.6850   45.8030 C.3   351  PHE351      0.0547
     36  CG       -20.2230    7.9310   47.0150 C.ar  351  PHE351     -0.0202
     37  CD1      -19.8590    8.5970   48.1600 C.ar  351  PHE351     -0.0042
     38  CD2      -20.1730    6.5520   47.0030 C.ar  351  PHE351     -0.0042
     39  CE1      -19.4540    7.9030   49.2660 C.ar  351  PHE351     -0.0003
     40  CE2      -19.7730    5.8570   48.1100 C.ar  351  PHE351     -0.0003
     41  CZ       -19.4150    6.5250   49.2400 C.ar  351  PHE351     -0.0000
     42  N        -20.0340    9.8550   42.7050 N.am  352  THR352     -0.1939
     43  CA       -20.3890   10.7530   41.6130 C.3   352  THR352      0.2028
     44  C        -21.1130    9.9840   40.5190 C.2   352  THR352      0.2642
     45  O        -20.7190    8.8650   40.1780 O.2   352  THR352     -0.2714
     46  CB       -19.1220   11.4410   41.0610 C.3   352  THR352      0.1808
     47  OG1      -18.4240   12.0500   42.1550 O.3   352  THR352     -0.2208
     48  CG2      -19.4560   12.5210   40.0650 C.3   352  THR352      0.0379
     49  N        -22.1790   10.5780   39.9830 N.am  353  ARG353     -0.1977
     50  CA       -22.7860   10.0970   38.7490 C.3   353  ARG353      0.1597
     51  C        -22.8050   11.2340   37.7400 C.2   353  ARG353      0.2287
     52  O        -23.2840   12.3330   38.0380 O.2   353  ARG353     -0.2864
     53  CB       -24.1900    9.5470   38.9630 C.3   353  ARG353      0.0334
     54  CG       -24.9440    9.3630   37.6760 C.3   353  ARG353      0.0492
     55  CD       -26.1080    8.4030   37.8220 C.3   353  ARG353      0.2205
     56  NE       -25.6490    7.0500   38.1180 N.pl3 353  ARG353     -0.0865
     57  CZ       -26.4250    5.9740   38.0590 C.cat 353  ARG353      0.5346
     58  NH1      -27.6950    6.0990   37.7010 N.pl3 353  ARG353      0.1354
     59  NH2      -25.9320    4.7740   38.3420 N.pl3 353  ARG353      0.1354
     60  N        -20.0250    6.4270   36.4390 N.3   395  ASP395     -0.1225
     61  CA       -20.1450    6.3750   37.8910 C.3   395  ASP395      0.1805
     62  C        -18.7680    6.2290   38.5240 C.2   395  ASP395      0.2598
     63  O        -17.9830    5.3640   38.1150 O.2   395  ASP395     -0.2718
     64  CB       -21.0560    5.2260   38.3130 C.3   395  ASP395      0.1424
     65  CG       -22.5050    5.5030   37.9990 C.2   395  ASP395      0.3668
     66  OD1      -22.8700    6.6900   37.8420 O.co2 395  ASP395     -0.2456
     67  OD2      -23.2750    4.5350   37.8890 O.co2 395  ASP395     -0.2456
     68  N        -18.4760    7.0710   39.5190 N.am  396  THR396     -0.1939
     69  CA       -17.1570    7.1270   40.1550 C.3   396  THR396      0.2028
     70  C        -17.2450    6.9540   41.6700 C.2   396  THR396      0.2642
     71  O        -18.0820    7.5830   42.3240 O.2   396  THR396     -0.2714
     72  CB       -16.4460    8.4580   39.8550 C.3   396  THR396      0.1808
     73  OG1      -16.5630    8.7860   38.4610 O.3   396  THR396     -0.2208
     74  CG2      -14.9770    8.3870   40.2570 C.3   396  THR396      0.0379
     75  N        -16.3760    6.0970   42.2160 N.am  397  PHE397     -0.1973
     76  CA       -16.0710    6.0290   43.6440 C.3   397  PHE397      0.1639
     77  C        -14.5880    6.3270   43.8280 C.2   397  PHE397      0.2290
     78  O        -13.7430    5.6280   43.2600 O.2   397  PHE397     -0.2864
     79  CB       -16.3770    4.6530   44.2290 C.3   397  PHE397      0.0560
     80  CG       -15.8650    4.4740   45.6510 C.ar  397  PHE397     -0.0200
     81  CD1      -16.6540    4.8310   46.7360 C.ar  397  PHE397     -0.0042
     82  CD2      -14.6140    3.9600   45.8930 C.ar  397  PHE397     -0.0042
     83  CE1      -16.2120    4.6830   48.0300 C.ar  397  PHE397     -0.0003
     84  CE2      -14.1560    3.8100   47.1990 C.ar  397  PHE397     -0.0003
     85  CZ       -14.9600    4.1750   48.2670 C.ar  397  PHE397     -0.0000
     86  N        -12.5150    4.2280   41.2330 N.3   421  ASN421     -0.1225
     87  CA       -13.2280    3.1190   40.6160 C.3   421  ASN421      0.1785
     88  C        -14.3400    3.7330   39.7810 C.2   421  ASN421      0.2597
     89  O        -15.1510    4.5090   40.2960 O.2   421  ASN421     -0.2718
     90  CB       -13.8030    2.1520   41.6480 C.3   421  ASN421      0.1169
     91  CG       -12.7370    1.3660   42.3640 C.2   421  ASN421      0.2627
     92  OD1      -11.7060    1.0330   41.7880 O.2   421  ASN421     -0.2716
     93  ND2      -12.9860    1.0470   43.6290 N.am  421  ASN421     -0.0877
     94  N        -14.3390    3.4390   38.4870 N.am  422  TYR422     -0.1962
     95  CA       -15.2920    4.0250   37.5670 C.3   422  TYR422      0.1771
     96  C        -15.9250    2.9230   36.7390 C.2   422  TYR422      0.2619
     97  O        -15.3100    1.8880   36.4710 O.2   422  TYR422     -0.2715
     98  CB       -14.6300    5.0780   36.6540 C.3   422  TYR422      0.0574
     99  CG       -13.7030    4.5210   35.5900 C.ar  422  TYR422     -0.0198
    100  CD1      -14.1710    4.2130   34.3240 C.ar  422  TYR422     -0.0009
    101  CD2      -12.3560    4.3090   35.8570 C.ar  422  TYR422     -0.0009
    102  CE1      -13.3210    3.7110   33.3460 C.ar  422  TYR422      0.0417
    103  CE2      -11.5050    3.8010   34.8930 C.ar  422  TYR422      0.0417
    104  CZ       -11.9890    3.5010   33.6420 C.ar  422  TYR422      0.1957
    105  OH       -11.1370    2.9980   32.6820 O.3   422  TYR422     -0.2866
    106  N        -17.1830    3.1450   36.3730 N.am  423  HIS423     -0.1973
    107  CA       -17.8630    2.3760   35.3420 C.3   423  HIS423      0.1656
    108  C        -18.4310    3.3860   34.3680 C.2   423  HIS423      0.2291
    109  O        -19.0660    4.3560   34.7960 O.2   423  HIS423     -0.2864
    110  CB       -18.9630    1.5050   35.9160 C.3   423  HIS423      0.0771
    111  CG       -19.6510    0.6570   34.8950 C.ar  423  HIS423      0.0820
    112  ND1      -18.9770   -0.2460   34.1010 N.ar  423  HIS423     -0.2267
    113  CD2      -20.9540    0.5700   34.5410 C.ar  423  HIS423      0.1154
    114  CE1      -19.8360   -0.8580   33.3080 C.ar  423  HIS423      0.1986
    115  NE2      -21.0410   -0.3760   33.5500 N.ar  423  HIS423     -0.2212
    116  N        -15.0460   -0.6260   32.6460 N.3   460  SER460     -0.1202
    117  CA       -14.7870   -0.4790   34.0800 C.3   460  SER460      0.2020
    118  C        -13.2890   -0.3960   34.3250 C.2   460  SER460      0.2619
    119  O        -12.4980   -1.0880   33.6720 O.2   460  SER460     -0.2717
    120  CB       -15.3340   -1.6520   34.8790 C.3   460  SER460      0.2103
    121  OG       -16.7350   -1.7480   34.7320 O.3   460  SER460     -0.2182
    122  N        -12.8960    0.4410   35.2750 N.am  461  GLY461     -0.1942
    123  CA       -11.4730    0.5530   35.4990 C.3   461  GLY461      0.2014
    124  C        -11.1080    1.1870   36.8210 C.2   461  GLY461      0.2638
    125  O        -11.9520    1.6670   37.5840 O.2   461  GLY461     -0.2714
    126  N         -9.8060    1.1850   37.0600 N.am  462  ASN462     -0.1972
    127  CA        -9.1920    1.7670   38.2330 C.3   462  ASN462      0.1688
    128  C         -8.2770    2.8900   37.7820 C.2   462  ASN462      0.2292
    129  O         -7.7230    2.8570   36.6830 O.2   462  ASN462     -0.2864
    130  CB        -8.3980    0.7120   39.0010 C.3   462  ASN462      0.1181
    131  CG        -9.3040   -0.2830   39.6900 C.2   462  ASN462      0.2629
    132  OD1       -9.6980   -0.0680   40.8290 O.2   462  ASN462     -0.2716
    133  ND2       -9.6670   -1.3610   38.9970 N.am  462  ASN462     -0.0877
@<TRIPOS>BOND
     1   116   117    1
     2   105   104    1
     3   114   115   ar
     4   114   112   ar
     5   102   104   ar
     6   102   100   ar
     7   115   113   ar
     8   104   103   ar
     9   119   118    2
    10   117   118    1
    11   117   120    1
    12   112   111   ar
    13   100    99   ar
    14   118   122   am
    15   108   109    2
    16   108   107    1
    17   113   111   ar
    18   121   120    1
    19   103   101   ar
    20   111   110    1
    21   122   123    1
    22   107   110    1
    23   107   106    1
    24   123   124    1
    25    99   101   ar
    26    99    98    1
    27   106    96   am
    28    60    61    1
    29    97    96    2
    30    98    95    1
    31   129   128    2
    32    96    95    1
    33   124   126   am
    34   124   125    2
    35   126   127    1
    36    95    94    1
    37    54    55    1
    38    54    53    1
    39    58    57    1
    40    51    52    2
    41    51    50    1
    42   128   127    1
    43    55    56    1
    44    66    65   ar
    45    67    65   ar
    46    61    64    1
    47    61    62    1
    48    65    64    1
    49    57    56    2
    50    57    59    1
    51    63    62    2
    52   127   130    1
    53    73    72    1
    54    94    88   am
    55    62    68   am
    56    50    53    1
    57    50    49    1
    58   133   131   am
    59   130   131    1
    60    68    69    1
    61     8     9    1
    62   131   132    2
    63    88    89    2
    64    88    87    1
    65    72    69    1
    66    72    74    1
    67    49    44   am
    68    48    46    1
    69    69    70    1
    70    45    44    2
    71    44    43    1
    72    87    86    1
    73    87    90    1
    74     9    12    1
    75     9    10    1
    76    46    43    1
    77    46    47    1
    78    12    13    1
    79    11    10    2
    80    43    42    1
    81    90    91    1
    82    70    75   am
    83    70    71    2
    84    92    91    2
    85    10    16   am
    86    75    76    1
    87    91    93   am
    88    15    13    1
    89    13    14    1
    90    42    33   am
    91    16    17    1
    92    20    22    1
    93    20    17    1
    94    20    21    1
    95    78    77    2
    96    17    18    1
    97    76    77    1
    98    76    79    1
    99    33    34    2
   100    33    32    1
   101    79    80    1
   102    32    35    1
   103    32    31    1
   104    18    19    2
   105    18    23   am
   106    80    82   ar
   107    80    81   ar
   108    35    36    1
   109    82    84   ar
   110    23    24    1
   111    81    83   ar
   112     3     4    2
   113     3     2    1
   114    38    36   ar
   115    38    40   ar
   116    36    37   ar
   117    84    85   ar
   118    24    25    1
   119    24    27    1
   120     7     5    1
   121    26    25    2
   122     2     5    1
   123     2     1    1
   124    83    85   ar
   125    40    41   ar
   126    27    28    1
   127    37    39   ar
   128     5     6    1
   129    41    39   ar
   130    28    29    2
   131    28    30   am
