@<TRIPOS>MOLECULE
tmp/6bpmB04.pdb
 141 138 0 0 0
SMALL
GASTEIGER

@<TRIPOS>ATOM
      1  N        -35.6160   46.4060   46.9060 N.3   152  VAL152     -0.1245
      2  CA       -34.5840   46.9070   47.8050 C.3   152  VAL152      0.1561
      3  C        -34.7370   48.4130   47.8770 C.2   152  VAL152      0.2260
      4  O        -34.6930   49.0980   46.8420 O.2   152  VAL152     -0.2867
      5  CB       -33.1680   46.5510   47.3190 C.3   152  VAL152      0.0252
      6  CG1      -32.1210   47.3390   48.1190 C.3   152  VAL152      0.0019
      7  CG2      -32.9130   45.0430   47.3620 C.3   152  VAL152      0.0019
      8  N        -32.5410   55.3570   47.4380 N.3   162  VAL162     -0.1231
      9  CA       -32.4260   54.6350   46.1850 C.3   162  VAL162      0.1692
     10  C        -33.2990   53.4060   46.3380 C.2   162  VAL162      0.2592
     11  O        -33.4540   52.8620   47.4340 O.2   162  VAL162     -0.2718
     12  CB       -30.9540   54.2280   45.8300 C.3   162  VAL162      0.0266
     13  CG1      -30.1030   55.4550   45.4710 C.3   162  VAL162      0.0020
     14  CG2      -30.3110   53.4350   46.9470 C.3   162  VAL162      0.0020
     15  N        -33.8890   52.9820   45.2340 N.am  163  ARG163     -0.1966
     16  CA       -34.7270   51.8070   45.2170 C.3   163  ARG163      0.1729
     17  C        -34.4040   51.0170   43.9720 C.2   163  ARG163      0.2616
     18  O        -34.0440   51.5800   42.9340 O.2   163  ARG163     -0.2715
     19  CB       -36.2150   52.1640   45.2390 C.3   163  ARG163      0.0348
     20  CG       -37.1030   51.0140   45.6540 C.3   163  ARG163      0.0492
     21  CD       -38.5620   51.4080   45.6870 C.3   163  ARG163      0.2205
     22  NE       -39.4190   50.2840   46.0590 N.pl3 163  ARG163     -0.0865
     23  CZ       -40.6640   50.4400   46.5130 C.cat 163  ARG163      0.5346
     24  NH1      -41.1660   51.6580   46.6510 N.pl3 163  ARG163      0.1354
     25  NH2      -41.3970   49.3860   46.8510 N.pl3 163  ARG163      0.1354
     26  N        -34.5330   49.7060   44.0890 N.am  164  LEU164     -0.1977
     27  CA       -34.2950   48.8220   42.9690 C.3   164  LEU164      0.1596
     28  C        -35.3080   47.7080   43.0770 C.2   164  LEU164      0.2287
     29  O        -35.4740   47.1370   44.1580 O.2   164  LEU164     -0.2864
     30  CB       -32.8670   48.2500   42.9760 C.3   164  LEU164      0.0297
     31  CG       -32.5480   47.1620   41.9390 C.3   164  LEU164      0.0022
     32  CD1      -32.3600   47.7440   40.5410 C.3   164  LEU164      0.0001
     33  CD2      -31.3160   46.3900   42.3660 C.3   164  LEU164      0.0001
     34  N        -34.3730   50.5560   38.5330 N.3   188  PRO188     -0.2102
     35  CA       -33.6250   51.2600   39.5700 C.3   188  PRO188      0.1504
     36  C        -33.9640   52.7280   39.5260 C.2   188  PRO188      0.2576
     37  O        -34.1420   53.2810   38.4390 O.2   188  PRO188     -0.2718
     38  CB       -32.1700   51.0040   39.1760 C.3   188  PRO188      0.0282
     39  CG       -32.2190   50.9590   37.6710 C.3   188  PRO188      0.0208
     40  CD       -33.5880   50.4330   37.2930 C.3   188  PRO188      0.0893
     41  N        -34.0480   53.3620   40.6930 N.am  189  SER189     -0.1938
     42  CA       -34.3740   54.7750   40.7700 C.3   189  SER189      0.2055
     43  C        -33.6540   55.4010   41.9610 C.2   189  SER189      0.2642
     44  O        -33.2050   54.7150   42.8810 O.2   189  SER189     -0.2714
     45  CB       -35.8900   54.9750   40.8390 C.3   189  SER189      0.2130
     46  OG       -36.4660   54.0840   41.7730 O.3   189  SER189     -0.2179
     47  N        -33.5010   56.7160   41.9000 N.am  190  VAL190     -0.1977
     48  CA       -32.8720   57.4930   42.9560 C.3   190  VAL190      0.1596
     49  C        -33.6770   58.7680   43.1040 C.2   190  VAL190      0.2287
     50  O        -34.1170   59.3450   42.1060 O.2   190  VAL190     -0.2864
     51  CB       -31.3860   57.8100   42.6600 C.3   190  VAL190      0.0276
     52  CG1      -31.2530   58.6340   41.3980 C.3   190  VAL190      0.0022
     53  CG2      -30.7760   58.5870   43.8160 C.3   190  VAL190      0.0022
     54  N        -35.5730   60.1890   39.6230 N.3   202  LEU202     -0.1231
     55  CA       -35.0320   59.6270   38.4000 C.3   202  LEU202      0.1693
     56  C        -35.4060   58.1560   38.3660 C.2   202  LEU202      0.2592
     57  O        -35.1130   57.4180   39.3190 O.2   202  LEU202     -0.2718
     58  CB       -33.5080   59.7980   38.3290 C.3   202  LEU202      0.0284
     59  CG       -32.9190   61.2130   38.3470 C.3   202  LEU202      0.0019
     60  CD1      -31.4310   61.1470   38.6530 C.3   202  LEU202      0.0001
     61  CD2      -33.1350   61.9340   37.0290 C.3   202  LEU202      0.0001
     62  N        -36.0320   57.7310   37.2630 N.am  203  ASN203     -0.1960
     63  CA       -36.5190   56.3650   37.1250 C.3   203  ASN203      0.1819
     64  C        -35.9870   55.7400   35.8490 C.2   203  ASN203      0.2621
     65  O        -35.7640   56.4280   34.8500 O.2   203  ASN203     -0.2715
     66  CB       -38.0510   56.2960   37.0830 C.3   203  ASN203      0.1195
     67  CG       -38.6850   56.8670   38.3120 C.2   203  ASN203      0.2630
     68  OD1      -39.4380   57.8320   38.2320 O.2   203  ASN203     -0.2716
     69  ND2      -38.3600   56.3010   39.4670 N.am  203  ASN203     -0.0877
     70  N        -35.8060   54.4190   35.8900 N.am  204  TYR204     -0.1974
     71  CA       -35.4410   53.6650   34.7010 C.3   204  TYR204      0.1639
     72  C        -36.0930   52.2920   34.7600 C.2   204  TYR204      0.2290
     73  O        -36.1680   51.6790   35.8330 O.2   204  TYR204     -0.2864
     74  CB       -33.9220   53.4900   34.5500 C.3   204  TYR204      0.0560
     75  CG       -33.6260   52.6550   33.3380 C.ar  204  TYR204     -0.0198
     76  CD1      -33.8040   53.1710   32.0520 C.ar  204  TYR204     -0.0009
     77  CD2      -33.2650   51.3250   33.4630 C.ar  204  TYR204     -0.0009
     78  CE1      -33.5730   52.3960   30.9230 C.ar  204  TYR204      0.0417
     79  CE2      -33.0350   50.5430   32.3410 C.ar  204  TYR204      0.0417
     80  CZ       -33.1920   51.0840   31.0790 C.ar  204  TYR204      0.1957
     81  OH       -32.9560   50.2950   29.9860 O.3   204  TYR204     -0.2866
     82  N        -37.1940   55.7420   30.7760 N.3   261  ALA261     -0.1231
     83  CA       -36.4620   56.6620   31.6330 C.3   261  ALA261      0.1694
     84  C        -37.3810   57.8240   31.9790 C.2   261  ALA261      0.2593
     85  O        -38.0140   58.4020   31.0910 O.2   261  ALA261     -0.2718
     86  CB       -35.2040   57.1730   30.9410 C.3   261  ALA261      0.0304
     87  N        -37.4580   58.1650   33.2640 N.am  262  THR262     -0.1939
     88  CA       -38.3450   59.2170   33.7360 C.3   262  THR262      0.2028
     89  C        -37.5730   60.1450   34.6630 C.2   262  THR262      0.2642
     90  O        -36.7410   59.7050   35.4630 O.2   262  THR262     -0.2714
     91  CB       -39.5740   58.6260   34.4800 C.3   262  THR262      0.1808
     92  OG1      -40.0370   57.4610   33.7870 O.3   262  THR262     -0.2208
     93  CG2      -40.7280   59.6410   34.5460 C.3   262  THR262      0.0379
     94  N        -37.8500   61.4320   34.5450 N.am  263  MET263     -0.1976
     95  CA       -37.1910   62.4550   35.3430 C.3   263  MET263      0.1605
     96  C        -38.2690   63.4190   35.8130 C.2   263  MET263      0.2287
     97  O        -38.8650   64.1180   34.9860 O.2   263  MET263     -0.2864
     98  CB       -36.1340   63.1570   34.5000 C.3   263  MET263      0.0413
     99  CG       -35.4710   64.3490   35.1170 C.3   263  MET263      0.0598
    100  SD       -34.2580   64.9560   33.9320 S.3   263  MET263     -0.1393
    101  CE       -35.2890   65.5880   32.6110 C.3   263  MET263      0.0692
    102  N        -40.4670   64.3390   32.6940 N.3   279  THR279     -0.1203
    103  CA       -40.0050   64.0270   31.3480 C.3   279  THR279      0.1994
    104  C        -39.8270   62.5260   31.2280 C.2   279  THR279      0.2618
    105  O        -39.1130   61.9180   32.0320 O.2   279  THR279     -0.2717
    106  CB       -38.6690   64.7050   31.0280 C.3   279  THR279      0.1784
    107  OG1      -38.7590   66.1090   31.2910 O.3   279  THR279     -0.2211
    108  CG2      -38.3360   64.4950   29.5780 C.3   279  THR279      0.0376
    109  N        -40.4220   61.9360   30.2040 N.am  280  ARG280     -0.1965
    110  CA       -40.2580   60.5100   29.9710 C.3   280  ARG280      0.1729
    111  C        -39.8470   60.2570   28.5340 C.2   280  ARG280      0.2616
    112  O        -40.2930   60.9590   27.6220 O.2   280  ARG280     -0.2715
    113  CB       -41.5220   59.7130   30.2710 C.3   280  ARG280      0.0348
    114  CG       -41.3930   58.2410   29.8830 C.3   280  ARG280      0.0492
    115  CD       -42.5250   57.4450   30.4600 C.3   280  ARG280      0.2205
    116  NE       -42.4450   57.3500   31.9110 N.pl3 280  ARG280     -0.0865
    117  CZ       -43.4530   56.9340   32.6760 C.cat 280  ARG280      0.5346
    118  NH1      -44.6100   56.6070   32.1070 N.pl3 280  ARG280      0.1354
    119  NH2      -43.3160   56.8610   34.0020 N.pl3 280  ARG280      0.1354
    120  N        -38.9500   59.2840   28.3640 N.am  281  TRP281     -0.1974
    121  CA       -38.6200   58.6570   27.0890 C.3   281  TRP281      0.1640
    122  C        -38.9380   57.1780   27.2070 C.2   281  TRP281      0.2290
    123  O        -38.4930   56.5250   28.1580 O.2   281  TRP281     -0.2864
    124  CB       -37.1410   58.8380   26.7380 C.3   281  TRP281      0.0576
    125  CG       -36.7500   58.1640   25.4470 C.ar  281  TRP281      0.0006
    126  CD1      -36.7800   58.7140   24.1920 C.ar  281  TRP281      0.0946
    127  CD2      -36.2730   56.8130   25.2830 C.ar  281  TRP281      0.0152
    128  NE1      -36.3570   57.7890   23.2650 N.ar  281  TRP281     -0.2442
    129  CE2      -36.0430   56.6170   23.9030 C.ar  281  TRP281      0.0810
    130  CE3      -36.0280   55.7530   26.1650 C.ar  281  TRP281      0.0012
    131  CZ2      -35.5760   55.4050   23.3830 C.ar  281  TRP281      0.0191
    132  CZ3      -35.5650   54.5410   25.6440 C.ar  281  TRP281      0.0001
    133  CH2      -35.3420   54.3820   24.2630 C.ar  281  TRP281      0.0015
    134  N        -41.9870   60.3260   23.6700 N.3   326  LEU326     -0.1245
    135  CA       -41.1970   61.3470   24.3460 C.3   326  LEU326      0.1561
    136  C        -42.1470   62.4320   24.8250 C.2   326  LEU326      0.2260
    137  O        -42.9050   62.9740   24.0150 O.2   326  LEU326     -0.2867
    138  CB       -40.1570   61.9490   23.4060 C.3   326  LEU326      0.0270
    139  CG       -39.3640   63.1510   23.9280 C.3   326  LEU326      0.0019
    140  CD1      -38.5700   62.8100   25.1920 C.3   326  LEU326      0.0001
    141  CD2      -38.4680   63.7140   22.8200 C.3   326  LEU326      0.0001
@<TRIPOS>BOND
     1   141   139    1
     2   128   129   ar
     3   128   126   ar
     4   131   129   ar
     5   131   133   ar
     6   138   139    1
     7   138   135    1
     8   134   135    1
     9   129   127   ar
    10   139   140    1
    11   137   136    2
    12   126   125   ar
    13   133   132   ar
    14   135   136    1
    15   127   125   ar
    16   127   130   ar
    17   125   124    1
    18   132   130   ar
    19   124   121    1
    20   121   122    1
    21   121   120    1
    22   122   123    2
    23   112   111    2
    24   120   111   am
    25   111   110    1
    26   108   106    1
    27   114   113    1
    28   114   115    1
    29   110   109    1
    30   110   113    1
    31    81    80    1
    32   109   104   am
    33   115   116    1
    34    82    83    1
    35    78    80   ar
    36    78    76   ar
    37    86    83    1
    38   106   107    1
    39   106   103    1
    40    80    79   ar
    41    85    84    2
    42   104   103    1
    43   104   105    2
    44   103   102    1
    45    83    84    1
    46   116   117    2
    47    84    87   am
    48    76    75   ar
    49   118   117    1
    50    79    77   ar
    51   101   100    1
    52   117   119    1
    53    87    88    1
    54    75    77   ar
    55    75    74    1
    56    88    91    1
    57    88    89    1
    58    92    91    1
    59   100    99    1
    60    91    93    1
    61    98    99    1
    62    98    95    1
    63    94    89   am
    64    94    95    1
    65    74    71    1
    66    89    90    2
    67    71    72    1
    68    71    70    1
    69    72    73    2
    70    65    64    2
    71    97    96    2
    72    95    96    1
    73    64    70   am
    74    64    63    1
    75    61    59    1
    76    66    63    1
    77    66    67    1
    78    63    62    1
    79    62    56   am
    80    40    39    1
    81    40    34    1
    82    39    38    1
    83    68    67    2
    84    67    69   am
    85    58    59    1
    86    58    55    1
    87    59    60    1
    88    56    55    1
    89    56    57    2
    90    55    54    1
    91    37    36    2
    92    34    35    1
    93    38    35    1
    94    36    35    1
    95    36    41   am
    96    32    31    1
    97    41    42    1
    98    42    45    1
    99    42    43    1
   100    45    46    1
   101    52    51    1
   102    47    43   am
   103    47    48    1
   104    31    33    1
   105    31    30    1
   106    43    44    2
   107    50    49    2
   108    51    48    1
   109    51    53    1
   110    18    17    2
   111    48    49    1
   112    27    30    1
   113    27    28    1
   114    27    26    1
   115    28    29    2
   116    17    26   am
   117    17    16    1
   118    16    15    1
   119    16    19    1
   120    15    10   am
   121    19    20    1
   122    13    12    1
   123    20    21    1
   124    21    22    1
   125    12     9    1
   126    12    14    1
   127    22    23    2
   128     9    10    1
   129     9     8    1
   130    10    11    2
   131    23    24    1
   132    23    25    1
   133     4     3    2
   134     1     2    1
   135     5     7    1
   136     5     2    1
   137     5     6    1
   138     2     3    1
