@<TRIPOS>MOLECULE
tmp/6bpmB03.pdb
 134 128 0 0 0
SMALL
GASTEIGER

@<TRIPOS>ATOM
      1  N        -70.7330   64.7050   34.6070 N.3   484  TYR484     -0.1241
      2  CA       -70.8830   64.6280   33.1600 C.3   484  TYR484      0.1605
      3  C        -69.5250   64.8950   32.5210 C.2   484  TYR484      0.2264
      4  O        -68.8230   65.8320   32.9180 O.2   484  TYR484     -0.2867
      5  CB       -71.9340   65.6260   32.6530 C.3   484  TYR484      0.0534
      6  CG       -72.0960   65.6410   31.1430 C.ar  484  TYR484     -0.0201
      7  CD1      -72.9650   64.7610   30.5100 C.ar  484  TYR484     -0.0009
      8  CD2      -71.3820   66.5380   30.3550 C.ar  484  TYR484     -0.0009
      9  CE1      -73.1100   64.7650   29.1370 C.ar  484  TYR484      0.0417
     10  CE2      -71.5270   66.5550   28.9810 C.ar  484  TYR484      0.0417
     11  CZ       -72.3920   65.6660   28.3760 C.ar  484  TYR484      0.1957
     12  OH       -72.5390   65.6760   27.0030 O.3   484  TYR484     -0.2866
     13  N        -69.8710   61.0420   25.3230 N.3   518  ASN518     -0.1240
     14  CA       -70.4590   61.8110   26.4160 C.3   518  ASN518      0.1653
     15  C        -70.9150   60.8430   27.5010 C.2   518  ASN518      0.2266
     16  O        -71.6420   59.8880   27.2130 O.2   518  ASN518     -0.2867
     17  CB       -71.6440   62.6520   25.9420 C.3   518  ASN518      0.1155
     18  CG       -71.2830   63.6030   24.8240 C.2   518  ASN518      0.2627
     19  OD1      -70.6080   63.2310   23.8650 O.2   518  ASN518     -0.2716
     20  ND2      -71.7350   64.8490   24.9430 N.am  518  ASN518     -0.0877
     21  N        -72.4930   60.2790   31.5190 N.3   520  SER520     -0.1217
     22  CA       -73.2790   60.7870   32.6310 C.3   520  SER520      0.1889
     23  C        -73.1920   59.8050   33.7850 C.2   520  SER520      0.2288
     24  O        -73.1230   58.5890   33.5800 O.2   520  SER520     -0.2866
     25  CB       -74.7370   60.9850   32.2330 C.3   520  SER520      0.2089
     26  OG       -74.8290   62.0550   31.3220 O.3   520  SER520     -0.2183
     27  N        -74.3590   59.1610   38.0960 N.3   522  ILE522     -0.1245
     28  CA       -74.9950   59.5340   39.3590 C.3   522  ILE522      0.1561
     29  C        -74.7250   58.4460   40.3860 C.2   522  ILE522      0.2260
     30  O        -75.0100   57.2690   40.1400 O.2   522  ILE522     -0.2867
     31  CB       -76.5120   59.7360   39.2250 C.3   522  ILE522      0.0252
     32  CG1      -76.8240   60.8660   38.2390 C.3   522  ILE522      0.0019
     33  CG2      -77.1180   59.9660   40.6190 C.3   522  ILE522      0.0019
     34  CD1      -78.3100   61.0750   37.9930 C.3   522  ILE522      0.0001
     35  N        -75.0600   54.9840   38.7610 N.3   539  LEU539     -0.1231
     36  CA       -75.7620   54.8180   37.4970 C.3   539  LEU539      0.1693
     37  C        -74.9870   55.6090   36.4540 C.2   539  LEU539      0.2592
     38  O        -74.5240   56.7230   36.7340 O.2   539  LEU539     -0.2718
     39  CB       -77.2190   55.3230   37.5580 C.3   539  LEU539      0.0284
     40  CG       -78.4330   54.6640   38.2360 C.3   539  LEU539      0.0019
     41  CD1      -78.6010   53.2200   37.7660 C.3   539  LEU539      0.0001
     42  CD2      -78.4190   54.7580   39.7620 C.3   539  LEU539      0.0001
     43  N        -74.8010   55.0180   35.2710 N.am  540  PHE540     -0.1962
     44  CA       -73.9950   55.6500   34.2340 C.3   540  PHE540      0.1771
     45  C        -74.5900   55.3780   32.8600 C.2   540  PHE540      0.2619
     46  O        -75.2050   54.3330   32.6310 O.2   540  PHE540     -0.2715
     47  CB       -72.5450   55.1350   34.2390 C.3   540  PHE540      0.0574
     48  CG       -72.4110   53.7370   33.6950 C.ar  540  PHE540     -0.0200
     49  CD1      -72.5550   52.6370   34.5270 C.ar  540  PHE540     -0.0042
     50  CD2      -72.1680   53.5230   32.3400 C.ar  540  PHE540     -0.0042
     51  CE1      -72.4520   51.3500   34.0280 C.ar  540  PHE540     -0.0003
     52  CE2      -72.0590   52.2280   31.8260 C.ar  540  PHE540     -0.0003
     53  CZ       -72.2030   51.1420   32.6730 C.ar  540  PHE540     -0.0000
     54  N        -74.3370   56.3060   31.9310 N.am  541  ARG541     -0.1977
     55  CA       -74.6140   56.1130   30.5120 C.3   541  ARG541      0.1597
     56  C        -73.5340   56.7870   29.6780 C.2   541  ARG541      0.2287
     57  O        -73.2850   57.9850   29.8330 O.2   541  ARG541     -0.2864
     58  CB       -75.9580   56.7010   30.1050 C.3   541  ARG541      0.0334
     59  CG       -76.0240   56.9160   28.6090 C.3   541  ARG541      0.0492
     60  CD       -77.2400   57.7020   28.2010 C.3   541  ARG541      0.2205
     61  NE       -78.4700   56.9490   28.3910 N.pl3 541  ARG541     -0.0865
     62  CZ       -79.6620   57.4190   28.0540 C.cat 541  ARG541      0.5346
     63  NH1      -79.7570   58.6230   27.5130 N.pl3 541  ARG541      0.1354
     64  NH2      -80.7520   56.6970   28.2600 N.pl3 541  ARG541      0.1354
     65  N        -72.8290   57.7750   25.8040 N.3   543  ASP543     -0.1239
     66  CA       -73.3670   57.9080   24.4570 C.3   543  ASP543      0.1674
     67  C        -72.2040   58.2060   23.5180 C.2   543  ASP543      0.2266
     68  O        -71.4940   59.1980   23.7050 O.2   543  ASP543     -0.2867
     69  CB       -74.4320   59.0120   24.3810 C.3   543  ASP543      0.1410
     70  CG       -75.8170   58.5590   24.8910 C.2   543  ASP543      0.3668
     71  OD1      -76.1430   57.3550   24.7810 O.co2 543  ASP543     -0.2456
     72  OD2      -76.5870   59.4160   25.3950 O.co2 543  ASP543     -0.2456
     73  N        -74.8050   51.6310   29.1340 N.3   565  GLU565     -0.1231
     74  CA       -75.4930   52.1950   30.2850 C.3   565  GLU565      0.1699
     75  C        -75.6960   51.1040   31.3190 C.2   565  GLU565      0.2593
     76  O        -75.7810   49.9210   30.9840 O.2   565  GLU565     -0.2718
     77  CB       -76.8410   52.8430   29.9030 C.3   565  GLU565      0.0402
     78  CG       -77.8790   51.9080   29.2920 C.3   565  GLU565      0.1161
     79  CD       -79.2300   52.5940   29.0890 C.2   565  GLU565      0.3649
     80  OE1      -79.2410   53.8390   28.9760 O.co2 565  GLU565     -0.2457
     81  OE2      -80.2740   51.8930   29.0530 O.co2 565  GLU565     -0.2457
     82  N        -75.7940   51.5070   32.5740 N.am  566  GLY566     -0.1942
     83  CA       -76.0480   50.5160   33.6060 C.3   566  GLY566      0.2014
     84  C        -75.6750   51.0630   34.9720 C.2   566  GLY566      0.2638
     85  O        -75.7220   52.2740   35.2080 O.2   566  GLY566     -0.2714
     86  N        -75.3390   50.1460   35.8720 N.am  567  TYR567     -0.1973
     87  CA       -74.9470   50.5480   37.2110 C.3   567  TYR567      0.1639
     88  C        -73.7220   49.7500   37.6300 C.2   567  TYR567      0.2290
     89  O        -73.3800   48.7240   37.0350 O.2   567  TYR567     -0.2864
     90  CB       -76.1010   50.4060   38.2300 C.3   567  TYR567      0.0560
     91  CG       -76.6340   49.0100   38.4520 C.ar  567  TYR567     -0.0198
     92  CD1      -76.1270   48.2160   39.4700 C.ar  567  TYR567     -0.0009
     93  CD2      -77.6630   48.4950   37.6700 C.ar  567  TYR567     -0.0009
     94  CE1      -76.6090   46.9400   39.6970 C.ar  567  TYR567      0.0417
     95  CE2      -78.1500   47.2120   37.8880 C.ar  567  TYR567      0.0417
     96  CZ       -77.6160   46.4400   38.9060 C.ar  567  TYR567      0.1957
     97  OH       -78.0790   45.1650   39.1490 O.3   567  TYR567     -0.2866
     98  N        -73.5370   45.8230   35.7470 N.3   587  GLN587     -0.1245
     99  CA       -74.5020   45.4710   34.7220 C.3   587  GLN587      0.1566
    100  C        -74.4580   46.5770   33.6820 C.2   587  GLN587      0.2260
    101  O        -74.7470   47.7380   33.9950 O.2   587  GLN587     -0.2867
    102  CB       -75.9060   45.3020   35.3090 C.3   587  GLN587      0.0367
    103  CG       -76.9230   44.9890   34.2350 C.3   587  GLN587      0.0905
    104  CD       -78.3280   44.8790   34.7550 C.2   587  GLN587      0.2608
    105  OE1      -79.2730   44.9580   33.9770 O.2   587  GLN587     -0.2717
    106  NE2      -78.4800   44.6790   36.0740 N.am  587  GLN587     -0.0878
    107  N        -75.3250   47.4170   29.5040 N.3   589  LYS589     -0.1245
    108  CA       -75.9590   47.0300   28.2510 C.3   589  LYS589      0.1561
    109  C        -75.3250   47.8810   27.1510 C.2   589  LYS589      0.2260
    110  O        -75.5170   49.1010   27.1060 O.2   589  LYS589     -0.2867
    111  CB       -77.4840   47.1660   28.3110 C.3   589  LYS589      0.0271
    112  CG       -78.1700   46.6390   27.0510 C.3   589  LYS589      0.0035
    113  CD       -78.0520   45.1150   26.9900 C.3   589  LYS589      0.0206
    114  CE       -78.8910   44.4910   25.8850 C.3   589  LYS589      0.1093
    115  NZ       -78.7820   43.0000   25.9260 N.3   589  LYS589     -0.1314
    116  N        -72.7810   41.4470   29.8460 N.3   611  GLU611     -0.1231
    117  CA       -73.8070   42.3310   30.3830 C.3   611  GLU611      0.1699
    118  C        -73.8640   42.3150   31.9030 C.2   611  GLU611      0.2592
    119  O        -74.2040   43.3340   32.5220 O.2   611  GLU611     -0.2718
    120  CB       -75.1680   41.9430   29.8180 C.3   611  GLU611      0.0402
    121  CG       -76.2950   42.7630   30.3720 C.3   611  GLU611      0.1161
    122  CD       -77.6100   42.3360   29.8000 C.2   611  GLU611      0.3649
    123  OE1      -78.6570   42.6900   30.3890 O.co2 611  GLU611     -0.2457
    124  OE2      -77.5790   41.6380   28.7630 O.co2 611  GLU611     -0.2457
    125  N        -73.5870   41.1610   32.4960 N.am  612  HIS612     -0.1976
    126  CA       -73.4170   40.9960   33.9250 C.3   612  HIS612      0.1656
    127  C        -71.9800   40.5610   34.1730 C.2   612  HIS612      0.2291
    128  O        -71.4220   39.7790   33.3970 O.2   612  HIS612     -0.2864
    129  CB       -74.3930   39.9590   34.4880 C.3   612  HIS612      0.0771
    130  CG       -75.8280   40.2550   34.1870 C.ar  612  HIS612      0.0820
    131  ND1      -76.6190   41.0250   35.0160 N.ar  612  HIS612     -0.2267
    132  CD2      -76.6240   39.8670   33.1620 C.ar  612  HIS612      0.1154
    133  CE1      -77.8350   41.1100   34.5070 C.ar  612  HIS612      0.1986
    134  NE2      -77.8660   40.4130   33.3860 N.ar  612  HIS612     -0.2212
@<TRIPOS>BOND
     1    67    68    2
     2    67    66    1
     3    19    18    2
     4    69    66    1
     5    69    70    1
     6    66    65    1
     7    71    70   ar
     8    18    20   am
     9    18    17    1
    10    70    72   ar
    11    13    14    1
    12   114   115    1
    13   114   113    1
    14    17    14    1
    15    14    15    1
    16   113   112    1
    17    12    11    1
    18   112   111    1
    19   110   109    2
    20   109   108    1
    21    16    15    2
    22    63    62    1
    23    62    64    1
    24    62    61    2
    25    60    61    1
    26    60    59    1
    27   108   111    1
    28   108   107    1
    29    11    10   ar
    30    11     9   ar
    31    59    58    1
    32   124   122   ar
    33    80    79   ar
    34    10     8   ar
    35    81    79   ar
    36    79    78    1
    37    73    74    1
    38     9     7   ar
    39    78    77    1
    40    56    57    2
    41    56    55    1
    42   122   121    1
    43   122   123   ar
    44   120   121    1
    45   120   117    1
    46   116   117    1
    47    77    74    1
    48    58    55    1
    49    74    75    1
    50     8     6   ar
    51   117   118    1
    52     7     6   ar
    53    55    54    1
    54    76    75    2
    55     6     5    1
    56    75    82   am
    57    26    25    1
    58    21    22    1
    59    52    50   ar
    60    52    53   ar
    61   118   125   am
    62   118   119    2
    63    54    45   am
    64    25    22    1
    65    50    48   ar
    66   125   126    1
    67     3     4    2
    68     3     2    1
    69    82    83    1
    70    22    23    1
    71    46    45    2
    72     5     2    1
    73    53    51   ar
    74    45    44    1
    75     2     1    1
    76   132   134   ar
    77   132   130   ar
    78   134   133   ar
    79   128   127    2
    80    24    23    2
    81    83    84    1
    82   100   101    2
    83   100    99    1
    84    48    47    1
    85    48    49   ar
    86   126   127    1
    87   126   129    1
    88   105   104    2
    89    51    49   ar
    90   130   129    1
    91   130   131   ar
    92    44    47    1
    93    44    43    1
    94   103   104    1
    95   103   102    1
    96   133   131   ar
    97    99   102    1
    98    99    98    1
    99   104   106   am
   100    84    85    2
   101    84    86   am
   102    43    37   am
   103    86    87    1
   104    37    38    2
   105    37    36    1
   106    89    88    2
   107    87    88    1
   108    87    90    1
   109    36    39    1
   110    36    35    1
   111    39    40    1
   112    93    95   ar
   113    93    91   ar
   114    41    40    1
   115    95    96   ar
   116    34    32    1
   117    27    28    1
   118    90    91    1
   119    40    42    1
   120    32    31    1
   121    91    92   ar
   122    96    97    1
   123    96    94   ar
   124    31    28    1
   125    31    33    1
   126    28    29    1
   127    92    94   ar
   128    30    29    2
