@<TRIPOS>MOLECULE
tmp/6bpmB02.pdb
 128 124 0 0 0
SMALL
GASTEIGER

@<TRIPOS>ATOM
      1  N        -37.8940   40.0430   49.3300 N.3   136  ALA136     -0.1231
      2  CA       -37.5780   39.1050   48.2710 C.3   136  ALA136      0.1694
      3  C        -38.6420   38.0300   48.2650 C.2   136  ALA136      0.2593
      4  O        -39.2310   37.7150   49.3020 O.2   136  ALA136     -0.2718
      5  CB       -36.1960   38.4720   48.4490 C.3   136  ALA136      0.0304
      6  N        -38.8960   37.4890   47.0800 N.am  137  SER137     -0.1938
      7  CA       -39.9080   36.4690   46.8890 C.3   137  SER137      0.2055
      8  C        -39.3780   35.4310   45.9140 C.2   137  SER137      0.2643
      9  O        -38.6080   35.7400   45.0020 O.2   137  SER137     -0.2714
     10  CB       -41.2060   37.0730   46.3660 C.3   137  SER137      0.2130
     11  OG       -41.9040   37.6890   47.4260 O.3   137  SER137     -0.2179
     12  N        -39.7840   34.1930   46.1250 N.am  138  ALA138     -0.1963
     13  CA       -39.4430   33.1230   45.2140 C.3   138  ALA138      0.1728
     14  C        -40.6730   32.2470   45.0820 C.2   138  ALA138      0.2617
     15  O        -41.2420   31.8510   46.0990 O.2   138  ALA138     -0.2715
     16  CB       -38.2380   32.3340   45.7310 C.3   138  ALA138      0.0334
     17  N        -41.1060   31.9780   43.8440 N.am  139  SER139     -0.1936
     18  CA       -42.3250   31.2160   43.5850 C.3   139  SER139      0.2055
     19  C        -42.0500   30.0070   42.7000 C.2   139  SER139      0.2642
     20  O        -41.3320   30.0990   41.7020 O.2   139  SER139     -0.2714
     21  CB       -43.3810   32.0830   42.9110 C.3   139  SER139      0.2130
     22  OG       -43.8160   33.1140   43.7590 O.3   139  SER139     -0.2179
     23  N        -42.6790   28.8920   43.0280 N.am  140  ILE140     -0.1977
     24  CA       -42.7220   27.7390   42.1460 C.3   140  ILE140      0.1596
     25  C        -44.1810   27.3300   42.0020 C.2   140  ILE140      0.2287
     26  O        -44.9440   27.3690   42.9710 O.2   140  ILE140     -0.2864
     27  CB       -41.8760   26.5720   42.6820 C.3   140  ILE140      0.0276
     28  CG1      -41.8360   25.4470   41.6510 C.3   140  ILE140      0.0022
     29  CG2      -42.4460   26.0690   44.0050 C.3   140  ILE140      0.0022
     30  CD1      -40.8220   24.3560   41.9560 C.3   140  ILE140      0.0001
     31  N        -41.7180   29.3730   37.5570 N.3   146  ARG146     -0.1231
     32  CA       -40.7030   29.8510   38.4790 C.3   146  ARG146      0.1694
     33  C        -40.6700   31.3610   38.3770 C.2   146  ARG146      0.2592
     34  O        -40.6810   31.9150   37.2680 O.2   146  ARG146     -0.2718
     35  CB       -39.3210   29.2700   38.1540 C.3   146  ARG146      0.0321
     36  CG       -39.1660   27.8200   38.5580 C.3   146  ARG146      0.0489
     37  CD       -37.9910   27.1910   37.8430 C.3   146  ARG146      0.2205
     38  NE       -36.7550   27.8920   38.1680 N.pl3 146  ARG146     -0.0865
     39  CZ       -35.5690   27.6250   37.6350 C.cat 146  ARG146      0.5346
     40  NH1      -35.4360   26.6590   36.7360 N.pl3 146  ARG146      0.1354
     41  NH2      -34.5150   28.3300   38.0060 N.pl3 146  ARG146      0.1354
     42  N        -40.6540   32.0260   39.5240 N.am  147  ARG147     -0.1966
     43  CA       -40.6040   33.4770   39.5200 C.3   147  ARG147      0.1729
     44  C        -39.8210   33.9300   40.7350 C.2   147  ARG147      0.2617
     45  O        -39.9290   33.3310   41.8080 O.2   147  ARG147     -0.2715
     46  CB       -42.0000   34.1030   39.5200 C.3   147  ARG147      0.0348
     47  CG       -41.9900   35.6210   39.6640 C.3   147  ARG147      0.0492
     48  CD       -43.4360   36.1910   39.5630 C.3   147  ARG147      0.2205
     49  NE       -43.4460   37.3900   38.7390 N.pl3 147  ARG147     -0.0865
     50  CZ       -43.5910   38.6190   39.2070 C.cat 147  ARG147      0.5346
     51  NH1      -43.7830   38.8150   40.5020 N.pl3 147  ARG147      0.1354
     52  NH2      -43.5640   39.6480   38.3770 N.pl3 147  ARG147      0.1354
     53  N        -39.0250   34.9700   40.5540 N.am  148  GLY148     -0.1940
     54  CA       -38.3280   35.5830   41.6590 C.3   148  GLY148      0.2014
     55  C        -38.4430   37.0810   41.5320 C.2   148  GLY148      0.2640
     56  O        -38.4510   37.5970   40.4130 O.2   148  GLY148     -0.2714
     57  N        -38.5820   37.7850   42.6530 N.am  149  THR149     -0.1936
     58  CA       -38.6120   39.2420   42.6650 C.3   149  THR149      0.2028
     59  C        -37.7820   39.7260   43.8400 C.2   149  THR149      0.2642
     60  O        -37.6300   39.0180   44.8400 O.2   149  THR149     -0.2714
     61  CB       -40.0380   39.8120   42.7940 C.3   149  THR149      0.1808
     62  OG1      -40.6750   39.2390   43.9420 O.3   149  THR149     -0.2208
     63  CG2      -40.8710   39.5120   41.5320 C.3   149  THR149      0.0379
     64  N        -37.2590   40.9470   43.7100 N.am  150  LEU150     -0.1977
     65  CA       -36.4630   41.6080   44.7340 C.3   150  LEU150      0.1596
     66  C        -36.8340   43.0830   44.7720 C.2   150  LEU150      0.2287
     67  O        -36.8900   43.7450   43.7290 O.2   150  LEU150     -0.2864
     68  CB       -34.9610   41.4590   44.4570 C.3   150  LEU150      0.0297
     69  CG       -34.0010   42.0550   45.4940 C.3   150  LEU150      0.0022
     70  CD1      -34.0760   41.3000   46.8160 C.3   150  LEU150      0.0001
     71  CD2      -32.5710   42.1070   44.9870 C.3   150  LEU150      0.0001
     72  N        -36.3170   44.1310   40.9180 N.3   166  VAL166     -0.1231
     73  CA       -35.7660   43.1950   39.9570 C.3   166  VAL166      0.1692
     74  C        -36.7240   42.0250   39.8880 C.2   166  VAL166      0.2592
     75  O        -37.2440   41.5780   40.9150 O.2   166  VAL166     -0.2718
     76  CB       -34.3330   42.7450   40.3720 C.3   166  VAL166      0.0266
     77  CG1      -33.6210   42.0010   39.2410 C.3   166  VAL166      0.0020
     78  CG2      -33.4960   43.9510   40.8450 C.3   166  VAL166      0.0020
     79  N        -36.9610   41.5280   38.6780 N.am  167  MET167     -0.1965
     80  CA       -37.9100   40.4450   38.4640 C.3   167  MET167      0.1736
     81  C        -37.3490   39.5100   37.4090 C.2   167  MET167      0.2617
     82  O        -36.6650   39.9560   36.4810 O.2   167  MET167     -0.2715
     83  CB       -39.2950   41.0020   38.0490 C.3   167  MET167      0.0427
     84  CG       -40.2690   39.9790   37.4890 C.3   167  MET167      0.0599
     85  SD       -40.0800   39.5950   35.7270 S.3   167  MET167     -0.1393
     86  CE       -40.3900   41.2060   35.0060 C.3   167  MET167      0.0692
     87  N        -37.6090   38.2130   37.5840 N.am  168  GLY168     -0.1940
     88  CA       -37.3700   37.1910   36.5840 C.3   168  GLY168      0.2014
     89  C        -38.4440   36.1140   36.6210 C.2   168  GLY168      0.2639
     90  O        -38.8480   35.6830   37.7020 O.2   168  GLY168     -0.2714
     91  N        -38.9120   35.6570   35.4650 N.am  169  GLU169     -0.1963
     92  CA       -39.9930   34.6810   35.4330 C.3   169  GLU169      0.1733
     93  C        -39.8140   33.7570   34.2430 C.2   169  GLU169      0.2616
     94  O        -39.4790   34.2060   33.1400 O.2   169  GLU169     -0.2715
     95  CB       -41.3590   35.3670   35.3490 C.3   169  GLU169      0.0429
     96  CG       -42.5480   34.4230   35.4800 C.3   169  GLU169      0.1163
     97  CD       -43.8800   35.1230   35.2360 C.2   169  GLU169      0.3649
     98  OE1      -44.3180   35.8890   36.1230 O.co2 169  GLU169     -0.2457
     99  OE2      -44.4920   34.8960   34.1660 O.co2 169  GLU169     -0.2457
    100  N        -40.0460   32.4670   34.4760 N.am  170  LYS170     -0.1977
    101  CA       -39.9390   31.4410   33.4440 C.3   170  LYS170      0.1596
    102  C        -41.0770   30.4520   33.6510 C.2   170  LYS170      0.2287
    103  O        -41.2690   29.9540   34.7640 O.2   170  LYS170     -0.2864
    104  CB       -38.5920   30.7130   33.5200 C.3   170  LYS170      0.0298
    105  CG       -37.4060   31.4400   32.8890 C.3   170  LYS170      0.0038
    106  CD       -36.3020   30.4430   32.6120 C.3   170  LYS170      0.0206
    107  CE       -35.6850   30.7040   31.2760 C.3   170  LYS170      0.1093
    108  NZ       -34.7850   29.5880   30.8960 N.3   170  LYS170     -0.1314
    109  N        -37.8170   39.1660   32.2430 N.3   184  TYR184     -0.1241
    110  CA       -36.8540   39.6690   33.2040 C.3   184  TYR184      0.1605
    111  C        -37.0260   41.1750   33.2530 C.2   184  TYR184      0.2264
    112  O        -37.2860   41.7960   32.2200 O.2   184  TYR184     -0.2867
    113  CB       -35.4120   39.3250   32.7890 C.3   184  TYR184      0.0534
    114  CG       -35.2320   37.8740   32.4180 C.ar  184  TYR184     -0.0201
    115  CD1      -35.1450   36.8970   33.4010 C.ar  184  TYR184     -0.0009
    116  CD2      -35.1650   37.4750   31.0830 C.ar  184  TYR184     -0.0009
    117  CE1      -34.9920   35.5600   33.0750 C.ar  184  TYR184      0.0417
    118  CE2      -35.0150   36.1320   30.7400 C.ar  184  TYR184      0.0417
    119  CZ       -34.9230   35.1830   31.7500 C.ar  184  TYR184      0.1957
    120  OH       -34.7670   33.8500   31.4610 O.3   184  TYR184     -0.2866
    121  N        -39.5300   36.8410   51.8940 N.3   709  MET709     -0.1245
    122  CA       -38.4440   37.1560   52.8070 C.3   709  MET709      0.1570
    123  C        -38.4240   38.6630   53.0030 C.2   709  MET709      0.2261
    124  O        -38.7150   39.4160   52.0730 O.2   709  MET709     -0.2867
    125  CB       -37.0750   36.6710   52.2770 C.3   709  MET709      0.0387
    126  CG       -36.8130   35.1570   52.3310 C.3   709  MET709      0.0595
    127  SD       -37.5560   34.1400   51.0220 S.3   709  MET709     -0.1393
    128  CE       -36.6080   34.5390   49.5420 C.3   709  MET709      0.0692
@<TRIPOS>BOND
     1   118   116   ar
     2   118   119   ar
     3   108   107    1
     4   116   114   ar
     5   107   106    1
     6   120   119    1
     7   119   117   ar
     8   112   111    2
     9   109   110    1
    10   114   113    1
    11   114   115   ar
    12   106   105    1
    13   113   110    1
    14   105   104    1
    15   117   115   ar
    16    94    93    2
    17   110   111    1
    18   101   104    1
    19   101   102    1
    20   101   100    1
    21   102   103    2
    22    99    97   ar
    23    93   100   am
    24    93    92    1
    25    86    85    1
    26    97    96    1
    27    97    98   ar
    28    95    92    1
    29    95    96    1
    30    92    91    1
    31    91    89   am
    32    85    84    1
    33    82    81    2
    34    88    89    1
    35    88    87    1
    36    89    90    2
    37    40    39    1
    38    34    33    2
    39    81    87   am
    40    81    80    1
    41    84    83    1
    42    31    32    1
    43    39    41    1
    44    39    38    2
    45    37    38    1
    46    37    36    1
    47    83    80    1
    48    35    32    1
    49    35    36    1
    50    52    50    1
    51    33    32    1
    52    33    42   am
    53    80    79    1
    54    79    74   am
    55    49    50    2
    56    49    48    1
    57    50    51    1
    58    77    76    1
    59    46    43    1
    60    46    47    1
    61    43    42    1
    62    43    44    1
    63    48    47    1
    64    74    73    1
    65    74    75    2
    66    73    76    1
    67    73    72    1
    68    76    78    1
    69    56    55    2
    70    53    44   am
    71    53    54    1
    72    44    45    2
    73    55    54    1
    74    55    57   am
    75    63    61    1
    76    28    30    1
    77    28    27    1
    78    20    19    2
    79    25    24    1
    80    25    26    2
    81    24    27    1
    82    24    23    1
    83    57    58    1
    84    58    61    1
    85    58    59    1
    86    27    29    1
    87    19    23   am
    88    19    18    1
    89    61    62    1
    90    21    18    1
    91    21    22    1
    92    18    17    1
    93    64    59   am
    94    64    65    1
    95    67    66    2
    96    59    60    2
    97    17    14   am
    98    68    65    1
    99    68    69    1
   100    65    66    1
   101    71    69    1
   102     9     8    2
   103    14    13    1
   104    14    15    2
   105    13    16    1
   106    13    12    1
   107    69    70    1
   108     8    12   am
   109     8     7    1
   110    10     7    1
   111    10    11    1
   112     7     6    1
   113     6     3   am
   114     3     2    1
   115     3     4    2
   116     2     5    1
   117     2     1    1
   118   128   127    1
   119   127   126    1
   120   121   122    1
   121   124   123    2
   122   125   126    1
   123   125   122    1
   124   122   123    1
