@<TRIPOS>MOLECULE
tmp/6bpnA04.pdb
 110 107 0 0 0
SMALL
GASTEIGER

@<TRIPOS>ATOM
      1  N         33.3700   47.3430   42.2970 N.3   559  PHE559     -0.1241
      2  CA        33.0980   46.0230   42.8380 C.3   559  PHE559      0.1605
      3  C         31.6080   45.7760   42.7260 C.2   559  PHE559      0.2264
      4  O         30.8050   46.6980   42.9100 O.2   559  PHE559     -0.2867
      5  CB        33.5610   45.9270   44.3040 C.3   559  PHE559      0.0534
      6  CG        33.0990   44.6850   45.0200 C.ar  559  PHE559     -0.0203
      7  CD1       31.8620   44.6490   45.6450 C.ar  559  PHE559     -0.0042
      8  CD2       33.9130   43.5640   45.0910 C.ar  559  PHE559     -0.0042
      9  CE1       31.4370   43.5010   46.3100 C.ar  559  PHE559     -0.0003
     10  CE2       33.4930   42.4250   45.7550 C.ar  559  PHE559     -0.0003
     11  CZ        32.2510   42.3960   46.3640 C.ar  559  PHE559     -0.0000
     12  N         28.8000   42.2750   43.6290 N.3   561  LEU561     -0.1245
     13  CA        28.6110   40.8730   43.9710 C.3   561  LEU561      0.1561
     14  C         27.1470   40.6670   44.3110 C.2   561  LEU561      0.2260
     15  O         26.5640   41.4420   45.0850 O.2   561  LEU561     -0.2867
     16  CB        29.5040   40.4530   45.1370 C.3   561  LEU561      0.0270
     17  CG        29.4400   38.9660   45.5090 C.3   561  LEU561      0.0019
     18  CD1       29.9340   38.0810   44.3510 C.3   561  LEU561      0.0001
     19  CD2       30.2380   38.7150   46.7690 C.3   561  LEU561      0.0001
     20  N         24.5540   37.4100   45.4220 N.3   563  SER563     -0.1217
     21  CA        24.5780   36.0680   45.9890 C.3   563  SER563      0.1889
     22  C         23.1460   35.6430   46.2870 C.2   563  SER563      0.2288
     23  O         22.4100   36.3800   46.9520 O.2   563  SER563     -0.2866
     24  CB        25.4330   36.0420   47.2650 C.3   563  SER563      0.2089
     25  OG        25.3590   34.8040   47.9320 O.3   563  SER563     -0.2183
     26  N         16.6720   33.5780   49.2130 N.3   573  VAL573     -0.1231
     27  CA        17.0940   34.8930   49.6820 C.3   573  VAL573      0.1692
     28  C         18.2890   35.3220   48.8500 C.2   573  VAL573      0.2593
     29  O         19.1600   34.5080   48.5260 O.2   573  VAL573     -0.2718
     30  CB        17.4450   34.8950   51.1920 C.3   573  VAL573      0.0266
     31  CG1       16.1790   34.7270   52.0400 C.3   573  VAL573      0.0020
     32  CG2       18.4120   33.7820   51.5140 C.3   573  VAL573      0.0020
     33  N         18.3130   36.5900   48.4780 N.am  574  GLY574     -0.1942
     34  CA        19.4120   37.1210   47.6990 C.3   574  GLY574      0.2014
     35  C         19.8170   38.4580   48.2680 C.2   574  GLY574      0.2639
     36  O         19.0280   39.1450   48.9240 O.2   574  GLY574     -0.2714
     37  N         21.0640   38.8240   48.0090 N.am  575  ALA575     -0.1963
     38  CA        21.5530   40.1360   48.3900 C.3   575  ALA575      0.1728
     39  C         22.6800   40.5020   47.4440 C.2   575  ALA575      0.2617
     40  O         23.4140   39.6300   46.9700 O.2   575  ALA575     -0.2715
     41  CB        22.0390   40.1640   49.8440 C.3   575  ALA575      0.0334
     42  N         22.8030   41.8000   47.1720 N.am  576  GLY576     -0.1940
     43  CA        23.8770   42.2990   46.3430 C.3   576  GLY576      0.2014
     44  C         24.4620   43.5650   46.9360 C.2   576  GLY576      0.2638
     45  O         23.8130   44.2810   47.7030 O.2   576  GLY576     -0.2714
     46  N         25.7140   43.8240   46.5710 N.am  577  ALA577     -0.1977
     47  CA        26.3830   45.0530   46.9630 C.3   577  ALA577      0.1597
     48  C         27.2880   45.4720   45.8180 C.2   577  ALA577      0.2287
     49  O         27.9470   44.6300   45.2080 O.2   577  ALA577     -0.2864
     50  CB        27.1890   44.8710   48.2580 C.3   577  ALA577      0.0319
     51  N         28.5610   53.0490   48.0100 N.3   601  TRP601     -0.1241
     52  CA        28.0610   51.6840   48.0500 C.3   601  TRP601      0.1605
     53  C         26.5550   51.7010   47.8230 C.2   601  TRP601      0.2264
     54  O         25.8630   52.6210   48.2620 O.2   601  TRP601     -0.2867
     55  CB        28.3510   51.0310   49.4120 C.3   601  TRP601      0.0550
     56  CG        29.7540   50.5320   49.6210 C.ar  601  TRP601      0.0003
     57  CD1       30.7570   51.1630   50.2940 C.ar  601  TRP601      0.0946
     58  CD2       30.2880   49.2700   49.1910 C.ar  601  TRP601      0.0152
     59  NE1       31.8940   50.3790   50.2910 N.ar  601  TRP601     -0.2442
     60  CE2       31.6290   49.2080   49.6380 C.ar  601  TRP601      0.0810
     61  CE3       29.7660   48.1910   48.4590 C.ar  601  TRP601      0.0012
     62  CZ2       32.4620   48.1090   49.3760 C.ar  601  TRP601      0.0191
     63  CZ3       30.5940   47.0870   48.2040 C.ar  601  TRP601      0.0001
     64  CH2       31.9270   47.0650   48.6560 C.ar  601  TRP601      0.0015
     65  N         23.3650   48.6880   48.2040 N.3   603  ALA603     -0.1231
     66  CA        23.0020   47.3210   48.5330 C.3   603  ALA603      0.1694
     67  C         21.5750   47.0390   48.0700 C.2   603  ALA603      0.2592
     68  O         20.7080   47.9170   48.0930 O.2   603  ALA603     -0.2718
     69  CB        23.1410   47.0630   50.0480 C.3   603  ALA603      0.0304
     70  N         21.3380   45.7980   47.6540 N.am  604  ASP604     -0.1960
     71  CA        20.0380   45.3370   47.1860 C.3   604  ASP604      0.1840
     72  C         19.7300   44.0090   47.8640 C.2   604  ASP604      0.2622
     73  O         20.6450   43.2730   48.2360 O.2   604  ASP604     -0.2715
     74  CB        20.0100   45.1470   45.6370 C.3   604  ASP604      0.1450
     75  CG        20.4000   46.4220   44.8570 C.2   604  ASP604      0.3671
     76  OD1       19.9620   47.5510   45.2110 O.co2 604  ASP604     -0.2456
     77  OD2       21.1440   46.2840   43.8590 O.co2 604  ASP604     -0.2456
     78  N         18.4420   43.6920   48.0190 N.am  605  ALA605     -0.1963
     79  CA        18.0580   42.4530   48.6910 C.3   605  ALA605      0.1728
     80  C         16.8470   41.8460   48.0030 C.2   605  ALA605      0.2616
     81  O         16.0960   42.5320   47.3050 O.2   605  ALA605     -0.2715
     82  CB        17.7610   42.6760   50.1890 C.3   605  ALA605      0.0334
     83  N         16.6470   40.5460   48.2380 N.am  606  LYS606     -0.1977
     84  CA        15.6050   39.7950   47.5560 C.3   606  LYS606      0.1596
     85  C         15.1020   38.6580   48.4430 C.2   606  LYS606      0.2287
     86  O         15.8860   37.9570   49.0930 O.2   606  LYS606     -0.2864
     87  CB        16.1330   39.2570   46.2150 C.3   606  LYS606      0.0298
     88  CG        15.1660   38.4090   45.4180 C.3   606  LYS606      0.0038
     89  CD        15.3220   36.9290   45.7920 C.3   606  LYS606      0.0206
     90  CE        14.5510   36.0300   44.8500 C.3   606  LYS606      0.1093
     91  NZ        15.2410   35.9830   43.5480 N.3   606  LYS606     -0.1314
     92  N         18.9820   49.3380   49.7570 N.3   624  LEU624     -0.1231
     93  CA        18.4470   48.8860   51.0410 C.3   624  LEU624      0.1693
     94  C         18.7160   49.8810   52.1690 C.2   624  LEU624      0.2592
     95  O         17.8810   50.0470   53.0670 O.2   624  LEU624     -0.2718
     96  CB        19.0590   47.5280   51.3770 C.3   624  LEU624      0.0284
     97  CG        18.8110   46.9170   52.7500 C.3   624  LEU624      0.0019
     98  CD1       17.3820   46.4100   52.8310 C.3   624  LEU624      0.0001
     99  CD2       19.8040   45.7830   52.9610 C.3   624  LEU624      0.0001
    100  N         19.8840   50.5260   52.1670 N.am  625  PHE625     -0.1976
    101  CA        20.2000   51.4810   53.2220 C.3   625  PHE625      0.1639
    102  C         19.7620   52.9020   52.8950 C.2   625  PHE625      0.2290
    103  O         20.0430   53.8140   53.6760 O.2   625  PHE625     -0.2864
    104  CB        21.6910   51.4510   53.5420 C.3   625  PHE625      0.0560
    105  CG        22.1650   50.1050   53.9900 C.ar  625  PHE625     -0.0200
    106  CD1       21.7370   49.5770   55.2030 C.ar  625  PHE625     -0.0042
    107  CD2       23.0060   49.3420   53.1850 C.ar  625  PHE625     -0.0042
    108  CE1       22.1520   48.3090   55.6110 C.ar  625  PHE625     -0.0003
    109  CE2       23.4320   48.0750   53.5910 C.ar  625  PHE625     -0.0003
    110  CZ        22.9980   47.5600   54.7990 C.ar  625  PHE625     -0.0000
@<TRIPOS>BOND
     1     1     2    1
     2     3     2    1
     3     3     4    2
     4     2     5    1
     5    91    90    1
     6    12    13    1
     7    77    75   ar
     8    13    14    1
     9    13    16    1
    10     5     6    1
    11    14    15    2
    12    18    17    1
    13    90    89    1
    14    75    76   ar
    15    75    74    1
    16     6     8   ar
    17     6     7   ar
    18     8    10   ar
    19    16    17    1
    20    49    48    2
    21    88    89    1
    22    88    87    1
    23    20    21    1
    24    17    19    1
    25    74    71    1
    26     7     9   ar
    27    10    11   ar
    28    48    47    1
    29    21    22    1
    30    21    24    1
    31    87    84    1
    32    22    23    2
    33     9    11   ar
    34    43    44    1
    35    43    42    1
    36    46    44   am
    37    46    47    1
    38    44    45    2
    39    47    50    1
    40    40    39    2
    41    42    39   am
    42    71    70    1
    43    71    72    1
    44    24    25    1
    45    81    80    2
    46    39    38    1
    47    84    83    1
    48    84    85    1
    49    70    67   am
    50    34    35    1
    51    34    33    1
    52    53    52    1
    53    53    54    2
    54    72    78   am
    55    72    73    2
    56    80    83   am
    57    80    79    1
    58    37    35   am
    59    37    38    1
    60    51    52    1
    61    78    79    1
    62    52    55    1
    63    67    68    2
    64    67    66    1
    65    63    61   ar
    66    63    64   ar
    67    65    66    1
    68    35    36    2
    69    38    41    1
    70    85    86    2
    71    61    58   ar
    72    33    28   am
    73    29    28    2
    74    66    69    1
    75    64    62   ar
    76    79    82    1
    77    28    27    1
    78    58    56   ar
    79    58    60   ar
    80    26    27    1
    81    62    60   ar
    82    55    56    1
    83    56    57   ar
    84    60    59   ar
    85    27    30    1
    86    92    93    1
    87    59    57   ar
    88    93    96    1
    89    93    94    1
    90    30    32    1
    91    30    31    1
    92    96    97    1
    93   100    94   am
    94   100   101    1
    95    94    95    2
    96    97    98    1
    97    97    99    1
    98   102   101    1
    99   102   103    2
   100   107   109   ar
   101   107   105   ar
   102   101   104    1
   103   104   105    1
   104   109   110   ar
   105   105   106   ar
   106   110   108   ar
   107   106   108   ar
