@<TRIPOS>MOLECULE
tmp/6bpnA01.pdb
 103 99 0 0 0
SMALL
GASTEIGER

@<TRIPOS>ATOM
      1  N         17.0550   39.4640   39.9920 N.3    37  GLN37      -0.1245
      2  CA        17.2980   40.8310   40.4350 C.3    37  GLN37       0.1566
      3  C         16.1650   41.7920   40.0690 C.2    37  GLN37       0.2260
      4  O         16.2240   42.9750   40.4460 O.2    37  GLN37      -0.2867
      5  CB        18.6420   41.3330   39.8640 C.3    37  GLN37       0.0367
      6  CG        19.8720   40.5880   40.4390 C.3    37  GLN37       0.0905
      7  CD        21.1850   40.9140   39.7240 C.2    37  GLN37       0.2608
      8  OE1       21.2060   41.6870   38.7700 O.2    37  GLN37      -0.2717
      9  NE2       22.2880   40.3050   40.1820 N.am   37  GLN37      -0.0878
     10  N         24.4800   46.3410   36.1280 N.3    47  LYS47      -0.1231
     11  CA        25.0200   46.4340   37.4810 C.3    47  LYS47       0.1693
     12  C         25.8800   45.2230   37.8550 C.2    47  LYS47       0.2592
     13  O         26.6850   45.3090   38.7880 O.2    47  LYS47      -0.2718
     14  CB        23.8710   46.6290   38.4650 C.3    47  LYS47       0.0285
     15  CG        23.2890   48.0320   38.3410 C.3    47  LYS47       0.0035
     16  CD        21.9360   48.1880   39.0040 C.3    47  LYS47       0.0206
     17  CE        21.4170   49.6100   38.7290 C.3    47  LYS47       0.1093
     18  NZ        20.0520   49.8640   39.2800 N.3    47  LYS47      -0.1314
     19  N         25.7620   44.1130   37.1330 N.am   48  ASN48      -0.1974
     20  CA        26.5550   42.9300   37.4430 C.3    48  ASN48       0.1688
     21  C         27.9550   42.9730   36.8570 C.2    48  ASN48       0.2292
     22  O         28.7140   42.0250   37.0600 O.2    48  ASN48      -0.2864
     23  CB        25.8400   41.6780   36.9500 C.3    48  ASN48       0.1181
     24  CG        24.5160   41.4530   37.6600 C.2    48  ASN48       0.2629
     25  OD1       24.4890   40.9930   38.8100 O.2    48  ASN48      -0.2716
     26  ND2       23.4080   41.7940   36.9870 N.am   48  ASN48      -0.0877
     27  N         27.2440   35.8790   41.3370 N.3   540  ILE540     -0.1245
     28  CA        27.8650   36.5200   40.1840 C.3   540  ILE540      0.1561
     29  C         28.3870   37.8900   40.6060 C.2   540  ILE540      0.2260
     30  O         27.6980   38.6550   41.2870 O.2   540  ILE540     -0.2867
     31  CB        26.8850   36.6270   38.9940 C.3   540  ILE540      0.0252
     32  CG1       27.5570   37.3570   37.8300 C.3   540  ILE540      0.0019
     33  CG2       25.6330   37.3830   39.3700 C.3   540  ILE540      0.0019
     34  CD1       26.7420   37.3080   36.5900 C.3   540  ILE540      0.0001
     35  N         31.2440   44.5340   42.4180 N.3   560  THR560     -0.1203
     36  CA        29.8540   44.1320   42.5030 C.3   560  THR560      0.1994
     37  C         29.8010   42.6510   42.8460 C.2   560  THR560      0.2618
     38  O         30.6760   41.8750   42.4500 O.2   560  THR560     -0.2717
     39  CB        29.0860   44.4470   41.2010 C.3   560  THR560      0.1784
     40  OG1       27.7090   44.0790   41.3550 O.3   560  THR560     -0.2211
     41  CG2       29.6680   43.7010   40.0080 C.3   560  THR560      0.0376
     42  N         28.8000   42.2750   43.6290 N.am  561  LEU561     -0.1965
     43  CA        28.6110   40.8730   43.9710 C.3   561  LEU561      0.1728
     44  C         27.1470   40.6670   44.3110 C.2   561  LEU561      0.2616
     45  O         26.5640   41.4420   45.0850 O.2   561  LEU561     -0.2715
     46  CB        29.5040   40.4530   45.1370 C.3   561  LEU561      0.0311
     47  CG        29.4400   38.9660   45.5090 C.3   561  LEU561      0.0022
     48  CD1       29.9340   38.0810   44.3510 C.3   561  LEU561      0.0001
     49  CD2       30.2380   38.7150   46.7690 C.3   561  LEU561      0.0001
     50  N         26.5570   39.6590   43.6850 N.am  562  TRP562     -0.1974
     51  CA        25.1950   39.2250   43.9480 C.3   562  TRP562      0.1640
     52  C         25.2440   37.7560   44.3400 C.2   562  TRP562      0.2290
     53  O         25.9310   36.9610   43.6920 O.2   562  TRP562     -0.2864
     54  CB        24.3050   39.4350   42.7220 C.3   562  TRP562      0.0576
     55  CG        22.9650   38.7530   42.8180 C.ar  562  TRP562      0.0006
     56  CD1       22.6430   37.5200   42.3500 C.ar  562  TRP562      0.0946
     57  CD2       21.7730   39.2780   43.4270 C.ar  562  TRP562      0.0152
     58  NE1       21.3260   37.2460   42.6140 N.ar  562  TRP562     -0.2442
     59  CE2       20.7680   38.3110   43.2680 C.ar  562  TRP562      0.0810
     60  CE3       21.4570   40.4880   44.0660 C.ar  562  TRP562      0.0012
     61  CZ2       19.4690   38.4940   43.7460 C.ar  562  TRP562      0.0191
     62  CZ3       20.1700   40.6710   44.5380 C.ar  562  TRP562      0.0001
     63  CH2       19.1910   39.6760   44.3770 C.ar  562  TRP562      0.0015
     64  N         22.8030   41.8000   47.1720 N.3   576  GLY576     -0.1210
     65  CA        23.8770   42.2990   46.3430 C.3   576  GLY576      0.1956
     66  C         24.4620   43.5650   46.9360 C.2   576  GLY576      0.2612
     67  O         23.8130   44.2810   47.7030 O.2   576  GLY576     -0.2717
     68  N         25.7140   43.8240   46.5710 N.am  577  ALA577     -0.1965
     69  CA        26.3830   45.0530   46.9630 C.3   577  ALA577      0.1728
     70  C         27.2880   45.4720   45.8180 C.2   577  ALA577      0.2616
     71  O         27.9470   44.6300   45.2080 O.2   577  ALA577     -0.2715
     72  CB        27.1890   44.8710   48.2580 C.3   577  ALA577      0.0334
     73  N         27.2980   46.7620   45.5030 N.am  578  ARG578     -0.1977
     74  CA        28.2160   47.2630   44.4900 C.3   578  ARG578      0.1597
     75  C         28.8630   48.5340   44.9940 C.2   578  ARG578      0.2287
     76  O         28.2090   49.3470   45.6560 O.2   578  ARG578     -0.2864
     77  CB        27.5260   47.5200   43.1320 C.3   578  ARG578      0.0334
     78  CG        26.4150   48.5510   43.1420 C.3   578  ARG578      0.0492
     79  CD        25.7990   48.6680   41.7440 C.3   578  ARG578      0.2205
     80  NE        24.6570   49.5730   41.7200 N.pl3 578  ARG578     -0.0865
     81  CZ        23.4450   49.2660   42.1750 C.cat 578  ARG578      0.5346
     82  NH1       23.2220   48.0700   42.7040 N.pl3 578  ARG578      0.1354
     83  NH2       22.4560   50.1610   42.1110 N.pl3 578  ARG578      0.1354
     84  N         21.3380   45.7980   47.6540 N.3   604  ASP604     -0.1239
     85  CA        20.0380   45.3370   47.1860 C.3   604  ASP604      0.1674
     86  C         19.7300   44.0090   47.8640 C.2   604  ASP604      0.2266
     87  O         20.6450   43.2730   48.2360 O.2   604  ASP604     -0.2867
     88  CB        20.0100   45.1470   45.6370 C.3   604  ASP604      0.1410
     89  CG        20.4000   46.4220   44.8570 C.2   604  ASP604      0.3668
     90  OD1       19.9620   47.5510   45.2110 O.co2 604  ASP604     -0.2456
     91  OD2       21.1440   46.2840   43.8590 O.co2 604  ASP604     -0.2456
     92  N         15.6980   47.7260   46.6140 N.3   622  TYR622     -0.1241
     93  CA        16.8380   48.3620   45.9750 C.3   622  TYR622      0.1605
     94  C         17.3120   49.5250   46.8330 C.2   622  TYR622      0.2264
     95  O         16.4930   50.2700   47.3840 O.2   622  TYR622     -0.2867
     96  CB        16.4720   48.8320   44.5560 C.3   622  TYR622      0.0534
     97  CG        15.9430   47.7000   43.6880 C.ar  622  TYR622     -0.0201
     98  CD1       16.7970   46.7510   43.1540 C.ar  622  TYR622     -0.0009
     99  CD2       14.5840   47.5830   43.4140 C.ar  622  TYR622     -0.0009
    100  CE1       16.3120   45.7200   42.3590 C.ar  622  TYR622      0.0417
    101  CE2       14.0980   46.5740   42.6260 C.ar  622  TYR622      0.0417
    102  CZ        14.9580   45.6400   42.1040 C.ar  622  TYR622      0.1957
    103  OH        14.4480   44.6280   41.3290 O.3   622  TYR622     -0.2866
@<TRIPOS>BOND
     1    10    11    1
     2    34    32    1
     3    21    22    2
     4    21    20    1
     5    23    20    1
     6    23    24    1
     7    26    24   am
     8    19    20    1
     9    19    12   am
    10    11    12    1
    11    11    14    1
    12    24    25    2
    13    32    31    1
    14    12    13    2
    15    15    14    1
    16    15    16    1
    17    17    16    1
    18    17    18    1
    19     8     7    2
    20    31    33    1
    21    31    28    1
    22     7     9   am
    23     7     6    1
    24     5     2    1
    25     5     6    1
    26     1     2    1
    27    41    39    1
    28     3     2    1
    29     3     4    2
    30    28    29    1
    31    28    27    1
    32    29    30    2
    33    39    40    1
    34    39    36    1
    35   103   102    1
    36    80    79    1
    37    80    81    2
    38    79    78    1
    39   102   100   ar
    40   102   101   ar
    41    83    81    1
    42    81    82    1
    43    56    58   ar
    44    56    55   ar
    45   100    98   ar
    46    35    36    1
    47    38    37    2
    48    36    37    1
    49    58    59   ar
    50   101    99   ar
    51    54    55    1
    52    54    51    1
    53    55    57   ar
    54    37    42   am
    55    77    78    1
    56    77    74    1
    57    98    97   ar
    58    59    57   ar
    59    59    61   ar
    60    99    97   ar
    61    57    60   ar
    62    42    43    1
    63    50    51    1
    64    50    44   am
    65    97    96    1
    66    53    52    2
    67    61    63   ar
    68    91    89   ar
    69    51    52    1
    70    43    44    1
    71    43    46    1
    72    60    62   ar
    73    44    45    2
    74    48    47    1
    75    63    62   ar
    76    74    75    1
    77    74    73    1
    78    96    93    1
    79    89    90   ar
    80    89    88    1
    81    75    76    2
    82    46    47    1
    83    71    70    2
    84    73    70   am
    85    47    49    1
    86    88    85    1
    87    70    69    1
    88    93    92    1
    89    93    94    1
    90    65    66    1
    91    65    64    1
    92    68    66   am
    93    68    69    1
    94    94    95    2
    95    66    67    2
    96    69    72    1
    97    85    84    1
    98    85    86    1
    99    86    87    2
