@<TRIPOS>MOLECULE
tmp/6bpnA05.pdb
 109 101 0 0 0
SMALL
GASTEIGER

@<TRIPOS>ATOM
      1  N         35.6930   25.4230   38.5880 N.3   497  VAL497     -0.1231
      2  CA        35.8540   24.6090   39.7870 C.3   497  VAL497      0.1692
      3  C         34.4920   24.1560   40.2940 C.2   497  VAL497      0.2591
      4  O         33.4560   24.4450   39.6810 O.2   497  VAL497     -0.2718
      5  CB        36.6070   25.3830   40.8840 C.3   497  VAL497      0.0266
      6  CG1       37.9800   25.8090   40.3930 C.3   497  VAL497      0.0020
      7  CG2       35.7980   26.5910   41.3330 C.3   497  VAL497      0.0020
      8  N         34.4910   23.4410   41.4180 N.am  498  LEU498     -0.1980
      9  CA        33.2730   22.9520   42.0620 C.3   498  LEU498      0.1596
     10  C         32.3830   22.2290   41.0570 C.2   498  LEU498      0.2287
     11  O         31.2600   22.6370   40.7710 O.2   498  LEU498     -0.2864
     12  CB        32.5200   24.0960   42.7440 C.3   498  LEU498      0.0297
     13  CG        33.3370   24.8670   43.7940 C.3   498  LEU498      0.0022
     14  CD1       32.4980   25.9260   44.5000 C.3   498  LEU498      0.0001
     15  CD2       33.9650   23.9210   44.8110 C.3   498  LEU498      0.0001
     16  N         31.2080   26.6140   38.5550 N.3   502  LEU502     -0.1245
     17  CA        31.6120   27.9370   39.0090 C.3   502  LEU502      0.1561
     18  C         32.8120   28.3750   38.1890 C.2   502  LEU502      0.2260
     19  O         33.8030   27.6380   38.0940 O.2   502  LEU502     -0.2867
     20  CB        31.9730   27.9400   40.5000 C.3   502  LEU502      0.0270
     21  CG        32.2950   29.3130   41.0910 C.3   502  LEU502      0.0019
     22  CD1       31.0100   30.1470   41.1900 C.3   502  LEU502      0.0001
     23  CD2       32.9750   29.1840   42.4530 C.3   502  LEU502      0.0001
     24  N         35.7680   31.1990   37.5840 N.3   504  LEU504     -0.1245
     25  CA        36.5910   32.2400   38.1770 C.3   504  LEU504      0.1561
     26  C         37.5850   32.7120   37.1310 C.2   504  LEU504      0.2260
     27  O         38.2480   31.8860   36.4980 O.2   504  LEU504     -0.2867
     28  CB        37.3520   31.7200   39.4000 C.3   504  LEU504      0.0270
     29  CG        36.5540   31.2910   40.6270 C.3   504  LEU504      0.0019
     30  CD1       37.4290   30.4360   41.5420 C.3   504  LEU504      0.0001
     31  CD2       36.0780   32.5260   41.3710 C.3   504  LEU504      0.0001
     32  N         33.5530   36.2390   39.0120 N.3   529  VAL529     -0.1245
     33  CA        33.0480   34.9610   39.4930 C.3   529  VAL529      0.1561
     34  C         31.6040   34.8590   39.0350 C.2   529  VAL529      0.2260
     35  O         30.8770   35.8560   39.0090 O.2   529  VAL529     -0.2867
     36  CB        33.1710   34.8150   41.0340 C.3   529  VAL529      0.0252
     37  CG1       32.2720   35.8180   41.7640 C.3   529  VAL529      0.0019
     38  CG2       32.8160   33.3980   41.4550 C.3   529  VAL529      0.0019
     39  N         28.2120   27.8650   43.6860 N.3   533  ILE533     -0.1245
     40  CA        29.1190   27.3770   44.7120 C.3   533  ILE533      0.1561
     41  C         28.6120   26.0440   45.2630 C.2   533  ILE533      0.2260
     42  O         29.3880   25.1130   45.4780 O.2   533  ILE533     -0.2867
     43  CB        29.2830   28.4460   45.8090 C.3   533  ILE533      0.0252
     44  CG1       29.8090   29.7430   45.1920 C.3   533  ILE533      0.0019
     45  CG2       30.2050   27.9510   46.9320 C.3   533  ILE533      0.0019
     46  CD1       29.9590   30.8700   46.1810 C.3   533  ILE533      0.0001
     47  N         23.3580   27.5450   46.0600 N.3   537  TRP537     -0.1241
     48  CA        24.0480   28.8230   46.2370 C.3   537  TRP537      0.1605
     49  C         24.5830   29.3140   44.8940 C.2   537  TRP537      0.2264
     50  O         25.5310   28.7420   44.3480 O.2   537  TRP537     -0.2867
     51  CB        25.1720   28.6660   47.2690 C.3   537  TRP537      0.0550
     52  CG        25.7970   29.9560   47.7440 C.ar  537  TRP537      0.0003
     53  CD1       25.4230   31.2350   47.4110 C.ar  537  TRP537      0.0946
     54  CD2       26.9130   30.0880   48.6350 C.ar  537  TRP537      0.0152
     55  NE1       26.2390   32.1430   48.0340 N.ar  537  TRP537     -0.2442
     56  CE2       27.1630   31.4690   48.7890 C.ar  537  TRP537      0.0810
     57  CE3       27.7260   29.1730   49.3140 C.ar  537  TRP537      0.0012
     58  CZ2       28.1910   31.9570   49.5990 C.ar  537  TRP537      0.0191
     59  CZ3       28.7510   29.6600   50.1130 C.ar  537  TRP537      0.0001
     60  CH2       28.9740   31.0360   50.2480 C.ar  537  TRP537      0.0015
     61  N         26.1290   32.7000   42.6930 N.3   539  VAL539     -0.1245
     62  CA        26.7630   34.0140   42.7910 C.3   539  VAL539      0.1561
     63  C         27.1160   34.5540   41.4090 C.2   539  VAL539      0.2260
     64  O         27.2860   33.8090   40.4410 O.2   539  VAL539     -0.2867
     65  CB        28.0390   33.9920   43.6710 C.3   539  VAL539      0.0252
     66  CG1       27.7010   33.5430   45.0910 C.3   539  VAL539      0.0019
     67  CG2       29.0790   33.0540   43.0470 C.3   539  VAL539      0.0019
     68  N         28.8000   42.2750   43.6290 N.3   561  LEU561     -0.1245
     69  CA        28.6110   40.8730   43.9710 C.3   561  LEU561      0.1561
     70  C         27.1470   40.6670   44.3110 C.2   561  LEU561      0.2260
     71  O         26.5640   41.4420   45.0850 O.2   561  LEU561     -0.2867
     72  CB        29.5040   40.4530   45.1370 C.3   561  LEU561      0.0270
     73  CG        29.4400   38.9660   45.5090 C.3   561  LEU561      0.0019
     74  CD1       29.9340   38.0810   44.3510 C.3   561  LEU561      0.0001
     75  CD2       30.2380   38.7150   46.7690 C.3   561  LEU561      0.0001
     76  N         24.5540   37.4100   45.4220 N.3   563  SER563     -0.1217
     77  CA        24.5780   36.0680   45.9890 C.3   563  SER563      0.1889
     78  C         23.1460   35.6430   46.2870 C.2   563  SER563      0.2288
     79  O         22.4100   36.3800   46.9520 O.2   563  SER563     -0.2866
     80  CB        25.4330   36.0420   47.2650 C.3   563  SER563      0.2089
     81  OG        25.3590   34.8040   47.9320 O.3   563  SER563     -0.2183
     82  N         20.6210   32.2750   47.5490 N.3   565  TYR565     -0.1241
     83  CA        20.6290   30.9870   48.2170 C.3   565  TYR565      0.1605
     84  C         19.2030   30.4750   48.3370 C.2   565  TYR565      0.2264
     85  O         18.3200   31.1930   48.8230 O.2   565  TYR565     -0.2867
     86  CB        21.2850   31.0860   49.6010 C.3   565  TYR565      0.0534
     87  CG        21.6960   29.7440   50.1650 C.ar  565  TYR565     -0.0201
     88  CD1       20.7650   28.9110   50.7550 C.ar  565  TYR565     -0.0009
     89  CD2       23.0170   29.3180   50.1110 C.ar  565  TYR565     -0.0009
     90  CE1       21.1300   27.6650   51.2770 C.ar  565  TYR565      0.0417
     91  CE2       23.3970   28.0830   50.6270 C.ar  565  TYR565      0.0417
     92  CZ        22.4450   27.2680   51.2110 C.ar  565  TYR565      0.1957
     93  OH        22.8110   26.0540   51.7210 O.3   565  TYR565     -0.2866
     94  N         16.6720   33.5780   49.2130 N.3   573  VAL573     -0.1231
     95  CA        17.0940   34.8930   49.6820 C.3   573  VAL573      0.1692
     96  C         18.2890   35.3220   48.8500 C.2   573  VAL573      0.2593
     97  O         19.1600   34.5080   48.5260 O.2   573  VAL573     -0.2718
     98  CB        17.4450   34.8950   51.1920 C.3   573  VAL573      0.0266
     99  CG1       16.1790   34.7270   52.0400 C.3   573  VAL573      0.0020
    100  CG2       18.4120   33.7820   51.5140 C.3   573  VAL573      0.0020
    101  N         18.3130   36.5900   48.4780 N.am  574  GLY574     -0.1942
    102  CA        19.4120   37.1210   47.6990 C.3   574  GLY574      0.2014
    103  C         19.8170   38.4580   48.2680 C.2   574  GLY574      0.2638
    104  O         19.0280   39.1450   48.9240 O.2   574  GLY574     -0.2714
    105  N         21.0640   38.8240   48.0090 N.am  575  ALA575     -0.1977
    106  CA        21.5530   40.1360   48.3900 C.3   575  ALA575      0.1597
    107  C         22.6800   40.5020   47.4440 C.2   575  ALA575      0.2287
    108  O         23.4140   39.6300   46.9700 O.2   575  ALA575     -0.2864
    109  CB        22.0390   40.1640   49.8440 C.3   575  ALA575      0.0319
@<TRIPOS>BOND
     1    27    26    2
     2    26    25    1
     3    24    25    1
     4    19    18    2
     5    25    28    1
     6    18    17    1
     7    16    17    1
     8     1     2    1
     9    35    34    2
    10    17    20    1
    11    32    33    1
    12    34    33    1
    13    28    29    1
    14    33    36    1
    15     4     3    2
    16     2     3    1
    17     2     5    1
    18     3     8   am
    19     6     5    1
    20    64    63    2
    21    20    21    1
    22    29    31    1
    23    29    30    1
    24    11    10    2
    25     5     7    1
    26    36    38    1
    27    36    37    1
    28    10     9    1
    29    21    22    1
    30    21    23    1
    31    63    62    1
    32     8     9    1
    33     9    12    1
    34    61    62    1
    35    12    13    1
    36    62    65    1
    37    67    65    1
    38    68    69    1
    39    65    66    1
    40    39    40    1
    41    13    14    1
    42    13    15    1
    43    69    70    1
    44    69    72    1
    45    70    71    2
    46    50    49    2
    47    74    73    1
    48    40    41    1
    49    40    43    1
    50    49    48    1
    51    72    73    1
    52    44    43    1
    53    44    46    1
    54    41    42    2
    55    76    77    1
    56    73    75    1
    57    43    45    1
    58    77    78    1
    59    77    80    1
    60    47    48    1
    61    48    51    1
    62    78    79    2
    63   108   107    2
    64    80    81    1
    65    51    52    1
    66    53    52   ar
    67    53    55   ar
    68   107   106    1
    69    82    83    1
    70   102   103    1
    71   102   101    1
    72    52    54   ar
    73   105   103   am
    74   105   106    1
    75    55    56   ar
    76    83    84    1
    77    83    86    1
    78   103   104    2
    79    84    85    2
    80   106   109    1
    81   101    96   am
    82    97    96    2
    83    54    56   ar
    84    54    57   ar
    85    56    58   ar
    86    96    95    1
    87    94    95    1
    88    57    59   ar
    89    58    60   ar
    90    86    87    1
    91    95    98    1
    92    89    87   ar
    93    89    91   ar
    94    59    60   ar
    95    87    88   ar
    96    91    92   ar
    97    88    90   ar
    98    98   100    1
    99    98    99    1
   100    92    90   ar
   101    92    93    1
