@<TRIPOS>MOLECULE
tmp/6bpnA02.pdb
 130 126 0 0 0
SMALL
GASTEIGER

@<TRIPOS>ATOM
      1  N          5.4150   33.2480   26.0550 N.3   143  VAL143     -0.1245
      2  CA         4.7300   32.0470   25.5940 C.3   143  VAL143      0.1561
      3  C          5.6150   31.3450   24.5770 C.2   143  VAL143      0.2260
      4  O          5.9950   31.9430   23.5620 O.2   143  VAL143     -0.2867
      5  CB         3.3690   32.3700   24.9580 C.3   143  VAL143      0.0252
      6  CG1        2.7480   31.0990   24.3700 C.3   143  VAL143      0.0019
      7  CG2        2.4450   33.0470   25.9530 C.3   143  VAL143      0.0019
      8  N          6.8350   28.4820   17.9490 N.3   153  VAL153     -0.1231
      9  CA         6.5930   29.9180   18.0150 C.3   153  VAL153      0.1692
     10  C          6.8890   30.3860   19.4260 C.2   153  VAL153      0.2592
     11  O          6.8180   29.6120   20.3870 O.2   153  VAL153     -0.2718
     12  CB         5.1550   30.3120   17.6290 C.3   153  VAL153      0.0266
     13  CG1        4.8980   30.0270   16.1460 C.3   153  VAL153      0.0020
     14  CG2        4.1390   29.5980   18.5430 C.3   153  VAL153      0.0020
     15  N          7.2400   31.6640   19.5490 N.am  154  ARG154     -0.1966
     16  CA         7.3760   32.2730   20.8650 C.3   154  ARG154      0.1729
     17  C          6.8450   33.6940   20.7960 C.2   154  ARG154      0.2616
     18  O          6.9790   34.3720   19.7720 O.2   154  ARG154     -0.2715
     19  CB         8.8330   32.2520   21.3760 C.3   154  ARG154      0.0348
     20  CG         9.0640   33.1220   22.6100 C.3   154  ARG154      0.0492
     21  CD         9.7180   32.4450   23.8320 C.3   154  ARG154      0.2205
     22  NE        11.1320   32.1700   23.6490 N.pl3 154  ARG154     -0.0865
     23  CZ        12.0470   32.0970   24.6230 C.cat 154  ARG154      0.5346
     24  NH1       11.7430   32.3120   25.9000 N.pl3 154  ARG154      0.1354
     25  NH2       13.3040   31.8180   24.3000 N.pl3 154  ARG154      0.1354
     26  N          6.2100   34.1290   21.8760 N.am  155  LEU155     -0.1977
     27  CA         5.7140   35.4950   21.9690 C.3   155  LEU155      0.1596
     28  C          6.0950   36.0430   23.3310 C.2   155  LEU155      0.2287
     29  O          5.8460   35.3970   24.3550 O.2   155  LEU155     -0.2864
     30  CB         4.1960   35.5770   21.7610 C.3   155  LEU155      0.0297
     31  CG         3.5180   36.9130   22.1090 C.3   155  LEU155      0.0022
     32  CD1        3.9440   38.0450   21.1510 C.3   155  LEU155      0.0001
     33  CD2        1.9990   36.7510   22.1080 C.3   155  LEU155      0.0001
     34  N          6.9120   38.7890   18.6590 N.3   179  PRO179     -0.2102
     35  CA         6.5760   37.4570   18.1500 C.3   179  PRO179      0.1504
     36  C          7.6730   36.8790   17.2660 C.2   179  PRO179      0.2576
     37  O          8.3630   37.5940   16.5360 O.2   179  PRO179     -0.2718
     38  CB         5.3080   37.7220   17.3250 C.3   179  PRO179      0.0282
     39  CG         5.5530   39.1190   16.7610 C.3   179  PRO179      0.0208
     40  CD         6.3540   39.8650   17.8150 C.3   179  PRO179      0.0893
     41  N          7.8080   35.5460   17.3350 N.am  180  SER180     -0.1938
     42  CA         8.7960   34.7970   16.5630 C.3   180  SER180      0.2055
     43  C          8.2110   33.4740   16.0890 C.2   180  SER180      0.2642
     44  O          7.3440   32.8880   16.7410 O.2   180  SER180     -0.2714
     45  CB        10.0620   34.4760   17.3870 C.3   180  SER180      0.2130
     46  OG        10.7610   35.6500   17.7530 O.3   180  SER180     -0.2179
     47  N          8.7400   32.9700   14.9830 N.am  181  VAL181     -0.1977
     48  CA         8.4950   31.5880   14.5820 C.3   181  VAL181      0.1596
     49  C          9.7950   30.9980   14.0510 C.2   181  VAL181      0.2287
     50  O         10.5950   31.6960   13.4200 O.2   181  VAL181     -0.2864
     51  CB         7.3620   31.4780   13.5380 C.3   181  VAL181      0.0276
     52  CG1        7.6930   32.2790   12.2940 C.3   181  VAL181      0.0022
     53  CG2        7.1130   30.0050   13.1870 C.3   181  VAL181      0.0022
     54  N         12.3220   33.6520   12.1290 N.3   193  LEU193     -0.1231
     55  CA        11.7070   34.9410   11.8310 C.3   193  LEU193      0.1693
     56  C         11.3670   35.6140   13.1530 C.2   193  LEU193      0.2592
     57  O         10.6380   35.0360   13.9680 O.2   193  LEU193     -0.2718
     58  CB        10.4450   34.7810   10.9860 C.3   193  LEU193      0.0284
     59  CG        10.6090   34.0300    9.6650 C.3   193  LEU193      0.0019
     60  CD1        9.2730   33.9170    8.9390 C.3   193  LEU193      0.0001
     61  CD2       11.6240   34.7400    8.8060 C.3   193  LEU193      0.0001
     62  N         11.8950   36.8250   13.3630 N.am  194  ASN194     -0.1960
     63  CA        11.7000   37.5850   14.5920 C.3   194  ASN194      0.1819
     64  C         11.1170   38.9540   14.2720 C.2   194  ASN194      0.2621
     65  O         11.5100   39.5970   13.2960 O.2   194  ASN194     -0.2715
     66  CB        13.0110   37.8100   15.3610 C.3   194  ASN194      0.1195
     67  CG        13.7660   36.5360   15.6450 C.2   194  ASN194      0.2630
     68  OD1       14.9610   36.4470   15.3710 O.2   194  ASN194     -0.2716
     69  ND2       13.0850   35.5500   16.2110 N.am  194  ASN194     -0.0877
     70  N         10.2020   39.4170   15.1080 N.am  195  TYR195     -0.1974
     71  CA         9.7550   40.8010   15.0330 C.3   195  TYR195      0.1639
     72  C          9.7780   41.4140   16.4300 C.2   195  TYR195      0.2290
     73  O          9.5600   40.7250   17.4350 O.2   195  TYR195     -0.2864
     74  CB         8.3560   40.9110   14.4450 C.3   195  TYR195      0.0560
     75  CG         7.8390   42.3350   14.3890 C.ar  195  TYR195     -0.0198
     76  CD1        8.4530   43.2910   13.5770 C.ar  195  TYR195     -0.0009
     77  CD2        6.7280   42.7200   15.1260 C.ar  195  TYR195     -0.0009
     78  CE1        7.9750   44.5980   13.5180 C.ar  195  TYR195      0.0417
     79  CE2        6.2400   44.0140   15.0660 C.ar  195  TYR195      0.0417
     80  CZ         6.8700   44.9480   14.2690 C.ar  195  TYR195      0.1957
     81  OH         6.3790   46.2320   14.2250 O.3   195  TYR195     -0.2866
     82  N         12.7280   43.8370   12.3050 N.3   252  ALA252     -0.1231
     83  CA        12.3760   42.5440   11.7260 C.3   252  ALA252      0.1694
     84  C         13.6490   41.8110   11.3190 C.2   252  ALA252      0.2593
     85  O         14.5320   42.4000   10.6910 O.2   252  ALA252     -0.2718
     86  CB        11.4330   42.7090   10.5200 C.3   252  ALA252      0.0304
     87  N         13.7340   40.5250   11.6610 N.am  253  THR253     -0.1939
     88  CA        14.9540   39.7450   11.4600 C.3   253  THR253      0.2028
     89  C         14.6110   38.4000   10.8280 C.2   253  THR253      0.2642
     90  O         13.6770   37.7170   11.2730 O.2   253  THR253     -0.2714
     91  CB        15.7000   39.5180   12.7900 C.3   253  THR253      0.1808
     92  OG1       15.8970   40.7750   13.4640 O.3   253  THR253     -0.2208
     93  CG2       17.0600   38.8340   12.5410 C.3   253  THR253      0.0379
     94  N         15.3900   38.0160    9.8110 N.am  254  MET254     -0.1976
     95  CA        15.2310   36.7540    9.0950 C.3   254  MET254      0.1605
     96  C         16.5840   36.0510    9.0460 C.2   254  MET254      0.2287
     97  O         17.5290   36.5640    8.4330 O.2   254  MET254     -0.2864
     98  CB        14.6960   37.0130    7.6840 C.3   254  MET254      0.0413
     99  CG        14.5680   35.7930    6.8030 C.3   254  MET254      0.0598
    100  SD        13.7490   36.2390    5.2410 S.3   254  MET254     -0.1393
    101  CE        14.6520   37.7060    4.7500 C.3   254  MET254      0.0692
    102  N         19.1980   38.6080    7.7320 N.3   270  THR270     -0.1218
    103  CA        18.7410   39.9120    7.2730 C.3   270  THR270      0.1862
    104  C         17.9770   40.5790    8.4070 C.2   270  THR270      0.2287
    105  O         17.1180   39.9470    9.0350 O.2   270  THR270     -0.2866
    106  CB        17.8540   39.7970    6.0310 C.3   270  THR270      0.1770
    107  OG1       18.5620   39.0950    5.0000 O.3   270  THR270     -0.2211
    108  CG2       17.4710   41.2060    5.5130 C.3   270  THR270      0.0375
    109  N         15.9680   44.4090    9.1860 N.3   272  TRP272     -0.1241
    110  CA        15.5640   45.8010    9.0190 C.3   272  TRP272      0.1605
    111  C         15.1210   46.3320   10.3760 C.2   272  TRP272      0.2264
    112  O         14.4090   45.6430   11.1240 O.2   272  TRP272     -0.2867
    113  CB        14.4280   45.9470    7.9980 C.3   272  TRP272      0.0550
    114  CG        13.9360   47.3730    7.8190 C.ar  272  TRP272      0.0003
    115  CD1       14.3670   48.2860    6.8890 C.ar  272  TRP272      0.0946
    116  CD2       12.9170   48.0400    8.5880 C.ar  272  TRP272      0.0152
    117  NE1       13.6800   49.4730    7.0330 N.ar  272  TRP272     -0.2442
    118  CE2       12.7850   49.3470    8.0650 C.ar  272  TRP272      0.0810
    119  CE3       12.1050   47.6560    9.6640 C.ar  272  TRP272      0.0012
    120  CZ2       11.8800   50.2670    8.5840 C.ar  272  TRP272      0.0191
    121  CZ3       11.2020   48.5690   10.1710 C.ar  272  TRP272      0.0001
    122  CH2       11.0980   49.8600    9.6340 C.ar  272  TRP272      0.0015
    123  N         19.5440   48.5870    7.4790 N.3   317  LEU317     -0.1245
    124  CA        19.2900   47.3620    6.7300 C.3   317  LEU317      0.1561
    125  C         20.6260   46.6570    6.5950 C.2   317  LEU317      0.2260
    126  O         21.5870   47.2520    6.1040 O.2   317  LEU317     -0.2867
    127  CB        18.6800   47.6580    5.3460 C.3   317  LEU317      0.0270
    128  CG        18.4250   46.4300    4.4590 C.3   317  LEU317      0.0019
    129  CD1       17.5880   45.4060    5.1910 C.3   317  LEU317      0.0001
    130  CD2       17.7450   46.8110    3.1510 C.3   317  LEU317      0.0001
@<TRIPOS>BOND
     1   130   128    1
     2   128   129    1
     3   128   127    1
     4   101   100    1
     5   107   106    1
     6   100    99    1
     7   127   124    1
     8   108   106    1
     9   106   103    1
    10   126   125    2
    11   125   124    1
    12   124   123    1
    13    99    98    1
    14   115   117   ar
    15   115   114   ar
    16   117   118   ar
    17   103   102    1
    18   103   104    1
    19    98    95    1
    20   114   113    1
    21   114   116   ar
    22   113   110    1
    23   118   120   ar
    24   118   116   ar
    25   104   105    2
    26    97    96    2
    27   120   122   ar
    28   116   119   ar
    29    61    59    1
    30    60    59    1
    31   110   109    1
    32   110   111    1
    33    96    95    1
    34    95    94    1
    35   122   121   ar
    36   119   121   ar
    37    59    58    1
    38    94    89   am
    39   111   112    2
    40    86    83    1
    41    85    84    2
    42    89    90    2
    43    89    88    1
    44    58    55    1
    45    84    87   am
    46    84    83    1
    47    88    87    1
    48    88    91    1
    49    83    82    1
    50    55    54    1
    51    55    56    1
    52    52    51    1
    53    93    91    1
    54    91    92    1
    55    56    62   am
    56    56    57    2
    57    53    51    1
    58    65    64    2
    59    62    63    1
    60    50    49    2
    61    78    76   ar
    62    78    80   ar
    63    51    48    1
    64    76    75   ar
    65    49    48    1
    66    81    80    1
    67    80    79   ar
    68    64    63    1
    69    64    70   am
    70    75    74    1
    71    75    77   ar
    72    74    71    1
    73    48    47    1
    74    63    66    1
    75    47    43   am
    76    71    70    1
    77    71    72    1
    78    79    77   ar
    79    66    67    1
    80    68    67    2
    81    67    69   am
    82    43    42    1
    83    43    44    2
    84    13    12    1
    85    72    73    2
    86    37    36    2
    87    42    41    1
    88    42    45    1
    89    39    38    1
    90    39    40    1
    91    36    41   am
    92    36    35    1
    93    38    35    1
    94    45    46    1
    95    12     9    1
    96    12    14    1
    97    40    34    1
    98     8     9    1
    99     9    10    1
   100    35    34    1
   101    10    15   am
   102    10    11    2
   103    15    16    1
   104    18    17    2
   105    17    16    1
   106    17    26   am
   107    16    19    1
   108    32    31    1
   109    19    20    1
   110    30    27    1
   111    30    31    1
   112    26    27    1
   113    27    28    1
   114    33    31    1
   115    20    21    1
   116    28    29    2
   117     4     3    2
   118    22    21    1
   119    22    23    2
   120    25    23    1
   121     6     5    1
   122     3     2    1
   123    23    24    1
   124     5     2    1
   125     5     7    1
   126     2     1    1
