@<TRIPOS>MOLECULE
tmp/6bppA03.pdb
 90 81 0 0 0
SMALL
GASTEIGER

@<TRIPOS>ATOM
      1  N        -19.3890   12.6490   14.4550 N.3    38  ASP38      -0.1239
      2  CA       -19.5230   12.0980   15.8020 C.3    38  ASP38       0.1674
      3  C        -18.2990   11.2720   16.1660 C.2    38  ASP38       0.2266
      4  O        -17.7450   11.4090   17.2630 O.2    38  ASP38      -0.2867
      5  CB       -20.7970   11.2500   15.9040 C.3    38  ASP38       0.1410
      6  CG       -22.0430   11.9840   15.3860 C.2    38  ASP38       0.3668
      7  OD1      -21.9250   13.1720   15.0230 O.co2  38  ASP38      -0.2456
      8  OD2      -23.1410   11.3810   15.3380 O.co2  38  ASP38      -0.2456
      9  N        -15.3470   13.5140   17.0900 N.3    41  MET41      -0.1230
     10  CA       -15.4410   14.2060   18.3690 C.3    41  MET41       0.1702
     11  C        -15.0620   13.2820   19.5210 C.2    41  MET41       0.2592
     12  O        -14.4990   13.7280   20.5270 O.2    41  MET41      -0.2718
     13  CB       -16.8470   14.7690   18.5380 C.3    41  MET41       0.0401
     14  CG       -17.0850   15.9380   17.6090 C.3    41  MET41       0.0596
     15  SD       -18.7170   16.6730   17.7500 S.3    41  MET41      -0.1393
     16  CE       -18.5670   17.4800   19.3410 C.3    41  MET41       0.0692
     17  N        -15.3530   11.9880   19.3900 N.am   42  LEU42      -0.1980
     18  CA       -14.8600   11.0290   20.3710 C.3    42  LEU42       0.1596
     19  C        -13.3560   10.8060   20.2430 C.2    42  LEU42       0.2287
     20  O        -12.6800   10.5540   21.2480 O.2    42  LEU42      -0.2864
     21  CB       -15.6240    9.7130   20.2280 C.3    42  LEU42       0.0297
     22  CG       -16.9000    9.6480   21.0740 C.3    42  LEU42       0.0022
     23  CD1      -17.6260   10.9990   21.1430 C.3    42  LEU42       0.0001
     24  CD2      -17.8320    8.5900   20.5220 C.3    42  LEU42       0.0001
     25  N        -11.2980   13.1280   19.6290 N.3    44  LEU44      -0.1231
     26  CA       -10.7740   14.2500   20.4020 C.3    44  LEU44       0.1693
     27  C        -10.7150   13.9210   21.8850 C.2    44  LEU44       0.2591
     28  O         -9.8430   14.4250   22.6010 O.2    44  LEU44      -0.2718
     29  CB       -11.6460   15.4900   20.1700 C.3    44  LEU44       0.0284
     30  CG       -11.6280   16.0230   18.7380 C.3    44  LEU44       0.0019
     31  CD1      -12.6800   17.1050   18.5380 C.3    44  LEU44       0.0001
     32  CD2      -10.2460   16.5510   18.3950 C.3    44  LEU44       0.0001
     33  N        -11.6250   13.0690   22.3540 N.am   45  LEU45      -0.1980
     34  CA       -11.6930   12.7470   23.7740 C.3    45  LEU45       0.1596
     35  C        -10.3850   12.1510   24.2860 C.2    45  LEU45       0.2287
     36  O        -10.0750   12.2810   25.4760 O.2    45  LEU45      -0.2864
     37  CB       -12.8530   11.7780   24.0220 C.3    45  LEU45       0.0297
     38  CG       -13.6660   11.8760   25.3100 C.3    45  LEU45       0.0022
     39  CD1      -14.3420   13.2330   25.4620 C.3    45  LEU45       0.0001
     40  CD2      -14.6990   10.7670   25.2900 C.3    45  LEU45       0.0001
     41  N         -7.5780   15.0540   24.6240 N.3    48  LEU48      -0.1245
     42  CA        -7.9930   15.9060   25.7340 C.3    48  LEU48       0.1561
     43  C         -7.4780   15.3540   27.0570 C.2    48  LEU48       0.2260
     44  O         -6.9810   16.1020   27.9040 O.2    48  LEU48      -0.2867
     45  CB        -9.5200   16.0380   25.7870 C.3    48  LEU48       0.0270
     46  CG       -10.0510   16.8510   26.9790 C.3    48  LEU48       0.0019
     47  CD1       -9.8820   18.3370   26.7280 C.3    48  LEU48       0.0001
     48  CD2      -11.4970   16.5090   27.2950 C.3    48  LEU48       0.0001
     49  N         -8.6950   22.7250   20.7660 N.3    64  MET64      -0.1245
     50  CA        -9.7860   21.8100   21.0960 C.3    64  MET64       0.1570
     51  C        -11.1370   22.4980   20.9100 C.2    64  MET64       0.2261
     52  O        -12.0230   21.9110   20.2650 O.2    64  MET64      -0.2867
     53  CB        -9.6170   21.2300   22.5030 C.3    64  MET64       0.0387
     54  CG       -10.5140   20.0150   22.7470 C.3    64  MET64       0.0595
     55  SD       -10.2200   18.6600   21.5980 S.3    64  MET64      -0.1393
     56  CE        -8.7290   17.9900   22.3120 C.3    64  MET64       0.0692
     57  N        -13.8330   21.3390   17.6790 N.3    68  VAL68      -0.1245
     58  CA       -15.1930   20.9540   18.0550 C.3    68  VAL68       0.1561
     59  C        -16.2110   21.7830   17.2790 C.2    68  VAL68       0.2260
     60  O        -17.0650   21.2450   16.5610 O.2    68  VAL68      -0.2867
     61  CB       -15.3910   21.0930   19.5750 C.3    68  VAL68       0.0252
     62  CG1      -16.8780   21.0750   19.9420 C.3    68  VAL68       0.0019
     63  CG2      -14.6620   19.9670   20.3020 C.3    68  VAL68       0.0019
     64  N        -21.4420   18.9490   11.0820 N.3    75  ARG75      -0.1245
     65  CA       -22.5700   18.1170   11.4820 C.3    75  ARG75       0.1563
     66  C        -23.8920   18.7990   11.1480 C.2    75  ARG75       0.2260
     67  O        -24.7650   18.2140   10.4990 O.2    75  ARG75      -0.2867
     68  CB       -22.4920   17.8060   12.9770 C.3    75  ARG75       0.0307
     69  CG       -23.6000   16.8970   13.4180 C.3    75  ARG75       0.0489
     70  CD       -23.5400   16.5590   14.8790 C.3    75  ARG75       0.2205
     71  NE       -24.6080   15.6230   15.2090 N.pl3  75  ARG75      -0.0865
     72  CZ       -24.6810   14.9210   16.3340 C.cat  75  ARG75       0.5346
     73  NH1      -23.7370   15.0430   17.2570 N.pl3  75  ARG75       0.1354
     74  NH2      -25.7010   14.0910   16.5260 N.pl3  75  ARG75       0.1354
     75  N        -21.8770    4.7350   22.5930 N.3   290  ALA290     -0.1245
     76  CA       -22.4120    5.3120   21.3630 C.3   290  ALA290      0.1562
     77  C        -23.1190    4.2530   20.5290 C.2   290  ALA290      0.2260
     78  O        -24.2330    4.4720   20.0400 O.2   290  ALA290     -0.2867
     79  CB       -21.2870    5.9630   20.5570 C.3   290  ALA290      0.0290
     80  N        -27.2170    3.1680   20.3600 N.3   293  ARG293     -0.1245
     81  CA       -28.2570    3.8270   19.5720 C.3   293  ARG293      0.1563
     82  C        -28.3130    3.3150   18.1430 C.2   293  ARG293      0.2260
     83  O        -29.3940    2.8820   17.7060 O.2   293  ARG293     -0.2867
     84  CB       -28.0490    5.3440   19.6070 C.3   293  ARG293      0.0307
     85  CG       -28.9850    6.1220   18.7020 C.3   293  ARG293      0.0489
     86  CD       -28.7870    7.6240   18.8730 C.3   293  ARG293      0.2205
     87  NE       -27.5280    8.1200   18.3120 N.pl3 293  ARG293     -0.0865
     88  CZ       -27.3600    8.4280   17.0280 C.cat 293  ARG293      0.5346
     89  NH1      -28.3610    8.2710   16.1680 N.pl3 293  ARG293      0.1354
     90  NH2      -26.1880    8.8860   16.5960 N.pl3 293  ARG293      0.1354
@<TRIPOS>BOND
     1    67    66    2
     2    64    65    1
     3    66    65    1
     4    65    68    1
     5    68    69    1
     6    69    70    1
     7     1     2    1
     8    70    71    1
     9     7     6   ar
    10    71    72    2
    11     8     6   ar
    12     6     5    1
    13     2     5    1
    14     2     3    1
    15     3     4    2
    16    89    88    1
    17    72    74    1
    18    72    73    1
    19    60    59    2
    20    90    88    1
    21    88    87    2
    22     9    10    1
    23    59    58    1
    24    14    15    1
    25    14    13    1
    26    57    58    1
    27    83    82    2
    28    15    16    1
    29    58    61    1
    30    82    81    1
    31    87    86    1
    32    10    13    1
    33    10    11    1
    34    32    30    1
    35    31    30    1
    36    85    86    1
    37    85    84    1
    38    30    29    1
    39    17    11   am
    40    17    18    1
    41    11    12    2
    42    81    84    1
    43    81    80    1
    44    61    62    1
    45    61    63    1
    46    25    26    1
    47    78    77    2
    48    29    26    1
    49    21    18    1
    50    21    22    1
    51    19    18    1
    52    19    20    2
    53    52    51    2
    54    26    27    1
    55    24    22    1
    56    77    76    1
    57    79    76    1
    58    49    50    1
    59    51    50    1
    60    22    23    1
    61    50    53    1
    62    76    75    1
    63    55    56    1
    64    55    54    1
    65    27    33   am
    66    27    28    2
    67    33    34    1
    68    53    54    1
    69    34    37    1
    70    34    35    1
    71    37    38    1
    72    35    36    2
    73    41    42    1
    74    40    38    1
    75    38    39    1
    76    42    45    1
    77    42    43    1
    78    45    46    1
    79    47    46    1
    80    46    48    1
    81    43    44    2
