@<TRIPOS>MOLECULE
tmp/6bppA00.pdb
 163 151 0 0 0
SMALL
GASTEIGER

@<TRIPOS>ATOM
      1  N        -16.4540    1.0400   15.3640 N.3   154  PHE154     -0.1241
      2  CA       -15.7990   -0.2450   15.5880 C.3   154  PHE154      0.1605
      3  C        -14.3310   -0.2020   15.1830 C.2   154  PHE154      0.2264
      4  O        -13.4820   -0.7930   15.8550 O.2   154  PHE154     -0.2867
      5  CB       -16.5360   -1.3550   14.8330 C.3   154  PHE154      0.0534
      6  CG       -17.5260   -2.1260   15.6780 C.ar  154  PHE154     -0.0203
      7  CD1      -17.2240   -2.4770   16.9840 C.ar  154  PHE154     -0.0042
      8  CD2      -18.7500   -2.5120   15.1530 C.ar  154  PHE154     -0.0042
      9  CE1      -18.1250   -3.1880   17.7600 C.ar  154  PHE154     -0.0003
     10  CE2      -19.6610   -3.2270   15.9220 C.ar  154  PHE154     -0.0003
     11  CZ       -19.3450   -3.5660   17.2290 C.ar  154  PHE154     -0.0000
     12  N        -16.3100   -7.7920   22.9040 N.3   168  LEU168     -0.1231
     13  CA       -17.6590   -7.3560   22.5850 C.3   168  LEU168      0.1693
     14  C        -18.2180   -8.1280   21.3990 C.2   168  LEU168      0.2591
     15  O        -19.4130   -8.4440   21.3660 O.2   168  LEU168     -0.2718
     16  CB       -17.6540   -5.8540   22.3000 C.3   168  LEU168      0.0284
     17  CG       -18.9280   -5.1000   22.6570 C.3   168  LEU168      0.0019
     18  CD1      -19.1700   -5.0890   24.1660 C.3   168  LEU168      0.0001
     19  CD2      -18.8040   -3.6970   22.1280 C.3   168  LEU168      0.0001
     20  N        -17.3730   -8.4360   20.4120 N.am  169  ILE169     -0.1980
     21  CA       -17.8210   -9.2080   19.2550 C.3   169  ILE169      0.1595
     22  C        -18.4620  -10.5100   19.7150 C.2   169  ILE169      0.2287
     23  O        -19.6630  -10.7320   19.5290 O.2   169  ILE169     -0.2864
     24  CB       -16.6530   -9.4740   18.2890 C.3   169  ILE169      0.0276
     25  CG1      -16.1540   -8.1600   17.6830 C.3   169  ILE169      0.0022
     26  CG2      -17.0920  -10.4310   17.1720 C.3   169  ILE169      0.0022
     27  CD1      -14.8920   -8.3040   16.8440 C.3   169  ILE169      0.0001
     28  N        -19.4880  -11.6230   22.3800 N.3   171  LEU171     -0.1231
     29  CA       -20.7110  -11.3840   23.1350 C.3   171  LEU171      0.1693
     30  C        -21.8440  -10.9220   22.2270 C.2   171  LEU171      0.2591
     31  O        -23.0140  -11.2420   22.4720 O.2   171  LEU171     -0.2718
     32  CB       -20.4500  -10.3510   24.2340 C.3   171  LEU171      0.0284
     33  CG       -19.6750  -10.8520   25.4590 C.3   171  LEU171      0.0019
     34  CD1      -19.5110   -9.7360   26.4800 C.3   171  LEU171      0.0001
     35  CD2      -20.3600  -12.0520   26.1050 C.3   171  LEU171      0.0001
     36  N        -21.5230  -10.1750   21.1710 N.am  172  ALA172     -0.1980
     37  CA       -22.5680   -9.5880   20.3340 C.3   172  ALA172      0.1597
     38  C        -23.6020  -10.6070   19.8660 C.2   172  ALA172      0.2287
     39  O        -24.7990  -10.3670   20.0790 O.2   172  ALA172     -0.2864
     40  CB       -21.9150   -8.8450   19.1610 C.3   172  ALA172      0.0319
     41  N        -25.8890  -11.7500   22.7160 N.3   175  VAL175     -0.1231
     42  CA       -26.6910  -10.5800   23.0640 C.3   175  VAL175      0.1692
     43  C        -27.8020  -10.3790   22.0410 C.2   175  VAL175      0.2592
     44  O        -28.9750  -10.2240   22.3980 O.2   175  VAL175     -0.2718
     45  CB       -25.8020   -9.3260   23.1850 C.3   175  VAL175      0.0266
     46  CG1      -26.6660   -8.0860   23.3840 C.3   175  VAL175      0.0020
     47  CG2      -24.8310   -9.4670   24.3440 C.3   175  VAL175      0.0020
     48  N        -27.4460  -10.3680   20.7540 N.am  176  SER176     -0.1952
     49  CA       -28.4300  -10.0940   19.7090 C.3   176  SER176      0.1924
     50  C        -29.6160  -11.0380   19.8220 C.2   176  SER176      0.2314
     51  O        -30.7740  -10.6060   19.7970 O.2   176  SER176     -0.2863
     52  CB       -27.7890  -10.2120   18.3200 C.3   176  SER176      0.2116
     53  OG       -26.7300   -9.2920   18.1510 O.3   176  SER176     -0.2180
     54  N        -31.6810  -10.2050   22.8670 N.3   179  ILE179     -0.1245
     55  CA       -32.4620   -8.9990   22.6030 C.3   179  ILE179      0.1561
     56  C        -33.6010   -9.3120   21.6440 C.2   179  ILE179      0.2260
     57  O        -34.7550   -8.9290   21.8700 O.2   179  ILE179     -0.2867
     58  CB       -31.5550   -7.8840   22.0540 C.3   179  ILE179      0.0252
     59  CG1      -30.5390   -7.4650   23.1210 C.3   179  ILE179      0.0019
     60  CG2      -32.3910   -6.6810   21.5910 C.3   179  ILE179      0.0019
     61  CD1      -29.5030   -6.4890   22.6180 C.3   179  ILE179      0.0001
     62  N        -43.2850   -6.8880   22.2270 N.3   187  ARG187     -0.1245
     63  CA       -43.7410   -5.7010   21.5110 C.3   187  ARG187      0.1563
     64  C        -43.8590   -5.9870   20.0180 C.2   187  ARG187      0.2260
     65  O        -42.9850   -5.6400   19.2220 O.2   187  ARG187     -0.2867
     66  CB       -42.8050   -4.5620   21.7910 C.3   187  ARG187      0.0307
     67  CG       -41.3660   -4.8510   21.4380 C.3   187  ARG187      0.0489
     68  CD       -40.5190   -3.6390   21.6470 C.3   187  ARG187      0.2205
     69  NE       -39.1560   -3.8910   21.2000 N.pl3 187  ARG187     -0.0865
     70  CZ       -38.1660   -3.0110   21.2800 C.cat 187  ARG187      0.5346
     71  NH1      -38.3890   -1.8120   21.8000 N.pl3 187  ARG187      0.1354
     72  NH2      -36.9580   -3.3360   20.8400 N.pl3 187  ARG187      0.1354
     73  N        -33.6680   -5.1680   27.7580 N.3   252  ILE252     -0.1231
     74  CA       -32.7240   -5.1010   26.6440 C.3   252  ILE252      0.1692
     75  C        -31.4870   -4.3160   27.0560 C.2   252  ILE252      0.2591
     76  O        -30.3510   -4.7290   26.7940 O.2   252  ILE252     -0.2718
     77  CB       -33.3930   -4.4900   25.3950 C.3   252  ILE252      0.0266
     78  CG1      -34.4690   -5.4330   24.8500 C.3   252  ILE252      0.0019
     79  CG2      -32.3400   -4.2190   24.3060 C.3   252  ILE252      0.0020
     80  CD1      -35.2760   -4.8560   23.6940 C.3   252  ILE252      0.0001
     81  N        -31.6870   -3.1600   27.6940 N.am  253  GLN253     -0.1979
     82  CA       -30.5440   -2.3770   28.1470 C.3   253  GLN253      0.1601
     83  C        -29.7600   -3.1070   29.2230 C.2   253  GLN253      0.2287
     84  O        -28.5300   -2.9960   29.2730 O.2   253  GLN253     -0.2864
     85  CB       -30.9970   -1.0130   28.6620 C.3   253  GLN253      0.0394
     86  CG       -31.3750   -0.0370   27.5640 C.3   253  GLN253      0.0908
     87  CD       -31.6120    1.3660   28.0910 C.2   253  GLN253      0.2608
     88  OE1      -32.0600    1.5500   29.2220 O.2   253  GLN253     -0.2717
     89  NE2      -31.2960    2.3670   27.2740 N.am  253  GLN253     -0.0878
     90  N        -27.4270   -5.7170   27.3200 N.3   256  ALA256     -0.1245
     91  CA       -26.2690   -5.0190   26.7730 C.3   256  ALA256      0.1562
     92  C        -25.3420   -4.5460   27.8840 C.2   256  ALA256      0.2260
     93  O        -24.1140   -4.5810   27.7400 O.2   256  ALA256     -0.2867
     94  CB       -26.7370   -3.8340   25.9210 C.3   256  ALA256      0.0290
     95  N        -23.0140   -7.4060   29.1320 N.3   259  ALA259     -0.1231
     96  CA       -21.8930   -7.5290   28.2100 C.3   259  ALA259      0.1694
     97  C        -20.8430   -6.4620   28.4930 C.2   259  ALA259      0.2591
     98  O        -19.6530   -6.7640   28.6330 O.2   259  ALA259     -0.2718
     99  CB       -22.3960   -7.4290   26.7680 C.3   259  ALA259      0.0304
    100  N        -21.2700   -5.2010   28.5740 N.am  260  LEU260     -0.1980
    101  CA       -20.3370   -4.1190   28.8760 C.3   260  LEU260      0.1596
    102  C        -19.6360   -4.3570   30.2060 C.2   260  LEU260      0.2287
    103  O        -18.4100   -4.2430   30.3020 O.2   260  LEU260     -0.2864
    104  CB       -21.0770   -2.7770   28.8870 C.3   260  LEU260      0.0297
    105  CG       -21.4160   -2.1580   27.5300 C.3   260  LEU260      0.0022
    106  CD1      -22.1250   -0.8270   27.7320 C.3   260  LEU260      0.0001
    107  CD2      -20.1730   -1.9670   26.6790 C.3   260  LEU260      0.0001
    108  N        -18.4190    2.3780   22.8180 N.3   288  MET288     -0.1245
    109  CA       -19.3490    1.2850   23.0790 C.3   288  MET288      0.1570
    110  C        -20.7230    1.8210   23.4510 C.2   288  MET288      0.2261
    111  O        -21.7470    1.3110   22.9810 O.2   288  MET288     -0.2867
    112  CB       -18.8090    0.3840   24.1890 C.3   288  MET288      0.0387
    113  CG       -17.6820   -0.5170   23.7320 C.3   288  MET288      0.0595
    114  SD       -16.8660   -1.4300   25.0600 S.3   288  MET288     -0.1393
    115  CE       -15.5040   -2.1360   24.1380 C.3   288  MET288      0.0692
    116  N        -22.4890    3.0880   20.3740 N.3   291  LEU291     -0.1231
    117  CA       -22.9970    2.0610   19.4730 C.3   291  LEU291      0.1693
    118  C        -24.4410    1.6820   19.7690 C.2   291  LEU291      0.2591
    119  O        -25.1850    1.3210   18.8510 O.2   291  LEU291     -0.2718
    120  CB       -22.1170    0.8130   19.5670 C.3   291  LEU291      0.0284
    121  CG       -20.7940    0.8610   18.8020 C.3   291  LEU291      0.0019
    122  CD1      -19.9530   -0.3450   19.1670 C.3   291  LEU291      0.0001
    123  CD2      -21.0490    0.9100   17.3060 C.3   291  LEU291      0.0001
    124  N        -24.8560    1.7470   21.0330 N.am  292  MET292     -0.1979
    125  CA       -26.1660    1.2150   21.3990 C.3   292  MET292      0.1605
    126  C        -27.2820    1.8530   20.5780 C.2   292  MET292      0.2287
    127  O        -28.2050    1.1600   20.1360 O.2   292  MET292     -0.2864
    128  CB       -26.4030    1.4130   22.8930 C.3   292  MET292      0.0413
    129  CG       -25.3930    0.6900   23.7630 C.3   292  MET292      0.0598
    130  SD       -25.8530    0.6760   25.5060 S.3   292  MET292     -0.1393
    131  CE       -25.7600    2.4230   25.8850 C.3   292  MET292      0.0692
    132  N        -27.2830    0.4740   16.8010 N.3   295  LEU295     -0.1231
    133  CA       -27.6770   -0.9300   16.7130 C.3   295  LEU295      0.1693
    134  C        -29.1740   -1.0970   16.9240 C.2   295  LEU295      0.2591
    135  O        -29.8170   -1.9150   16.2570 O.2   295  LEU295     -0.2718
    136  CB       -26.8990   -1.7630   17.7320 C.3   295  LEU295      0.0284
    137  CG       -25.3870   -1.7780   17.5120 C.3   295  LEU295      0.0019
    138  CD1      -24.6840   -2.4980   18.6550 C.3   295  LEU295      0.0001
    139  CD2      -25.0410   -2.4270   16.1710 C.3   295  LEU295      0.0001
    140  N        -29.7430   -0.3370   17.8540 N.am  296  LYS296     -0.1980
    141  CA       -31.1850   -0.3640   18.0510 C.3   296  LYS296      0.1596
    142  C        -31.9210    0.0030   16.7680 C.2   296  LYS296      0.2287
    143  O        -32.8460   -0.7010   16.3440 O.2   296  LYS296     -0.2864
    144  CB       -31.5590    0.5930   19.1800 C.3   296  LYS296      0.0298
    145  CG       -33.0450    0.7940   19.3500 C.3   296  LYS296      0.0038
    146  CD       -33.3390    1.5250   20.6400 C.3   296  LYS296      0.0206
    147  CE       -34.8250    1.5920   20.9030 C.3   296  LYS296      0.1093
    148  NZ       -35.2560    0.5170   21.8380 N.3   296  LYS296     -0.1314
    149  N        -31.7910   -2.8830   13.7290 N.3   299  THR299     -0.1203
    150  CA       -32.6600   -4.0430   13.8880 C.3   299  THR299      0.1994
    151  C        -34.1230   -3.6720   13.6760 C.2   299  THR299      0.2617
    152  O        -34.9070   -4.4830   13.1690 O.2   299  THR299     -0.2717
    153  CB       -32.4460   -4.6550   15.2690 C.3   299  THR299      0.1784
    154  OG1      -32.7200   -3.6710   16.2740 O.3   299  THR299     -0.2211
    155  CG2      -31.0140   -5.1360   15.4120 C.3   299  THR299      0.0376
    156  N        -34.5090   -2.4510   14.0520 N.am  300  ASN300     -0.1974
    157  CA       -35.8910   -2.0040   13.9000 C.3   300  ASN300      0.1688
    158  C        -36.2480   -1.5530   12.4900 C.2   300  ASN300      0.2292
    159  O        -37.4300   -1.3140   12.2250 O.2   300  ASN300     -0.2864
    160  CB       -36.1960   -0.8470   14.8660 C.3   300  ASN300      0.1181
    161  CG       -36.2750   -1.2960   16.3050 C.2   300  ASN300      0.2629
    162  OD1      -36.2330   -2.4900   16.5950 O.2   300  ASN300     -0.2716
    163  ND2      -36.4110   -0.3380   17.2180 N.am  300  ASN300     -0.0877
@<TRIPOS>BOND
     1   159   158    2
     2   158   157    1
     3   152   151    2
     4   151   150    1
     5   151   156   am
     6   149   150    1
     7   150   153    1
     8   157   156    1
     9   157   160    1
    10     5     2    1
    11     5     6    1
    12   160   161    1
    13     8     6   ar
    14     8    10   ar
    15     3     2    1
    16     3     4    2
    17   153   155    1
    18   153   154    1
    19     1     2    1
    20     6     7   ar
    21    10    11   ar
    22   139   137    1
    23   135   134    2
    24   161   162    2
    25   161   163   am
    26   143   142    2
    27   133   132    1
    28   133   134    1
    29   133   136    1
    30   142   141    1
    31    27    25    1
    32   134   140   am
    33     7     9   ar
    34    26    24    1
    35    11     9   ar
    36   123   121    1
    37   137   136    1
    38   137   138    1
    39    25    24    1
    40   140   141    1
    41   141   144    1
    42    53    52    1
    43    24    21    1
    44    52    49    1
    45   121   122    1
    46   121   120    1
    47   119   118    2
    48    40    37    1
    49   144   145    1
    50    65    64    2
    51    21    22    1
    52    21    20    1
    53   145   146    1
    54   117   120    1
    55   117   118    1
    56   117   116    1
    57    23    22    2
    58    49    50    1
    59    49    48    1
    60   118   124   am
    61    51    50    2
    62    38    39    2
    63    38    37    1
    64    64    63    1
    65   127   126    2
    66    37    36    1
    67    20    14   am
    68   126   125    1
    69   146   147    1
    70    48    43   am
    71    72    70    1
    72   147   148    1
    73   124   125    1
    74    36    30   am
    75    69    70    2
    76    69    68    1
    77    70    71    1
    78    15    14    2
    79    14    13    1
    80   125   128    1
    81    67    68    1
    82    67    66    1
    83    63    66    1
    84    63    62    1
    85    60    58    1
    86    56    57    2
    87    56    55    1
    88    43    44    2
    89    43    42    1
    90    58    55    1
    91    58    59    1
    92    19    17    1
    93    30    31    2
    94    30    29    1
    95    16    13    1
    96    16    17    1
    97    28    29    1
    98    13    12    1
    99    55    54    1
   100    61    59    1
   101    17    18    1
   102    41    42    1
   103   108   109    1
   104   128   129    1
   105   111   110    2
   106    42    45    1
   107   109   110    1
   108   109   112    1
   109    29    32    1
   110    45    46    1
   111    45    47    1
   112    80    78    1
   113   113   112    1
   114   113   114    1
   115   129   130    1
   116   115   114    1
   117    32    33    1
   118    79    77    1
   119    78    77    1
   120    77    74    1
   121    33    35    1
   122    33    34    1
   123   130   131    1
   124    94    91    1
   125    74    75    1
   126    74    73    1
   127   107   105    1
   128    99    96    1
   129    91    90    1
   130    91    92    1
   131    76    75    2
   132    75    81   am
   133    89    87   am
   134   105   106    1
   135   105   104    1
   136    86    87    1
   137    86    85    1
   138    81    82    1
   139    93    92    2
   140    87    88    2
   141    82    85    1
   142    82    83    1
   143    96    97    1
   144    96    95    1
   145    97   100   am
   146    97    98    2
   147   100   101    1
   148   101   104    1
   149   101   102    1
   150    83    84    2
   151   102   103    2
