@<TRIPOS>MOLECULE
tmp/6bpyA01.pdb
 84 80 0 0 0
SMALL
GASTEIGER

@<TRIPOS>ATOM
      1  N        -65.5620   18.3650  -58.7160 N.3    48  THR48      -0.1203
      2  CA       -64.9190   18.2700  -60.0230 C.3    48  THR48       0.1994
      3  C        -64.8480   19.6290  -60.7110 C.2    48  THR48       0.2617
      4  O        -63.7940   20.0150  -61.2270 O.2    48  THR48      -0.2717
      5  CB       -65.6600   17.2630  -60.9090 C.3    48  THR48       0.1784
      6  OG1      -67.0540   17.5920  -60.9510 O.3    48  THR48      -0.2211
      7  CG2      -65.4840   15.8460  -60.3780 C.3    48  THR48       0.0376
      8  N        -65.9540   20.3700  -60.7240 N.am   49  ASP49      -0.1973
      9  CA       -66.0070   21.6620  -61.3950 C.3    49  ASP49       0.1709
     10  C        -66.8650   22.6260  -60.5920 C.2    49  ASP49       0.2293
     11  O        -68.0190   22.3210  -60.2750 O.2    49  ASP49      -0.2864
     12  CB       -66.5590   21.5270  -62.8210 C.3    49  ASP49       0.1436
     13  CG       -65.4970   21.1060  -63.8210 C.2    49  ASP49       0.3671
     14  OD1      -64.3190   21.4780  -63.6350 O.co2  49  ASP49      -0.2456
     15  OD2      -65.8410   20.4060  -64.7960 O.co2  49  ASP49      -0.2456
     16  N        -69.1620   12.6430  -57.0690 N.3   137  GLN137     -0.1231
     17  CA       -68.9660   13.7160  -58.0410 C.3   137  GLN137      0.1698
     18  C        -69.1230   13.2400  -59.4800 C.2   137  GLN137      0.2592
     19  O        -68.8010   13.9820  -60.4160 O.2   137  GLN137     -0.2718
     20  CB       -67.6080   14.4060  -57.8550 C.3   137  GLN137      0.0381
     21  CG       -67.5730   15.3500  -56.6690 C.3   137  GLN137      0.0905
     22  CD       -68.5460   16.5060  -56.8200 C.2   137  GLN137      0.2608
     23  OE1      -68.4130   17.3320  -57.7240 O.2   137  GLN137     -0.2717
     24  NE2      -69.5400   16.5600  -55.9420 N.am  137  GLN137     -0.0878
     25  N        -69.6040   12.0140  -59.6760 N.am  138  ASN138     -0.1960
     26  CA       -70.0110   11.5070  -60.9790 C.3   138  ASN138      0.1819
     27  C        -71.4770   11.0920  -60.9450 C.2   138  ASN138      0.2622
     28  O        -71.8900   10.1650  -61.6440 O.2   138  ASN138     -0.2715
     29  CB       -69.1240   10.3420  -61.4140 C.3   138  ASN138      0.1195
     30  CG       -67.7060   10.7770  -61.7200 C.2   138  ASN138      0.2630
     31  OD1      -67.4860   11.8020  -62.3650 O.2   138  ASN138     -0.2716
     32  ND2      -66.7340    9.9980  -61.2590 N.am  138  ASN138     -0.0877
     33  N        -72.2700   11.7830  -60.1300 N.am  139  GLY139     -0.1940
     34  CA       -73.6620   11.4390  -59.9320 C.3   139  GLY139      0.2014
     35  C        -74.1040   11.6290  -58.4960 C.2   139  GLY139      0.2639
     36  O        -75.2900   11.8420  -58.2290 O.2   139  GLY139     -0.2714
     37  N        -73.1600   11.5540  -57.5610 N.am  140  ILE140     -0.1963
     38  CA       -73.4310   11.7490  -56.1420 C.3   140  ILE140      0.1727
     39  C        -72.8720   13.1020  -55.7220 C.2   140  ILE140      0.2616
     40  O        -71.7950   13.5060  -56.1760 O.2   140  ILE140     -0.2715
     41  CB       -72.8270   10.6150  -55.2910 C.3   140  ILE140      0.0290
     42  CG1      -73.1540    9.2560  -55.9120 C.3   140  ILE140      0.0022
     43  CG2      -73.3500   10.6780  -53.8640 C.3   140  ILE140      0.0023
     44  CD1      -72.5900    8.0810  -55.1480 C.3   140  ILE140      0.0001
     45  N        -73.6060   13.8000  -54.8580 N.am  141  SER141     -0.1950
     46  CA       -73.1910   15.1090  -54.3730 C.3   141  SER141      0.1924
     47  C        -73.8330   15.3550  -53.0130 C.2   141  SER141      0.2314
     48  O        -74.5980   14.5310  -52.5060 O.2   141  SER141     -0.2863
     49  CB       -73.5590   16.2120  -55.3720 C.3   141  SER141      0.2116
     50  OG       -73.1930   17.4900  -54.8780 O.3   141  SER141     -0.2180
     51  N        -74.1630   21.8010  -57.1690 N.3   147  ASP147     -0.1239
     52  CA       -74.1430   20.8310  -58.2550 C.3   147  ASP147      0.1674
     53  C        -75.5210   20.5190  -58.8230 C.2   147  ASP147      0.2266
     54  O        -75.6240   19.6810  -59.7250 O.2   147  ASP147     -0.2867
     55  CB       -73.4800   19.5300  -57.7850 C.3   147  ASP147      0.1410
     56  CG       -72.0770   19.7500  -57.2470 C.2   147  ASP147      0.3668
     57  OD1      -71.3440   20.5920  -57.8090 O.co2 147  ASP147     -0.2456
     58  OD2      -71.7060   19.0760  -56.2620 O.co2 147  ASP147     -0.2456
     59  N        -75.8920   21.0710  -62.7200 N.3   150  VAL150     -0.1245
     60  CA       -75.0140   20.3150  -63.6140 C.3   150  VAL150      0.1561
     61  C        -75.8610   19.6120  -64.6710 C.2   150  VAL150      0.2260
     62  O        -76.9090   19.0380  -64.3390 O.2   150  VAL150     -0.2867
     63  CB       -74.1480   19.3230  -62.8190 C.3   150  VAL150      0.0252
     64  CG1      -73.3250   18.4390  -63.7470 C.3   150  VAL150      0.0019
     65  CG2      -73.2360   20.0770  -61.8600 C.3   150  VAL150      0.0019
     66  N        -75.7760   16.8390  -66.1810 N.3   152  ILE152     -0.1231
     67  CA       -76.0240   15.4070  -66.0560 C.3   152  ILE152      0.1692
     68  C        -77.2320   15.0960  -65.1870 C.2   152  ILE152      0.2592
     69  O        -77.7020   13.9530  -65.1840 O.2   152  ILE152     -0.2718
     70  CB       -74.7900   14.6690  -65.4960 C.3   152  ILE152      0.0266
     71  CG1      -74.5990   14.9850  -64.0120 C.3   152  ILE152      0.0019
     72  CG2      -73.5430   15.0380  -66.2850 C.3   152  ILE152      0.0020
     73  CD1      -73.4510   14.2320  -63.3770 C.3   152  ILE152      0.0001
     74  N        -77.7520   16.0830  -64.4530 N.am  153  PHE153     -0.1976
     75  CA       -78.9310   15.8900  -63.6240 C.3   153  PHE153      0.1639
     76  C        -80.1900   16.5110  -64.2090 C.2   153  PHE153      0.2290
     77  O        -81.2850   16.2340  -63.7070 O.2   153  PHE153     -0.2864
     78  CB       -78.7030   16.4740  -62.2200 C.3   153  PHE153      0.0560
     79  CG       -77.4670   15.9630  -61.5380 C.ar  153  PHE153     -0.0200
     80  CD1      -77.3190   14.6160  -61.2540 C.ar  153  PHE153     -0.0042
     81  CD2      -76.4570   16.8340  -61.1670 C.ar  153  PHE153     -0.0042
     82  CE1      -76.1810   14.1470  -60.6240 C.ar  153  PHE153     -0.0003
     83  CE2      -75.3180   16.3710  -60.5360 C.ar  153  PHE153     -0.0003
     84  CZ       -75.1810   15.0260  -60.2630 C.ar  153  PHE153     -0.0000
@<TRIPOS>BOND
     1    72    70    1
     2    66    67    1
     3    67    70    1
     4    67    68    1
     5    70    71    1
     6    68    69    2
     7    68    74   am
     8    15    13   ar
     9    61    62    2
    10    61    60    1
    11    74    75    1
    12    76    77    2
    13    76    75    1
    14    71    73    1
    15    13    14   ar
    16    13    12    1
    17    64    63    1
    18    75    78    1
    19    60    63    1
    20    60    59    1
    21    12     9    1
    22    63    65    1
    23    31    30    2
    24    78    79    1
    25    30    29    1
    26    30    32   am
    27    28    27    2
    28    79    80   ar
    29    79    81   ar
    30    29    26    1
    31     9     8    1
    32     9    10    1
    33    80    82   ar
    34     4     3    2
    35    81    83   ar
    36    26    27    1
    37    26    25    1
    38     6     5    1
    39    27    33   am
    40     5     7    1
    41     5     2    1
    42     8     3   am
    43     3     2    1
    44    82    84   ar
    45    10    11    2
    46    83    84   ar
    47    19    18    2
    48    33    34    1
    49     2     1    1
    50    34    35    1
    51    54    53    2
    52    25    18   am
    53    18    17    1
    54    53    52    1
    55    35    36    2
    56    35    37   am
    57    52    55    1
    58    52    51    1
    59    17    20    1
    60    17    16    1
    61    20    21    1
    62    57    56   ar
    63    55    56    1
    64    23    22    2
    65    37    38    1
    66    56    58   ar
    67    22    21    1
    68    22    24   am
    69    40    39    2
    70    38    39    1
    71    38    41    1
    72    42    41    1
    73    42    44    1
    74    39    45   am
    75    49    50    1
    76    49    46    1
    77    41    43    1
    78    45    46    1
    79    46    47    1
    80    47    48    2
