@<TRIPOS>MOLECULE
tmp/6bpyA03.pdb
 158 150 0 0 0
SMALL
GASTEIGER

@<TRIPOS>ATOM
      1  N        -71.9500   15.2610  -44.3220 N.3   125  ARG125     -0.1245
      2  CA       -71.8930   13.8490  -43.9700 C.3   125  ARG125      0.1563
      3  C        -72.1950   12.9710  -45.1790 C.2   125  ARG125      0.2260
      4  O        -73.1250   13.2350  -45.9460 O.2   125  ARG125     -0.2867
      5  CB       -72.8810   13.5360  -42.8460 C.3   125  ARG125      0.0307
      6  CG       -72.4900   14.0750  -41.4830 C.3   125  ARG125      0.0489
      7  CD       -73.6250   13.8910  -40.4870 C.3   125  ARG125      0.2205
      8  NE       -73.2930   14.4180  -39.1660 N.pl3 125  ARG125     -0.0865
      9  CZ       -74.1690   14.5570  -38.1760 C.cat 125  ARG125      0.5346
     10  NH1      -75.4360   14.2110  -38.3570 N.pl3 125  ARG125      0.1354
     11  NH2      -73.7780   15.0450  -37.0070 N.pl3 125  ARG125      0.1354
     12  N        -72.6670    8.7470  -46.5380 N.3   127  LEU127     -0.1245
     13  CA       -73.2390    7.5010  -46.0480 C.3   127  LEU127      0.1561
     14  C        -72.3380    6.2940  -46.2710 C.2   127  LEU127      0.2260
     15  O        -72.6450    5.2140  -45.7550 O.2   127  LEU127     -0.2867
     16  CB       -74.5960    7.2490  -46.7130 C.3   127  LEU127      0.0270
     17  CG       -75.6630    8.3070  -46.4360 C.3   127  LEU127      0.0019
     18  CD1      -77.0360    7.7910  -46.8280 C.3   127  LEU127      0.0001
     19  CD2      -75.6340    8.7390  -44.9770 C.3   127  LEU127      0.0001
     20  N        -81.5730   12.1700  -49.8780 N.3   161  ILE161     -0.1231
     21  CA       -81.5340   11.3720  -48.6570 C.3   161  ILE161      0.1692
     22  C        -81.5840   12.3190  -47.4660 C.2   161  ILE161      0.2593
     23  O        -80.7310   13.2040  -47.3330 O.2   161  ILE161     -0.2718
     24  CB       -80.2840   10.4830  -48.6020 C.3   161  ILE161      0.0266
     25  CG1      -80.2900    9.4880  -49.7610 C.3   161  ILE161      0.0019
     26  CG2      -80.2050    9.7570  -47.2700 C.3   161  ILE161      0.0020
     27  CD1      -79.0750    8.5920  -49.7920 C.3   161  ILE161      0.0001
     28  N        -82.5640   12.1280  -46.5990 N.am  162  GLY162     -0.1942
     29  CA       -82.7130   12.9330  -45.4010 C.3   162  GLY162      0.2014
     30  C        -84.1680   13.2820  -45.1510 C.2   162  GLY162      0.2639
     31  O        -85.0130   13.2490  -46.0450 O.2   162  GLY162     -0.2714
     32  N        -84.4670   13.6180  -43.8980 N.am  163  GLY163     -0.1939
     33  CA       -85.8210   13.9760  -43.5250 C.3   163  GLY163      0.2014
     34  C        -85.9390   15.3240  -42.8430 C.2   163  GLY163      0.2639
     35  O        -87.0390   15.7370  -42.4630 O.2   163  GLY163     -0.2714
     36  N        -84.8170   16.0200  -42.6840 N.am  164  GLY164     -0.1939
     37  CA       -84.8010   17.3040  -42.0190 C.3   164  GLY164      0.2014
     38  C        -85.1950   18.4410  -42.9440 C.2   164  GLY164      0.2639
     39  O        -85.6880   18.2470  -44.0570 O.2   164  GLY164     -0.2714
     40  N        -84.9670   19.6630  -42.4560 N.am  165  ASP165     -0.1957
     41  CA       -85.2940   20.8420  -43.2520 C.3   165  ASP165      0.1840
     42  C        -84.3440   20.9870  -44.4330 C.2   165  ASP165      0.2622
     43  O        -84.7580   21.4130  -45.5180 O.2   165  ASP165     -0.2715
     44  CB       -85.2600   22.0980  -42.3810 C.3   165  ASP165      0.1450
     45  CG       -86.3590   22.1160  -41.3380 C.2   165  ASP165      0.3671
     46  OD1      -86.2810   21.3230  -40.3770 O.co2 165  ASP165     -0.2456
     47  OD2      -87.2990   22.9270  -41.4800 O.co2 165  ASP165     -0.2456
     48  N        -83.0670   20.6420  -44.2400 N.am  166  SER166     -0.1950
     49  CA       -82.1120   20.6980  -45.3430 C.3   166  SER166      0.1924
     50  C        -82.5260   19.7800  -46.4820 C.2   166  SER166      0.2314
     51  O        -82.2870   20.0960  -47.6530 O.2   166  SER166     -0.2863
     52  CB       -80.7110   20.3300  -44.8490 C.3   166  SER166      0.2116
     53  OG       -80.2810   21.2010  -43.8170 O.3   166  SER166     -0.2180
     54  N        -85.8490   10.1610  -49.6930 N.3   184  LEU184     -0.1231
     55  CA       -85.8730    8.8660  -49.0120 C.3   184  LEU184      0.1693
     56  C        -85.7090    9.0990  -47.5120 C.2   184  LEU184      0.2592
     57  O        -84.5930    9.1470  -46.9920 O.2   184  LEU184     -0.2718
     58  CB       -84.7830    7.9470  -49.5540 C.3   184  LEU184      0.0284
     59  CG       -84.6800    7.8370  -51.0750 C.3   184  LEU184      0.0019
     60  CD1      -83.5240    6.9320  -51.4670 C.3   184  LEU184      0.0001
     61  CD2      -85.9850    7.3280  -51.6620 C.3   184  LEU184      0.0001
     62  N        -86.8330    9.2420  -46.8180 N.am  185  VAL185     -0.1966
     63  CA       -86.8190    9.3870  -45.3680 C.3   185  VAL185      0.1727
     64  C        -86.6070    8.0190  -44.7350 C.2   185  VAL185      0.2616
     65  O        -87.2460    7.0330  -45.1230 O.2   185  VAL185     -0.2715
     66  CB       -88.1250   10.0310  -44.8760 C.3   185  VAL185      0.0290
     67  CG1      -88.0760   10.2630  -43.3710 C.3   185  VAL185      0.0023
     68  CG2      -88.3820   11.3310  -45.6180 C.3   185  VAL185      0.0023
     69  N        -85.7070    7.9580  -43.7520 N.am  186  ARG186     -0.1963
     70  CA       -85.3650    6.6830  -43.1310 C.3   186  ARG186      0.1729
     71  C        -86.4810    6.1970  -42.2160 C.2   186  ARG186      0.2616
     72  O        -86.8670    5.0240  -42.2590 O.2   186  ARG186     -0.2715
     73  CB       -84.0530    6.8210  -42.3590 C.3   186  ARG186      0.0348
     74  CG       -83.8890    5.8320  -41.2220 C.3   186  ARG186      0.0492
     75  CD       -83.0750    6.4340  -40.0880 C.3   186  ARG186      0.2205
     76  NE       -81.6470    6.4810  -40.3890 N.pl3 186  ARG186     -0.0865
     77  CZ       -80.7440    7.0810  -39.6210 C.cat 186  ARG186      0.5346
     78  NH1      -81.1200    7.6930  -38.5060 N.pl3 186  ARG186      0.1354
     79  NH2      -79.4630    7.0700  -39.9650 N.pl3 186  ARG186      0.1354
     80  N        -87.0210    7.0890  -41.3930 N.am  187  ARG187     -0.1977
     81  CA       -88.0940    6.7430  -40.4760 C.3   187  ARG187      0.1597
     82  C        -89.4460    7.0300  -41.1300 C.2   187  ARG187      0.2287
     83  O        -89.5460    7.2390  -42.3420 O.2   187  ARG187     -0.2864
     84  CB       -87.9110    7.4650  -39.1440 C.3   187  ARG187      0.0334
     85  CG       -87.9110    8.9770  -39.2110 C.3   187  ARG187      0.0492
     86  CD       -87.6450    9.5440  -37.8260 C.3   187  ARG187      0.2205
     87  NE       -87.9190   10.9730  -37.7380 N.pl3 187  ARG187     -0.0865
     88  CZ       -87.8510   11.6720  -36.6110 C.cat 187  ARG187      0.5346
     89  NH1      -87.5170   11.0720  -35.4760 N.pl3 187  ARG187      0.1354
     90  NH2      -88.1200   12.9700  -36.6160 N.pl3 187  ARG187      0.1354
     91  N        -88.6250   14.8360  -40.1470 N.3   191  ARG191     -0.1245
     92  CA       -88.0850   15.5590  -39.0030 C.3   191  ARG191      0.1563
     93  C        -88.1580   17.0710  -39.1870 C.2   191  ARG191      0.2260
     94  O        -87.8640   17.8130  -38.2430 O.2   191  ARG191     -0.2867
     95  CB       -86.6320   15.1340  -38.7550 C.3   191  ARG191      0.0307
     96  CG       -86.0890   15.4570  -37.3650 C.3   191  ARG191      0.0489
     97  CD       -84.5950   15.1740  -37.2710 C.3   191  ARG191      0.2205
     98  NE       -84.0790   15.3660  -35.9170 N.pl3 191  ARG191     -0.0865
     99  CZ       -83.8830   14.3840  -35.0410 C.cat 191  ARG191      0.5346
    100  NH1      -84.1560   13.1300  -35.3730 N.pl3 191  ARG191      0.1354
    101  NH2      -83.4100   14.6570  -33.8320 N.pl3 191  ARG191      0.1354
    102  N        -87.6040    4.4030  -46.1880 N.3   212  THR212     -0.1203
    103  CA       -86.8160    3.9930  -47.3420 C.3   212  THR212      0.1994
    104  C        -85.3840    4.4650  -47.1490 C.2   212  THR212      0.2617
    105  O        -85.1530    5.6130  -46.7550 O.2   212  THR212     -0.2717
    106  CB       -87.3950    4.5570  -48.6460 C.3   212  THR212      0.1784
    107  OG1      -88.7750    4.1910  -48.7560 O.3   212  THR212     -0.2211
    108  CG2      -86.6390    4.0060  -49.8450 C.3   212  THR212      0.0376
    109  N        -84.4310    3.5780  -47.4240 N.am  213  VAL213     -0.1979
    110  CA       -83.0110    3.8500  -47.2480 C.3   213  VAL213      0.1595
    111  C        -82.2780    3.4110  -48.5070 C.2   213  VAL213      0.2287
    112  O        -82.5630    2.3440  -49.0610 O.2   213  VAL213     -0.2864
    113  CB       -82.4440    3.1230  -46.0080 C.3   213  VAL213      0.0276
    114  CG1      -80.9500    3.3750  -45.8690 C.3   213  VAL213      0.0022
    115  CG2      -83.1830    3.5520  -44.7460 C.3   213  VAL213      0.0022
    116  N        -78.4740   14.8280  -47.9950 N.3   251  ALA251     -0.1231
    117  CA       -79.0660   15.9730  -47.3150 C.3   251  ALA251      0.1694
    118  C        -79.2080   15.7050  -45.8220 C.2   251  ALA251      0.2592
    119  O        -80.1420   16.1930  -45.1790 O.2   251  ALA251     -0.2718
    120  CB       -80.4140   16.3410  -47.9290 C.3   251  ALA251      0.0304
    121  N        -78.2940   14.9160  -45.2640 N.am  252  VAL252     -0.1966
    122  CA       -78.1380   14.7930  -43.8200 C.3   252  VAL252      0.1727
    123  C        -77.3040   15.9750  -43.3470 C.2   252  VAL252      0.2617
    124  O        -76.7520   16.7200  -44.1650 O.2   252  VAL252     -0.2715
    125  CB       -77.4960   13.4500  -43.4370 C.3   252  VAL252      0.0290
    126  CG1      -78.4360   12.3100  -43.7830 C.3   252  VAL252      0.0023
    127  CG2      -76.1780   13.2740  -44.1580 C.3   252  VAL252      0.0023
    128  N        -77.2080   16.1620  -42.0340 N.am  253  GLY253     -0.1940
    129  CA       -76.5250   17.3230  -41.4960 C.3   253  GLY253      0.2014
    130  C        -75.0460   17.3930  -41.8210 C.2   253  GLY253      0.2638
    131  O        -74.5250   16.5770  -42.5880 O.2   253  GLY253     -0.2714
    132  N        -74.3570   18.3690  -41.2390 N.am  254  HIS254     -0.1973
    133  CA       -72.9420   18.5850  -41.4920 C.3   254  HIS254      0.1656
    134  C        -72.1450   18.3810  -40.2110 C.2   254  HIS254      0.2291
    135  O        -72.6890   18.4030  -39.1030 O.2   254  HIS254     -0.2864
    136  CB       -72.6900   19.9890  -42.0510 C.3   254  HIS254      0.0771
    137  CG       -73.4580   20.2900  -43.3000 C.ar  254  HIS254      0.0820
    138  ND1      -72.9060   20.1830  -44.5590 N.ar  254  HIS254     -0.2267
    139  CD2      -74.7370   20.6940  -43.4840 C.ar  254  HIS254      0.1154
    140  CE1      -73.8110   20.5090  -45.4640 C.ar  254  HIS254      0.1986
    141  NE2      -74.9310   20.8230  -44.8380 N.ar  254  HIS254     -0.2212
    142  N        -75.7700   22.6100  -32.9050 N.3   270  ASP270     -0.1239
    143  CA       -75.3440   21.6860  -33.9490 C.3   270  ASP270      0.1674
    144  C        -73.8340   21.4950  -34.0100 C.2   270  ASP270      0.2266
    145  O        -73.3700   20.5990  -34.7230 O.2   270  ASP270     -0.2867
    146  CB       -75.8540   22.1580  -35.3170 C.3   270  ASP270      0.1410
    147  CG       -77.3670   22.0930  -35.4330 C.2   270  ASP270      0.3668
    148  OD1      -77.9580   21.1030  -34.9520 O.co2 270  ASP270     -0.2456
    149  OD2      -77.9630   23.0270  -36.0100 O.co2 270  ASP270     -0.2456
    150  N        -73.5710   28.2530  -41.0360 N.3   296  LYS296     -0.1245
    151  CA       -74.4890   27.1450  -41.2370 C.3   296  LYS296      0.1561
    152  C        -75.6050   27.4750  -42.2170 C.2   296  LYS296      0.2260
    153  O        -76.3170   26.5620  -42.6520 O.2   296  LYS296     -0.2867
    154  CB       -75.1030   26.7280  -39.8890 C.3   296  LYS296      0.0271
    155  CG       -75.9130   25.4410  -39.8970 C.3   296  LYS296      0.0035
    156  CD       -76.9250   25.4350  -38.7610 C.3   296  LYS296      0.0206
    157  CE       -76.2730   25.7930  -37.4350 C.3   296  LYS296      0.1093
    158  NZ       -77.2660   25.8660  -36.3290 N.3   296  LYS296     -0.1314
@<TRIPOS>BOND
     1    61    59    1
     2    60    59    1
     3    59    58    1
     4    20    21    1
     5   108   106    1
     6    27    25    1
     7    25    24    1
     8    54    55    1
     9    58    55    1
    10   112   111    2
    11    55    56    1
    12   107   106    1
    13    21    24    1
    14    21    22    1
    15   106   103    1
    16    24    26    1
    17   111   110    1
    18   116   117    1
    19   120   117    1
    20    51    50    2
    21    56    57    2
    22    56    62   am
    23    22    23    2
    24    22    28   am
    25   109   110    1
    26   109   104   am
    27   103   104    1
    28   103   102    1
    29   117   118    1
    30   110   113    1
    31   104   105    2
    32    18    17    1
    33    62    63    1
    34    16    17    1
    35    16    13    1
    36    28    29    1
    37    12    13    1
    38    50    49    1
    39    17    19    1
    40    14    13    1
    41    14    15    2
    42    31    30    2
    43   113   114    1
    44   113   115    1
    45     4     3    2
    46   118   121   am
    47   118   119    2
    48    68    66    1
    49    43    42    2
    50   140   141   ar
    51   140   138   ar
    52    29    30    1
    53    63    66    1
    54    63    64    1
    55    49    52    1
    56    49    48    1
    57   121   122    1
    58     3     2    1
    59    30    32   am
    60    65    64    2
    61    66    67    1
    62    52    53    1
    63   141   139   ar
    64    64    69   am
    65   138   137   ar
    66    42    48   am
    67    42    41    1
    68     1     2    1
    69   124   123    2
    70   127   125    1
    71    39    38    2
    72     2     5    1
    73    32    33    1
    74   122   125    1
    75   122   123    1
    76   126   125    1
    77    69    70    1
    78    33    34    1
    79   139   137   ar
    80   123   128   am
    81   137   136    1
    82    41    40    1
    83    41    44    1
    84    70    73    1
    85    70    71    1
    86    38    40   am
    87    38    37    1
    88     5     6    1
    89    34    36   am
    90    34    35    2
    91    36    37    1
    92   153   152    2
    93   131   130    2
    94    44    45    1
    95    73    74    1
    96    83    82    2
    97    72    71    2
    98   152   151    1
    99    71    80   am
   100   136   133    1
   101   128   129    1
   102   130   129    1
   103   130   132   am
   104   133   132    1
   105   133   134    1
   106     6     7    1
   107    47    45   ar
   108    80    81    1
   109    45    46   ar
   110   151   150    1
   111   151   154    1
   112    74    75    1
   113    82    81    1
   114     7     8    1
   115    81    84    1
   116    76    75    1
   117    76    77    2
   118   134   135    2
   119    91    92    1
   120    79    77    1
   121   155   154    1
   122   155   156    1
   123    77    78    1
   124    85    84    1
   125    85    86    1
   126    93    92    1
   127    93    94    2
   128     8     9    2
   129    92    95    1
   130   156   157    1
   131    95    96    1
   132    10     9    1
   133     9    11    1
   134    86    87    1
   135    87    88    2
   136   157   158    1
   137    96    97    1
   138    97    98    1
   139    90    88    1
   140    88    89    1
   141   149   147   ar
   142    98    99    2
   143   147   146    1
   144   147   148   ar
   145   100    99    1
   146   146   143    1
   147    99   101    1
   148   145   144    2
   149   144   143    1
   150   143   142    1
