@<TRIPOS>MOLECULE
tmp/6bq0B00.pdb
 119 108 0 0 0
SMALL
GASTEIGER

@<TRIPOS>ATOM
      1  N        -26.8080  -54.6670  -15.8470 N.3    45  GLY45      -0.1210
      2  CA       -25.6840  -54.5710  -14.9310 C.3    45  GLY45       0.1956
      3  C        -25.2980  -55.8770  -14.2670 C.2    45  GLY45       0.2611
      4  O        -25.9130  -56.9260  -14.5000 O.2    45  GLY45      -0.2717
      5  N        -24.2400  -55.8260  -13.4650 N.am   46  ALA46      -0.1979
      6  CA       -23.7480  -57.0240  -12.7850 C.3    46  ALA46       0.1597
      7  C        -24.7960  -57.5740  -11.8250 C.2    46  ALA46       0.2287
      8  O        -25.5090  -56.8010  -11.1930 O.2    46  ALA46      -0.2864
      9  CB       -22.4590  -56.7010  -12.0410 C.3    46  ALA46       0.0319
     10  N        -24.7170  -49.5090  -15.2060 N.3   117  SER117     -0.1202
     11  CA       -23.6080  -49.9990  -14.3920 C.3   117  SER117      0.2020
     12  C        -22.5910  -50.7370  -15.2690 C.2   117  SER117      0.2618
     13  O        -22.0850  -50.1360  -16.2240 O.2   117  SER117     -0.2717
     14  CB       -24.1640  -50.8220  -13.2240 C.3   117  SER117      0.2103
     15  OG       -23.1850  -51.1180  -12.2360 O.3   117  SER117     -0.2182
     16  N        -22.3470  -52.0460  -15.0300 N.am  118  MET118     -0.1979
     17  CA       -21.4510  -52.8450  -15.8600 C.3   118  MET118      0.1605
     18  C        -21.9500  -52.8580  -17.3260 C.2   118  MET118      0.2287
     19  O        -21.1410  -52.9050  -18.2460 O.2   118  MET118     -0.2864
     20  CB       -21.4140  -54.2830  -15.3100 C.3   118  MET118      0.0413
     21  CG       -20.5700  -55.2150  -16.0990 C.3   118  MET118      0.0598
     22  SD       -20.7450  -56.9360  -15.5070 S.3   118  MET118     -0.1393
     23  CE       -22.1660  -57.5100  -16.3900 C.3   118  MET118      0.0692
     24  N        -20.4490  -47.9870  -15.1070 N.3   143  LEU143     -0.1245
     25  CA       -19.2580  -48.3340  -14.3450 C.3   143  LEU143      0.1561
     26  C        -18.0840  -47.7820  -15.1220 C.2   143  LEU143      0.2260
     27  O        -17.7700  -48.2750  -16.1980 O.2   143  LEU143     -0.2867
     28  CB       -19.1490  -49.8570  -14.2010 C.3   143  LEU143      0.0270
     29  CG       -17.8510  -50.3570  -13.5850 C.3   143  LEU143      0.0019
     30  CD1      -17.7160  -49.8990  -12.1220 C.3   143  LEU143      0.0001
     31  CD2      -17.7620  -51.8590  -13.7220 C.3   143  LEU143      0.0001
     32  N        -15.4660  -45.7720  -13.0280 N.3   145  LEU145     -0.1231
     33  CA       -14.4460  -45.4820  -12.0260 C.3   145  LEU145      0.1693
     34  C        -14.3090  -46.5680  -10.9570 C.2   145  LEU145      0.2591
     35  O        -15.3110  -46.9920  -10.3860 O.2   145  LEU145     -0.2718
     36  CB       -14.7920  -44.1240  -11.3890 C.3   145  LEU145      0.0284
     37  CG       -13.7000  -43.3220  -10.7220 C.3   145  LEU145      0.0019
     38  CD1      -12.6250  -42.9090  -11.7180 C.3   145  LEU145      0.0001
     39  CD2      -14.3050  -42.0850  -10.0540 C.3   145  LEU145      0.0001
     40  N        -13.0560  -47.0000  -10.6770 N.am  146  ALA146     -0.1980
     41  CA       -12.7790  -48.0330   -9.6700 C.3   146  ALA146      0.1597
     42  C        -12.9350  -47.5220   -8.2420 C.2   146  ALA146      0.2287
     43  O        -12.9250  -46.3150   -8.0140 O.2   146  ALA146     -0.2864
     44  CB       -11.3900  -48.5980   -9.8810 C.3   146  ALA146      0.0319
     45  N        -16.2290  -60.5550   -1.9730 N.3   163  LEU163     -0.1245
     46  CA       -16.3090  -59.3440   -1.1720 C.3   163  LEU163      0.1561
     47  C        -17.7340  -59.4390   -0.6300 C.2   163  LEU163      0.2260
     48  O        -18.5390  -60.1890   -1.1820 O.2   163  LEU163     -0.2867
     49  CB       -16.0960  -58.1080   -2.0480 C.3   163  LEU163      0.0270
     50  CG       -14.6400  -57.9190   -2.4760 C.3   163  LEU163      0.0019
     51  CD1      -14.5350  -57.5830   -3.9420 C.3   163  LEU163      0.0001
     52  CD2      -13.9170  -56.9110   -1.5810 C.3   163  LEU163      0.0001
     53  N        -23.6160  -56.5320   -0.9560 N.3   166  ILE166     -0.1245
     54  CA       -23.9560  -55.1370   -0.7250 C.3   166  ILE166      0.1561
     55  C        -25.3030  -55.0260   -0.0530 C.2   166  ILE166      0.2260
     56  O        -26.1230  -55.9450   -0.1370 O.2   166  ILE166     -0.2867
     57  CB       -23.8210  -54.2490   -1.9900 C.3   166  ILE166      0.0252
     58  CG1      -24.7070  -54.7520   -3.1420 C.3   166  ILE166      0.0019
     59  CG2      -22.3550  -54.1160   -2.4090 C.3   166  ILE166      0.0019
     60  CD1      -25.3100  -53.6830   -3.9810 C.3   166  ILE166      0.0001
     61  N        -19.6350  -60.0000   -4.7260 N.3   192  LEU192     -0.1245
     62  CA       -18.7710  -59.9990   -5.8990 C.3   192  LEU192      0.1561
     63  C        -17.5310  -60.9130   -5.7050 C.2   192  LEU192      0.2260
     64  O        -16.7170  -60.6760   -4.8030 O.2   192  LEU192     -0.2867
     65  CB       -18.3540  -58.5440   -6.1790 C.3   192  LEU192      0.0270
     66  CG       -17.1850  -58.2960   -7.1520 C.3   192  LEU192      0.0019
     67  CD1      -17.5660  -58.6580   -8.5640 C.3   192  LEU192      0.0001
     68  CD2      -16.7440  -56.8310   -7.1210 C.3   192  LEU192      0.0001
     69  N        -14.3020  -59.3690   -9.7800 N.3   197  GLY197     -0.1225
     70  CA       -13.8660  -58.0310   -9.3950 C.3   197  GLY197      0.1811
     71  C        -12.6670  -57.6070  -10.2290 C.2   197  GLY197      0.2280
     72  O        -12.6210  -56.4700  -10.7110 O.2   197  GLY197     -0.2866
     73  N        -13.9400  -56.5750  -13.5340 N.3   200  LEU200     -0.1231
     74  CA       -14.5470  -55.2340  -13.4630 C.3   200  LEU200      0.1693
     75  C        -13.4700  -54.1440  -13.4420 C.2   200  LEU200      0.2591
     76  O        -13.6600  -53.0600  -14.0040 O.2   200  LEU200     -0.2718
     77  CB       -15.5190  -55.1030  -12.2770 C.3   200  LEU200      0.0284
     78  CG       -16.7480  -56.0260  -12.2890 C.3   200  LEU200      0.0019
     79  CD1      -17.6200  -55.8150  -11.0620 C.3   200  LEU200      0.0001
     80  CD2      -17.6010  -55.8020  -13.5250 C.3   200  LEU200      0.0001
     81  N        -12.3200  -54.4490  -12.8230 N.am  201  LEU201     -0.1980
     82  CA       -11.1640  -53.5550  -12.8170 C.3   201  LEU201      0.1596
     83  C        -10.5890  -53.5020  -14.2370 C.2   201  LEU201      0.2287
     84  O        -10.1950  -52.4350  -14.6840 O.2   201  LEU201     -0.2864
     85  CB       -10.0930  -54.0310  -11.8150 C.3   201  LEU201      0.0297
     86  CG       -10.3300  -53.6640  -10.3140 C.3   201  LEU201      0.0022
     87  CD1       -9.2580  -54.2810   -9.4410 C.3   201  LEU201      0.0001
     88  CD2      -10.3580  -52.1680  -10.0750 C.3   201  LEU201      0.0001
     89  N        -12.9380  -51.1080  -16.1940 N.3   204  VAL204     -0.1245
     90  CA       -12.6620  -49.6900  -15.8690 C.3   204  VAL204      0.1561
     91  C        -11.3770  -49.1650  -16.5530 C.2   204  VAL204      0.2260
     92  O        -11.3630  -48.0470  -17.0710 O.2   204  VAL204     -0.2867
     93  CB       -12.6510  -49.5140  -14.3200 C.3   204  VAL204      0.0252
     94  CG1      -11.9290  -48.2370  -13.8830 C.3   204  VAL204      0.0019
     95  CG2      -14.0740  -49.5600  -13.7650 C.3   204  VAL204      0.0019
     96  N        -22.1130  -47.0570   -5.5310 N.3   228  LEU228     -0.1231
     97  CA       -21.4990  -48.1080   -6.3480 C.3   228  LEU228      0.1693
     98  C        -20.7080  -47.5500   -7.4930 C.2   228  LEU228      0.2592
     99  O        -19.6440  -48.0690   -7.8030 O.2   228  LEU228     -0.2718
    100  CB       -22.5790  -49.0930   -6.8320 C.3   228  LEU228      0.0284
    101  CG       -23.3470  -49.8050   -5.7350 C.3   228  LEU228      0.0019
    102  CD1      -24.3490  -50.7570   -6.3210 C.3   228  LEU228      0.0001
    103  CD2      -22.4010  -50.5640   -4.8070 C.3   228  LEU228      0.0001
    104  N        -21.2400  -46.5250   -8.1560 N.am  229  CYS229     -0.1970
    105  CA       -20.5450  -45.8280   -9.2390 C.3   229  CYS229      0.1712
    106  C        -20.5140  -44.3780   -8.7920 C.2   229  CYS229      0.2296
    107  O        -21.5250  -43.6900   -8.8900 O.2   229  CYS229     -0.2864
    108  CB       -21.2820  -45.9940  -10.5690 C.3   229  CYS229      0.0983
    109  SG       -21.3010  -47.6900  -11.1920 S.3   229  CYS229     -0.0798
    110  N        -28.2010  -45.5940   -6.9570 N.3   256  HIS256     -0.1241
    111  CA       -27.6270  -46.2360   -8.1290 C.3   256  HIS256      0.1621
    112  C        -28.6110  -46.5990   -9.2360 C.2   256  HIS256      0.2264
    113  O        -28.3380  -46.3150  -10.4060 O.2   256  HIS256     -0.2867
    114  CB       -26.8320  -47.4740   -7.6720 C.3   256  HIS256      0.0745
    115  CG       -26.1100  -48.2210   -8.7610 C.ar  256  HIS256      0.0817
    116  ND1      -25.0750  -47.6470   -9.4680 N.ar  256  HIS256     -0.2268
    117  CD2      -26.2480  -49.5080   -9.1560 C.ar  256  HIS256      0.1154
    118  CE1      -24.6450  -48.5800  -10.2950 C.ar  256  HIS256      0.1986
    119  NE2      -25.2980  -49.7270  -10.1170 N.ar  256  HIS256     -0.2212
@<TRIPOS>BOND
     1    19    18    2
     2    18    17    1
     3    92    91    2
     4    91    90    1
     5    23    22    1
     6    13    12    2
     7    27    26    2
     8    89    90    1
     9    21    22    1
    10    21    20    1
    11    90    93    1
    12    17    20    1
    13    17    16    1
    14     1     2    1
    15    12    16   am
    16    12    11    1
    17    10    11    1
    18    26    25    1
    19    24    25    1
    20     2     3    1
    21    84    83    2
    22     4     3    2
    23    11    14    1
    24    25    28    1
    25    93    94    1
    26    93    95    1
    27     3     5   am
    28    83    82    1
    29    28    29    1
    30    76    75    2
    31    31    29    1
    32    29    30    1
    33    73    74    1
    34    80    78    1
    35     5     6    1
    36    74    75    1
    37    74    77    1
    38    75    81   am
    39    14    15    1
    40    32    33    1
    41    81    82    1
    42    82    85    1
    43     6     9    1
    44     6     7    1
    45    78    77    1
    46    78    79    1
    47    33    36    1
    48    33    34    1
    49     7     8    2
    50    85    86    1
    51    38    37    1
    52    36    37    1
    53   109   108    1
    54    34    40   am
    55    34    35    2
    56    37    39    1
    57    72    71    2
    58    40    41    1
    59   108   105    1
    60   113   112    2
    61    86    88    1
    62    86    87    1
    63   118   119   ar
    64   118   116   ar
    65    71    70    1
    66   119   117   ar
    67    44    41    1
    68    69    70    1
    69    41    42    1
    70   116   115   ar
    71   105   106    1
    72   105   104    1
    73   112   111    1
    74   117   115   ar
    75   107   106    2
    76   115   114    1
    77    67    66    1
    78    42    43    2
    79   104    98   am
    80   111   114    1
    81   111   110    1
    82    99    98    2
    83    98    97    1
    84    66    68    1
    85    66    65    1
    86   100    97    1
    87   100   101    1
    88    97    96    1
    89   102   101    1
    90    65    62    1
    91    62    63    1
    92    62    61    1
    93   101   103    1
    94    63    64    2
    95    60    58    1
    96    51    50    1
    97    58    57    1
    98    50    49    1
    99    50    52    1
   100    59    57    1
   101    49    46    1
   102    57    54    1
   103    45    46    1
   104    48    47    2
   105    46    47    1
   106    53    54    1
   107    54    55    1
   108    56    55    2
