@<TRIPOS>MOLECULE
tmp/6bq3A00.pdb
 212 203 0 0 0
SMALL
GASTEIGER

@<TRIPOS>ATOM
      1  N         18.5860   -2.2040   10.8000 N.3    31  GLN31      -0.1245
      2  CA        18.7770   -0.8250   10.3930 C.3    31  GLN31       0.1566
      3  C         20.0240   -0.6470    9.5550 C.2    31  GLN31       0.2260
      4  O         20.8970   -1.5080    9.5230 O.2    31  GLN31      -0.2867
      5  CB        18.9040    0.0480   11.6410 C.3    31  GLN31       0.0367
      6  CG        20.1040   -0.3200   12.5080 C.3    31  GLN31       0.0905
      7  CD        19.8220   -0.2530   13.9950 C.2    31  GLN31       0.2608
      8  OE1       19.1020    0.6320   14.4620 O.2    31  GLN31      -0.2717
      9  NE2       20.4140   -1.1740   14.7510 N.am   31  GLN31      -0.0878
     10  N         28.0460    8.2050   14.5030 N.3    45  LEU45      -0.1245
     11  CA        27.2890    7.0000   14.1940 C.3    45  LEU45       0.1561
     12  C         25.8960    7.3500   13.7580 C.2    45  LEU45       0.2260
     13  O         25.1870    8.0450   14.4910 O.2    45  LEU45      -0.2867
     14  CB        27.2040    6.1220   15.4070 C.3    45  LEU45       0.0270
     15  CG        26.4330    4.7990   15.2200 C.3    45  LEU45       0.0019
     16  CD1       27.3280    3.7780   14.5520 C.3    45  LEU45       0.0001
     17  CD2       25.9990    4.2960   16.5940 C.3    45  LEU45       0.0001
     18  N         22.2880    5.8040   12.3040 N.3    47  LEU47      -0.1245
     19  CA        21.4460    4.5900   12.2380 C.3    47  LEU47       0.1561
     20  C         20.1690    4.9160   11.5360 C.2    47  LEU47       0.2260
     21  O         19.4580    5.8560   11.9410 O.2    47  LEU47      -0.2867
     22  CB        21.1560    4.0030   13.6470 C.3    47  LEU47       0.0270
     23  CG        22.4000    3.6340   14.4980 C.3    47  LEU47       0.0019
     24  CD1       22.0700    2.9620   15.8200 C.3    47  LEU47       0.0001
     25  CD2       23.3730    2.7620   13.7240 C.3    47  LEU47       0.0001
     26  N         23.1390    9.2760   15.8070 N.3    52  GLN52      -0.1245
     27  CA        22.8120    8.7940   17.1520 C.3    52  GLN52       0.1566
     28  C         23.9420    9.0140   18.1680 C.2    52  GLN52       0.2260
     29  O         23.6930    9.0200   19.3240 O.2    52  GLN52      -0.2867
     30  CB        22.3650    7.3220   17.0990 C.3    52  GLN52       0.0367
     31  CG        21.0060    7.0860   16.4220 C.3    52  GLN52       0.0905
     32  CD        19.8150    7.6540   17.2130 C.2    52  GLN52       0.2608
     33  OE1       19.9810    8.2960   18.2520 O.2    52  GLN52      -0.2717
     34  NE2       18.6200    7.4890   16.6690 N.am   52  GLN52      -0.0878
     35  N         25.3270   13.5710   26.2770 N.3    61  TYR61      -0.1227
     36  CA        24.2410   12.6230   26.2600 C.3    61  TYR61       0.1736
     37  C         24.4420   11.5190   27.3020 C.2    61  TYR61       0.2595
     38  O         23.5160   11.1860   28.0520 O.2    61  TYR61      -0.2718
     39  CB        24.0580   12.0520   24.8460 C.3    61  TYR61       0.0548
     40  CG        23.0030   10.9700   24.7530 C.ar   61  TYR61      -0.0200
     41  CD1       21.6720   11.2770   24.4930 C.ar   61  TYR61      -0.0009
     42  CD2       23.3260    9.6370   24.9730 C.ar   61  TYR61      -0.0009
     43  CE1       20.6880   10.2880   24.4380 C.ar   61  TYR61       0.0417
     44  CE2       22.3480    8.6350   24.9520 C.ar   61  TYR61       0.0417
     45  CZ        21.0340    8.9730   24.6460 C.ar   61  TYR61       0.1957
     46  OH        20.0620    8.0060   24.5580 O.3    61  TYR61      -0.2866
     47  N         25.6430   10.9390   27.3310 N.am   62  HIS62      -0.1975
     48  CA        25.8940    9.7590   28.1350 C.3    62  HIS62       0.1656
     49  C         26.1050   10.0520   29.6110 C.2    62  HIS62       0.2291
     50  O         25.6330    9.2960   30.4710 O.2    62  HIS62      -0.2864
     51  CB        26.9970    8.9180   27.4810 C.3    62  HIS62       0.0771
     52  CG        26.5830    8.3600   26.1570 C.ar   62  HIS62       0.0820
     53  ND1       27.0260    8.8550   24.9450 N.ar   62  HIS62      -0.2267
     54  CD2       25.7120    7.3720   25.8640 C.ar   62  HIS62       0.1154
     55  CE1       26.4440    8.1750   23.9640 C.ar   62  HIS62       0.1986
     56  NE2       25.6450    7.2670   24.5010 N.ar   62  HIS62      -0.2212
     57  N         19.2590   -1.4420   24.7140 N.3    83  GLY83      -0.1210
     58  CA        20.1580   -0.8240   23.7310 C.3    83  GLY83       0.1956
     59  C         21.6270   -0.8430   24.1960 C.2    83  GLY83       0.2612
     60  O         22.1480   -1.8590   24.6780 O.2    83  GLY83      -0.2717
     61  N         22.3010    0.2910   24.0670 N.am   84  GLY84      -0.1942
     62  CA        23.6750    0.4360   24.5260 C.3    84  GLY84       0.2014
     63  C         24.7520   -0.0390   23.5770 C.2    84  GLY84       0.2639
     64  O         25.9390    0.0250   23.9250 O.2    84  GLY84      -0.2714
     65  N         24.3710   -0.5170   22.3830 N.am   85  GLY85      -0.1939
     66  CA        25.3320   -1.0990   21.4430 C.3    85  GLY85       0.2014
     67  C         26.5140   -0.2060   21.1060 C.2    85  GLY85       0.2638
     68  O         27.6240   -0.6820   20.8960 O.2    85  GLY85      -0.2714
     69  N         26.2670    1.0960   21.0880 N.am   86  GLU86      -0.1977
     70  CA        27.3040    2.1020   20.8680 C.3    86  GLU86       0.1602
     71  C         28.3930    2.1110   21.9620 C.2    86  GLU86       0.2287
     72  O         29.5350    2.5420   21.7090 O.2    86  GLU86      -0.2864
     73  CB        26.6160    3.4710   20.6670 C.3    86  GLU86       0.0415
     74  CG        27.5340    4.6400   20.4630 C.3    86  GLU86       0.1163
     75  CD        27.8600    5.3850   21.7540 C.2    86  GLU86       0.3649
     76  OE1       28.4760    6.4850   21.6700 O.co2  86  GLU86      -0.2457
     77  OE2       27.4850    4.8840   22.8550 O.co2  86  GLU86      -0.2457
     78  N         22.1050   -4.9880   26.6280 N.3   105  CYS105     -0.1221
     79  CA        21.2050   -5.7830   25.8280 C.3   105  CYS105      0.1808
     80  C         20.7790   -5.0120   24.5640 C.2   105  CYS105      0.2601
     81  O         19.8280   -4.2300   24.6070 O.2   105  CYS105     -0.2717
     82  CB        19.9810   -6.2070   26.6370 C.3   105  CYS105      0.0970
     83  SG        18.9590   -7.3600   25.6790 S.3   105  CYS105     -0.0800
     84  N         21.4770   -5.2430   23.4470 N.am  106  ASP106     -0.1959
     85  CA        21.1170   -4.5920   22.1760 C.3   106  ASP106      0.1840
     86  C         20.6050   -5.6300   21.1920 C.2   106  ASP106      0.2622
     87  O         21.0960   -6.7500   21.1610 O.2   106  ASP106     -0.2715
     88  CB        22.3200   -3.8630   21.6050 C.3   106  ASP106      0.1450
     89  CG        21.9350   -2.7880   20.6040 C.2   106  ASP106      0.3671
     90  OD1       21.3750   -3.1370   19.5260 O.co2 106  ASP106     -0.2456
     91  OD2       22.2080   -1.5990   20.8900 O.co2 106  ASP106     -0.2456
     92  N         19.6340   -5.2500   20.3740 N.am  107  ILE107     -0.1963
     93  CA        19.0360   -6.1690   19.4030 C.3   107  ILE107      0.1727
     94  C         19.9610   -6.4390   18.1870 C.2   107  ILE107      0.2616
     95  O         19.7890   -7.4430   17.4830 O.2   107  ILE107     -0.2715
     96  CB        17.6380   -5.6450   19.0090 C.3   107  ILE107      0.0290
     97  CG1       16.7640   -6.7650   18.4610 C.3   107  ILE107      0.0022
     98  CG2       17.7310   -4.4610   18.0480 C.3   107  ILE107      0.0023
     99  CD1       15.3270   -6.3150   18.2570 C.3   107  ILE107      0.0001
    100  N         20.9650   -5.5730   17.9790 N.am  108  ASP108     -0.1971
    101  CA        21.7640   -5.5640   16.7530 C.3   108  ASP108      0.1709
    102  C         23.2530   -5.8340   17.0360 C.2   108  ASP108      0.2293
    103  O         24.0440   -4.9340   17.3230 O.2   108  ASP108     -0.2864
    104  CB        21.5530   -4.2430   15.9830 C.3   108  ASP108      0.1436
    105  CG        21.9110   -4.3590   14.5000 C.2   108  ASP108      0.3671
    106  OD1       22.7040   -5.2490   14.1440 O.co2 108  ASP108     -0.2456
    107  OD2       21.3800   -3.5680   13.6860 O.co2 108  ASP108     -0.2456
    108  N         25.7530   -3.5590   15.1740 N.3   111  VAL111     -0.1245
    109  CA        26.0250   -2.2470   15.7810 C.3   111  VAL111      0.1561
    110  C         27.1190   -2.3970   16.8220 C.2   111  VAL111      0.2260
    111  O         28.0660   -1.6160   16.8580 O.2   111  VAL111     -0.2867
    112  CB        24.7810   -1.6420   16.5030 C.3   111  VAL111      0.0252
    113  CG1       25.1610   -0.4160   17.3470 C.3   111  VAL111      0.0019
    114  CG2       23.7040   -1.2520   15.5180 C.3   111  VAL111      0.0019
    115  N         19.9160   -9.3860   21.9940 N.3   136  ASN136     -0.1225
    116  CA        18.4730   -9.6730   22.0520 C.3   136  ASN136      0.1785
    117  C         17.6540   -8.3690   22.0210 C.2   136  ASN136      0.2597
    118  O         18.1590   -7.2490   22.3370 O.2   136  ASN136     -0.2718
    119  CB        18.1210  -10.4340   23.3530 C.3   136  ASN136      0.1169
    120  CG        16.8710  -11.3260   23.2370 C.2   136  ASN136      0.2627
    121  OD1       16.1990  -11.3810   22.2110 O.2   136  ASN136     -0.2716
    122  ND2       16.5820  -12.0660   24.3090 N.am  136  ASN136     -0.0877
    123  N         16.3780   -8.5350   21.7010 N.am  137  ASP137     -0.1960
    124  CA        15.3600   -7.5390   22.0220 C.3   137  ASP137      0.1840
    125  C         15.2530   -7.4410   23.5460 C.2   137  ASP137      0.2621
    126  O         14.9760   -8.4060   24.1930 O.2   137  ASP137     -0.2715
    127  CB        14.0120   -7.9330   21.3660 C.3   137  ASP137      0.1450
    128  CG        12.8280   -7.2130   21.9720 C.2   137  ASP137      0.3671
    129  OD1       12.8510   -5.9750   22.0380 O.co2 137  ASP137     -0.2456
    130  OD2       11.9060   -7.9060   22.4470 O.co2 137  ASP137     -0.2456
    131  N         15.4570   -6.2430   24.1050 N.am  138  ALA138     -0.1977
    132  CA        15.4840   -6.0450   25.5540 C.3   138  ALA138      0.1597
    133  C         14.1710   -6.4260   26.2250 C.2   138  ALA138      0.2287
    134  O         14.1850   -6.8330   27.3720 O.2   138  ALA138     -0.2864
    135  CB        15.8380   -4.6150   25.9160 C.3   138  ALA138      0.0319
    136  N         18.2100    3.1980   26.5410 N.3   155  ASP155     -0.1225
    137  CA        19.1230    3.8960   25.6360 C.3   155  ASP155      0.1805
    138  C         18.6760    3.4250   24.2640 C.2   155  ASP155      0.2598
    139  O         19.4900    3.0400   23.4100 O.2   155  ASP155     -0.2718
    140  CB        20.5770    3.5130   25.9620 C.3   155  ASP155      0.1424
    141  CG        21.6320    4.3460   25.2090 C.2   155  ASP155      0.3668
    142  OD1       21.3000    5.4010   24.6220 O.co2 155  ASP155     -0.2456
    143  OD2       22.8130    3.9490   25.2260 O.co2 155  ASP155     -0.2456
    144  N         17.3610    3.5030   24.0570 N.am  156  LEU156     -0.1966
    145  CA        16.7230    3.1520   22.7840 C.3   156  LEU156      0.1728
    146  C         16.5070    4.3670   21.8820 C.2   156  LEU156      0.2616
    147  O         16.6770    5.5240   22.3000 O.2   156  LEU156     -0.2715
    148  CB        15.3840    2.5040   23.0610 C.3   156  LEU156      0.0311
    149  CG        15.4190    1.2590   23.9270 C.3   156  LEU156      0.0022
    150  CD1       14.0220    0.9350   24.4470 C.3   156  LEU156      0.0001
    151  CD2       16.0250    0.0720   23.1720 C.3   156  LEU156      0.0001
    152  N         16.1460    4.1060   20.6270 N.am  157  ALA157     -0.1977
    153  CA        15.6860    5.1850   19.7190 C.3   157  ALA157      0.1597
    154  C         14.2970    5.6120   20.1490 C.2   157  ALA157      0.2287
    155  O         13.6120    4.8580   20.8010 O.2   157  ALA157     -0.2864
    156  CB        15.6930    4.7150   18.2660 C.3   157  ALA157      0.0319
    157  N         11.3260   -1.0440   16.0670 N.3   164  PRO164     -0.2102
    158  CA        11.6320   -2.0570   17.0810 C.3   164  PRO164      0.1504
    159  C         11.7160   -1.5100   18.5190 C.2   164  PRO164      0.2576
    160  O         11.9860   -2.2960   19.4540 O.2   164  PRO164     -0.2718
    161  CB        13.0080   -2.5590   16.6280 C.3   164  PRO164      0.0282
    162  CG        13.6660   -1.3230   16.0660 C.3   164  PRO164      0.0208
    163  CD        12.5620   -0.4360   15.5280 C.3   164  PRO164      0.0893
    164  N         11.5300   -0.1910   18.6950 N.am  165  CYS165     -0.1971
    165  CA        11.6600    0.4640   20.0170 C.3   165  CYS165      0.1712
    166  C         10.3380    0.8620   20.6420 C.2   165  CYS165      0.2296
    167  O         10.2670    0.9770   21.8660 O.2   165  CYS165     -0.2864
    168  CB        12.5080    1.7260   19.8920 C.3   165  CYS165      0.0983
    169  SG        14.1300    1.4670   19.1410 S.3   165  CYS165     -0.0798
    170  N          8.7700   -0.6200   23.8770 N.3   168  LEU168     -0.1245
    171  CA         9.5350   -0.4800   25.1250 C.3   168  LEU168      0.1561
    172  C          9.3120    0.8820   25.8050 C.2   168  LEU168      0.2260
    173  O         10.0200    1.2260   26.7690 O.2   168  LEU168     -0.2867
    174  CB        11.0340   -0.7250   24.8470 C.3   168  LEU168      0.0270
    175  CG        11.4710   -2.1780   24.6400 C.3   168  LEU168      0.0019
    176  CD1       10.7750   -2.8510   23.4830 C.3   168  LEU168      0.0001
    177  CD2       12.9710   -2.2700   24.4470 C.3   168  LEU168      0.0001
    178  N         16.2170    7.6330   27.9730 N.3   191  GLN191     -0.1245
    179  CA        16.2720    8.7110   26.9840 C.3   191  GLN191      0.1566
    180  C         14.8170    8.9810   26.5200 C.2   191  GLN191      0.2260
    181  O         13.9360    8.0700   26.5220 O.2   191  GLN191     -0.2867
    182  CB        17.2260    8.3790   25.8340 C.3   191  GLN191      0.0367
    183  CG        16.6750    7.5530   24.6480 C.3   191  GLN191      0.0905
    184  CD        15.9320    8.4260   23.5950 C.2   191  GLN191      0.2608
    185  OE1       16.4700    9.4040   23.1390 O.2   191  GLN191     -0.2717
    186  NE2       14.7060    8.0960   23.2750 N.am  191  GLN191     -0.0878
    187  N         22.6210   16.6730   17.8520 N.3   228  TYR228     -0.1241
    188  CA        21.2220   16.3030   17.7370 C.3   228  TYR228      0.1605
    189  C         20.3900   17.4860   17.2910 C.2   228  TYR228      0.2264
    190  O         19.2020   17.3040   17.0640 O.2   228  TYR228     -0.2867
    191  CB        20.6740   15.7850   19.0770 C.3   228  TYR228      0.0534
    192  CG        21.0660   14.3870   19.4950 C.ar  228  TYR228     -0.0201
    193  CD1       22.0800   13.6520   18.8530 C.ar  228  TYR228     -0.0009
    194  CD2       20.4320   13.7910   20.5770 C.ar  228  TYR228     -0.0009
    195  CE1       22.4160   12.3780   19.2830 C.ar  228  TYR228      0.0417
    196  CE2       20.7440   12.5130   20.9970 C.ar  228  TYR228      0.0417
    197  CZ        21.7310   11.8030   20.3530 C.ar  228  TYR228      0.1957
    198  OH        22.0540   10.5220   20.8000 O.3   228  TYR228     -0.2866
    199  N         17.7840   17.8400   24.2910 N.3   232  TRP232     -0.1241
    200  CA        17.3260   16.4590   24.4280 C.3   232  TRP232      0.1605
    201  C         16.8700   16.1970   25.8490 C.2   232  TRP232      0.2264
    202  O         17.3670   16.7970   26.7960 O.2   232  TRP232     -0.2867
    203  CB        18.4460   15.5020   24.0820 C.3   232  TRP232      0.0550
    204  CG        17.9920   14.2630   23.4570 C.ar  232  TRP232      0.0003
    205  CD1       17.9500   13.0210   24.0160 C.ar  232  TRP232      0.0946
    206  CD2       17.4630   14.1440   22.1600 C.ar  232  TRP232      0.0152
    207  NE1       17.4840   12.1220   23.1170 N.ar  232  TRP232     -0.2442
    208  CE2       17.1730   12.7810   21.9570 C.ar  232  TRP232      0.0810
    209  CE3       17.2310   15.0610   21.1230 C.ar  232  TRP232      0.0012
    210  CZ2       16.6380   12.3020   20.7700 C.ar  232  TRP232      0.0191
    211  CZ3       16.7290   14.5780   19.9160 C.ar  232  TRP232      0.0001
    212  CH2       16.4230   13.1950   19.7650 C.ar  232  TRP232      0.0015
@<TRIPOS>BOND
     1     4     3    2
     2     3     2    1
     3     2     1    1
     4     2     5    1
     5    20    21    2
     6    20    19    1
     7     5     6    1
     8    19    18    1
     9    19    22    1
    10     6     7    1
    11    22    23    1
    12   107   105   ar
    13    25    23    1
    14    12    11    1
    15    12    13    2
    16     7     8    2
    17     7     9   am
    18   106   105   ar
    19    11    10    1
    20    11    14    1
    21    23    24    1
    22   105   104    1
    23    16    15    1
    24   108   109    1
    25    15    14    1
    26    15    17    1
    27   114   112    1
    28   163   162    1
    29   163   157    1
    30   109   112    1
    31   109   110    1
    32    26    27    1
    33   104   101    1
    34   162   161    1
    35   157   158    1
    36    31    30    1
    37    31    32    1
    38   112   113    1
    39   161   158    1
    40    34    32   am
    41   101   102    1
    42   101   100    1
    43   110   111    2
    44   102   103    2
    45   190   189    2
    46   158   159    1
    47    30    27    1
    48    27    28    1
    49    32    33    2
    50   189   188    1
    51    95    94    2
    52   188   187    1
    53   188   191    1
    54   100    94   am
    55    98    96    1
    56    28    29    2
    57    94    93    1
    58    99    97    1
    59   156   153    1
    60    97    96    1
    61   159   164   am
    62   159   160    2
    63   164   165    1
    64   193   195   ar
    65   193   192   ar
    66    96    93    1
    67   191   192    1
    68   169   168    1
    69   195   197   ar
    70    93    92    1
    71   192   194   ar
    72    90    89   ar
    73   153   154    1
    74   153   152    1
    75   212   211   ar
    76   212   210   ar
    77   168   165    1
    78   211   209   ar
    79   165   166    1
    80   154   155    2
    81   197   198    1
    82   197   196   ar
    83    92    86   am
    84    74    73    1
    85    74    75    1
    86   194   196   ar
    87    89    91   ar
    88    89    88    1
    89   152   146   am
    90   166   167    2
    91    73    70    1
    92   210   208   ar
    93    70    69    1
    94    70    71    1
    95    68    67    2
    96    69    67   am
    97    67    66    1
    98   209   206   ar
    99    87    86    2
   100    86    85    1
   101   127   128    1
   102   127   124    1
   103    66    65    1
   104    88    85    1
   105    76    75   ar
   106   123   117   am
   107   123   124    1
   108    72    71    2
   109    75    77   ar
   110   146   147    2
   111   146   145    1
   112   208   206   ar
   113   208   207   ar
   114   128   129   ar
   115   128   130   ar
   116   115   116    1
   117   117   116    1
   118   117   118    2
   119   124   125    1
   120   116   119    1
   121   206   204   ar
   122    85    84    1
   123   121   120    2
   124    65    63   am
   125   145   148    1
   126   145   144    1
   127   148   149    1
   128   207   205   ar
   129   185   184    2
   130   151   149    1
   131   120   119    1
   132   120   122   am
   133   186   184   am
   134   139   138    2
   135    84    80   am
   136   204   205   ar
   137   204   203    1
   138   176   175    1
   139   125   131   am
   140   125   126    2
   141    63    64    2
   142    63    62    1
   143   184   183    1
   144    58    59    1
   145    58    57    1
   146   170   171    1
   147   149   150    1
   148    55    56   ar
   149    55    53   ar
   150   144   138   am
   151    61    59   am
   152    61    62    1
   153   203   200    1
   154   131   132    1
   155    59    60    2
   156   138   137    1
   157   199   200    1
   158   200   201    1
   159    43    41   ar
   160    43    45   ar
   161   177   175    1
   162    41    40   ar
   163    56    54   ar
   164    46    45    1
   165    80    81    2
   166    80    79    1
   167   142   141   ar
   168   175   174    1
   169    45    44   ar
   170   183   182    1
   171    40    39    1
   172    40    42   ar
   173    39    36    1
   174   174   171    1
   175    53    52   ar
   176    44    42   ar
   177   171   172    1
   178   141   143   ar
   179   141   140    1
   180   132   135    1
   181   132   133    1
   182   137   140    1
   183   137   136    1
   184    83    82    1
   185   172   173    2
   186    79    78    1
   187    79    82    1
   188   182   179    1
   189   201   202    2
   190    54    52   ar
   191    52    51    1
   192   133   134    2
   193    36    35    1
   194    36    37    1
   195   180   181    2
   196   180   179    1
   197   179   178    1
   198    37    47   am
   199    37    38    2
   200    47    48    1
   201    51    48    1
   202    48    49    1
   203    49    50    2
