@<TRIPOS>MOLECULE
tmp/6bq4B01.pdb
 118 117 0 0 0
SMALL
GASTEIGER

@<TRIPOS>ATOM
      1  N         22.0130   37.0280    7.7130 N.3    50  LYS50      -0.1231
      2  CA        22.0120   36.3590    9.0270 C.3    50  LYS50       0.1693
      3  C         20.6530   36.5450    9.6270 C.2    50  LYS50       0.2592
      4  O         20.1200   37.6720    9.6810 O.2    50  LYS50      -0.2718
      5  CB        23.0070   36.9340    9.9900 C.3    50  LYS50       0.0285
      6  CG        24.2850   37.4110    9.3750 C.3    50  LYS50       0.0035
      7  CD        25.0320   36.2860    8.7150 C.3    50  LYS50       0.0206
      8  CE        26.5140   36.6090    8.5890 C.3    50  LYS50       0.1093
      9  NZ        27.2100   35.3980    8.0510 N.3    50  LYS50      -0.1314
     10  N         20.0820   35.4430   10.0670 N.am   51  LEU51      -0.1966
     11  CA        18.8150   35.4630   10.7360 C.3    51  LEU51       0.1728
     12  C         18.9190   36.2700   12.0590 C.2    51  LEU51       0.2616
     13  O         19.9160   36.1630   12.8020 O.2    51  LEU51      -0.2715
     14  CB        18.4120   34.0380   11.0180 C.3    51  LEU51       0.0311
     15  CG        17.2080   33.8420   11.8960 C.3    51  LEU51       0.0022
     16  CD1       15.9760   33.9620   11.1180 C.3    51  LEU51       0.0001
     17  CD2       17.2970   32.4630   12.5020 C.3    51  LEU51       0.0001
     18  N         17.9350   37.1290   12.2910 N.am   52  GLN52      -0.1963
     19  CA        17.8760   37.9600   13.5000 C.3    52  GLN52       0.1733
     20  C         16.6880   37.6410   14.3580 C.2    52  GLN52       0.2617
     21  O         16.8150   37.5820   15.5840 O.2    52  GLN52      -0.2715
     22  CB        17.7590   39.4460   13.1720 C.3    52  GLN52       0.0408
     23  CG        18.8370   39.9750   12.2880 C.3    52  GLN52       0.0908
     24  CD        20.2040   39.8660   12.9030 C.2    52  GLN52       0.2608
     25  OE1       20.3720   40.0390   14.1100 O.2    52  GLN52      -0.2717
     26  NE2       21.1800   39.4930   12.0860 N.am   52  GLN52      -0.0878
     27  N         15.5350   37.4660   13.7480 N.am   53  SER53      -0.1950
     28  CA        14.2860   37.3570   14.5130 C.3    53  SER53       0.1924
     29  C         13.3920   36.3750   13.7990 C.2    53  SER53       0.2314
     30  O         13.0650   36.6410   12.6500 O.2    53  SER53      -0.2863
     31  CB        13.6350   38.7510   14.4770 C.3    53  SER53       0.2116
     32  OG        12.5030   38.8430   15.3040 O.3    53  SER53      -0.2180
     33  N         14.5350   35.4940   22.8500 N.3    61  TYR61      -0.1227
     34  CA        15.6500   36.4550   22.8360 C.3    61  TYR61       0.1736
     35  C         15.2080   37.7690   23.4940 C.2    61  TYR61       0.2595
     36  O         15.9270   38.3710   24.2720 O.2    61  TYR61      -0.2718
     37  CB        16.1480   36.6890   21.4020 C.3    61  TYR61       0.0548
     38  CG        17.1780   37.8300   21.2870 C.ar   61  TYR61      -0.0200
     39  CD1       16.7600   39.0940   21.0750 C.ar   61  TYR61      -0.0009
     40  CD2       18.5040   37.6060   21.3910 C.ar   61  TYR61      -0.0009
     41  CE1       17.6550   40.1550   21.0240 C.ar   61  TYR61       0.0417
     42  CE2       19.4220   38.6650   21.2650 C.ar   61  TYR61       0.0417
     43  CZ        18.9690   39.9080   21.1100 C.ar   61  TYR61       0.1957
     44  OH        19.8000   40.9840   20.9940 O.3    61  TYR61      -0.2866
     45  N         14.0290   38.2420   23.1160 N.am   62  HIS62      -0.1975
     46  CA        13.6440   39.5960   23.5470 C.3    62  HIS62       0.1656
     47  C         13.2020   39.6650   25.0070 C.2    62  HIS62       0.2291
     48  O         13.4800   40.6600   25.6610 O.2    62  HIS62      -0.2864
     49  CB        12.6350   40.2020   22.5690 C.3    62  HIS62       0.0771
     50  CG        13.2500   40.4930   21.2430 C.ar   62  HIS62       0.0820
     51  ND1       12.9240   39.8010   20.0970 N.ar   62  HIS62      -0.2267
     52  CD2       14.2070   41.3830   20.8950 C.ar   62  HIS62       0.1154
     53  CE1       13.6730   40.2540   19.1030 C.ar   62  HIS62       0.1986
     54  NE2       14.4460   41.2280   19.5570 N.ar   62  HIS62      -0.2212
     55  N         21.2520   46.1120   22.0040 N.3   155  ASP155     -0.1225
     56  CA        20.6070   45.1950   21.0340 C.3   155  ASP155      0.1805
     57  C         21.3150   45.2920   19.6740 C.2   155  ASP155      0.2598
     58  O         20.6940   45.4360   18.6210 O.2   155  ASP155     -0.2718
     59  CB        19.1360   45.5710   20.9300 C.3   155  ASP155      0.1424
     60  CG        18.2620   44.5020   20.3420 C.2   155  ASP155      0.3668
     61  OD1       18.7360   43.3570   20.1480 O.co2 155  ASP155     -0.2456
     62  OD2       17.0420   44.7880   20.1080 O.co2 155  ASP155     -0.2456
     63  N         22.6480   45.2720   19.7200 N.am  156  LEU156     -0.1966
     64  CA        23.4970   45.4560   18.5560 C.3   156  LEU156      0.1728
     65  C         23.9490   44.1140   17.9850 C.2   156  LEU156      0.2616
     66  O         23.7320   43.0660   18.5840 O.2   156  LEU156     -0.2715
     67  CB        24.7510   46.2580   18.9580 C.3   156  LEU156      0.0311
     68  CG        24.4420   47.6770   19.3880 C.3   156  LEU156      0.0022
     69  CD1       25.6830   48.2950   20.0400 C.3   156  LEU156      0.0001
     70  CD2       23.9030   48.5330   18.2290 C.3   156  LEU156      0.0001
     71  N         24.5880   44.1630   16.8080 N.am  157  ALA157     -0.1963
     72  CA        25.3420   42.9880   16.3080 C.3   157  ALA157      0.1728
     73  C         26.5840   42.7470   17.1930 C.2   157  ALA157      0.2616
     74  O         26.9870   43.6190   17.9600 O.2   157  ALA157     -0.2715
     75  CB        25.7240   43.1400   14.8210 C.3   157  ALA157      0.0334
     76  N         27.1360   41.5530   17.0800 N.am  158  ASP158     -0.1971
     77  CA        28.3800   41.1560   17.7610 C.3   158  ASP158      0.1709
     78  C         29.5440   42.0770   17.4360 C.2   158  ASP158      0.2293
     79  O         29.5650   42.6960   16.3810 O.2   158  ASP158     -0.2864
     80  CB        28.7680   39.7480   17.3820 C.3   158  ASP158      0.1436
     81  CG        27.8030   38.7200   17.9030 C.2   158  ASP158      0.3671
     82  OD1       27.0020   39.0430   18.7920 O.co2 158  ASP158     -0.2456
     83  OD2       27.8290   37.5730   17.4230 O.co2 158  ASP158     -0.2456
     84  N         23.2160   42.1390   24.6730 N.3   191  GLN191     -0.1245
     85  CA        23.3300   40.8730   23.9820 C.3   191  GLN191      0.1566
     86  C         24.8320   40.6060   23.9300 C.2   191  GLN191      0.2260
     87  O         25.6640   41.5330   23.8880 O.2   191  GLN191     -0.2867
     88  CB        22.6150   40.9390   22.5960 C.3   191  GLN191      0.0367
     89  CG        23.3690   41.4810   21.3970 C.3   191  GLN191      0.0905
     90  CD        24.3850   40.5020   20.8520 C.2   191  GLN191      0.2608
     91  OE1       24.1180   39.2980   20.8460 O.2   191  GLN191     -0.2717
     92  NE2       25.6040   41.0040   20.4560 N.am  191  GLN191     -0.0878
     93  N         18.3220   29.9420   16.1820 N.3   228  TYR228     -0.1241
     94  CA        19.7210   30.3490   16.0030 C.3   228  TYR228      0.1605
     95  C         20.6250   29.1430   16.0130 C.2   228  TYR228      0.2264
     96  O         21.8280   29.3040   15.9070 O.2   228  TYR228     -0.2867
     97  CB        20.2060   31.2580   17.1060 C.3   228  TYR228      0.0534
     98  CG        19.6460   32.6590   17.2180 C.ar  228  TYR228     -0.0201
     99  CD1       18.5600   33.1160   16.4650 C.ar  228  TYR228     -0.0009
    100  CD2       20.2350   33.5330   18.0770 C.ar  228  TYR228     -0.0009
    101  CE1       18.0820   34.4230   16.6040 C.ar  228  TYR228      0.0417
    102  CE2       19.7850   34.8120   18.2390 C.ar  228  TYR228      0.0417
    103  CZ        18.7100   35.2740   17.5140 C.ar  228  TYR228      0.1957
    104  OH        18.2690   36.5660   17.7650 O.3   228  TYR228     -0.2866
    105  N         22.2940   31.3930   23.1930 N.3   232  TRP232     -0.1241
    106  CA        22.6220   32.8170   23.1120 C.3   232  TRP232      0.1605
    107  C         22.9210   33.4290   24.4760 C.2   232  TRP232      0.2264
    108  O         22.4180   32.9830   25.4970 O.2   232  TRP232     -0.2867
    109  CB        21.5170   33.6010   22.3730 C.3   232  TRP232      0.0550
    110  CG        22.1420   34.7450   21.5910 C.ar  232  TRP232      0.0003
    111  CD1       22.1070   36.0760   21.8960 C.ar  232  TRP232      0.0946
    112  CD2       22.9040   34.6170   20.4170 C.ar  232  TRP232      0.0152
    113  NE1       22.8500   36.8040   20.9720 N.ar  232  TRP232     -0.2442
    114  CE2       23.3370   35.9200   20.0440 C.ar  232  TRP232      0.0810
    115  CE3       23.3160   33.5220   19.6570 C.ar  232  TRP232      0.0012
    116  CZ2       24.1660   36.1370   18.9520 C.ar  232  TRP232      0.0191
    117  CZ3       24.1300   33.7330   18.5760 C.ar  232  TRP232      0.0001
    118  CH2       24.5660   35.0310   18.2290 C.ar  232  TRP232      0.0015
@<TRIPOS>BOND
     1     1     2    1
     2     9     8    1
     3     8     7    1
     4     7     6    1
     5     2     3    1
     6     2     5    1
     7     6     5    1
     8     3     4    2
     9     3    10   am
    10    10    11    1
    11    11    14    1
    12    11    12    1
    13    14    15    1
    14    16    15    1
    15    15    17    1
    16    12    18   am
    17    12    13    2
    18    26    24   am
    19    23    24    1
    20    23    22    1
    21    18    19    1
    22    30    29    2
    23    24    25    2
    24    22    19    1
    25    19    20    1
    26    27    20   am
    27    27    28    1
    28    29    28    1
    29    20    21    2
    30    31    28    1
    31    31    32    1
    32    75    72    1
    33    96    95    2
    34    94    95    1
    35    94    93    1
    36    94    97    1
    37    72    71    1
    38    72    73    1
    39    79    78    2
    40    99   101   ar
    41    99    98   ar
    42   101   103   ar
    43    71    65   am
    44    76    73   am
    45    76    77    1
    46    97    98    1
    47    73    74    2
    48    98   100   ar
    49    80    77    1
    50    80    81    1
    51    83    81   ar
    52    78    77    1
    53   103   104    1
    54   103   102   ar
    55    81    82   ar
    56    65    64    1
    57    65    66    2
    58   100   102   ar
    59   118   117   ar
    60   118   116   ar
    61    70    68    1
    62    64    67    1
    63    64    63    1
    64   117   115   ar
    65    58    57    2
    66   116   114   ar
    67    67    68    1
    68    53    54   ar
    69    53    51   ar
    70    68    69    1
    71    54    52   ar
    72   115   112   ar
    73    57    63   am
    74    57    56    1
    75   114   112   ar
    76   114   113   ar
    77    51    50   ar
    78    62    60   ar
    79    61    60   ar
    80    60    59    1
    81   112   110   ar
    82    92    90   am
    83    91    90    2
    84    90    89    1
    85    52    50   ar
    86    59    56    1
    87   113   111   ar
    88    44    43    1
    89    41    39   ar
    90    41    43   ar
    91    56    55    1
    92    39    38   ar
    93    43    42   ar
    94    50    49    1
    95    42    40   ar
    96    38    40   ar
    97    38    37    1
    98    89    88    1
    99    37    34    1
   100   110   111   ar
   101   110   109    1
   102   109   106    1
   103    49    46    1
   104    88    85    1
   105    34    33    1
   106    34    35    1
   107   106   105    1
   108   106   107    1
   109    45    35   am
   110    45    46    1
   111    35    36    2
   112    46    47    1
   113    87    86    2
   114    86    85    1
   115    85    84    1
   116   107   108    2
   117    47    48    2
