@<TRIPOS>MOLECULE
tmp/6bq4A00.pdb
 156 147 0 0 0
SMALL
GASTEIGER

@<TRIPOS>ATOM
      1  N         19.6120   -1.9840   11.7070 N.3    31  GLN31      -0.1245
      2  CA        19.9320   -0.6280   11.2660 C.3    31  GLN31       0.1566
      3  C         21.1870   -0.5480   10.3800 C.2    31  GLN31       0.2260
      4  O         22.0170   -1.4340   10.3500 O.2    31  GLN31      -0.2867
      5  CB        20.0070    0.3530   12.5010 C.3    31  GLN31       0.0367
      6  CG        20.9430   -0.0890   13.6440 C.3    31  GLN31       0.0905
      7  CD        20.4260    0.1970   15.0640 C.2    31  GLN31       0.2608
      8  OE1       19.8020    1.2390   15.3200 O.2    31  GLN31      -0.2717
      9  NE2       20.7220   -0.7390   16.0180 N.am   31  GLN31      -0.0878
     10  N         23.1540    6.1500   12.7010 N.3    47  LEU47      -0.1245
     11  CA        22.3840    4.9350   12.6450 C.3    47  LEU47       0.1561
     12  C         21.1080    5.2230   11.8950 C.2    47  LEU47       0.2260
     13  O         20.4330    6.1890   12.2080 O.2    47  LEU47      -0.2867
     14  CB        22.0550    4.4140   14.0720 C.3    47  LEU47       0.0270
     15  CG        23.3030    4.0930   14.9430 C.3    47  LEU47       0.0019
     16  CD1       22.9340    3.6070   16.3390 C.3    47  LEU47       0.0001
     17  CD2       24.1860    3.0570   14.2510 C.3    47  LEU47       0.0001
     18  N         23.8420    9.8130   16.0770 N.3    52  GLN52      -0.1245
     19  CA        23.7870    9.3970   17.4790 C.3    52  GLN52       0.1566
     20  C         24.7740   10.1270   18.3550 C.2    52  GLN52       0.2260
     21  O         24.4060   10.6150   19.4240 O.2    52  GLN52      -0.2867
     22  CB        24.0860    7.8970   17.6070 C.3    52  GLN52       0.0367
     23  CG        23.1870    7.0630   16.7310 C.3    52  GLN52       0.0905
     24  CD        21.7240    7.3020   17.0140 C.2    52  GLN52       0.2608
     25  OE1       21.3080    7.2460   18.1450 O.2    52  GLN52      -0.2717
     26  NE2       20.9480    7.5540   15.9820 N.am   52  GLN52      -0.0878
     27  N         20.7350   -0.8180   26.3060 N.3    83  GLY83      -0.1210
     28  CA        21.2110   -0.2610   25.0730 C.3    83  GLY83       0.1956
     29  C         22.6930    0.0070   25.3040 C.2    83  GLY83       0.2612
     30  O         23.4270   -0.8250   25.9010 O.2    83  GLY83      -0.2717
     31  N         23.1480    1.1560   24.8250 N.am   84  GLY84      -0.1942
     32  CA        24.5190    1.5650   25.1150 C.3    84  GLY84       0.2014
     33  C         25.6120    0.8980   24.3240 C.2    84  GLY84       0.2639
     34  O         26.7750    0.9660   24.7300 O.2    84  GLY84      -0.2714
     35  N         25.2670    0.2900   23.1810 N.am   85  GLY85      -0.1939
     36  CA        26.2610   -0.3600   22.3000 C.3    85  GLY85       0.2014
     37  C         27.4000    0.5370   21.8290 C.2    85  GLY85       0.2638
     38  O         28.5100    0.0770   21.5270 O.2    85  GLY85      -0.2714
     39  N         27.1500    1.8220   21.8150 N.am   86  GLU86      -0.1977
     40  CA        28.1280    2.7940   21.4400 C.3    86  GLU86       0.1602
     41  C         29.3300    2.8120   22.4110 C.2    86  GLU86       0.2287
     42  O         30.4790    3.1250   22.0050 O.2    86  GLU86      -0.2864
     43  CB        27.3800    4.1540   21.2440 C.3    86  GLU86       0.0415
     44  CG        28.2310    5.3680   20.8890 C.3    86  GLU86       0.1163
     45  CD        28.7070    6.1830   22.0970 C.2    86  GLU86       0.3649
     46  OE1       28.4940    5.7420   23.2440 O.co2  86  GLU86      -0.2457
     47  OE2       29.2870    7.2840   21.8920 O.co2  86  GLU86      -0.2457
     48  N         23.5190   -4.1870   27.9890 N.3   105  CYS105     -0.1221
     49  CA        22.5760   -5.0740   27.2900 C.3   105  CYS105      0.1808
     50  C         21.9820   -4.4280   26.0680 C.2   105  CYS105      0.2601
     51  O         20.9840   -3.6910   26.1820 O.2   105  CYS105     -0.2717
     52  CB        21.4540   -5.5210   28.2050 C.3   105  CYS105      0.0970
     53  SG        20.2930   -6.6520   27.3910 S.3   105  CYS105     -0.0800
     54  N         22.6340   -4.6450   24.9170 N.am  106  ASP106     -0.1959
     55  CA        22.2340   -4.0490   23.6140 C.3   106  ASP106      0.1840
     56  C         21.7550   -5.1540   22.6950 C.2   106  ASP106      0.2622
     57  O         22.4090   -6.1860   22.5770 O.2   106  ASP106     -0.2715
     58  CB        23.4110   -3.3140   22.9540 C.3   106  ASP106      0.1450
     59  CG        22.9470   -2.2510   21.9530 C.2   106  ASP106      0.3671
     60  OD1       22.3580   -2.6360   20.9140 O.co2 106  ASP106     -0.2456
     61  OD2       23.1460   -1.0420   22.2260 O.co2 106  ASP106     -0.2456
     62  N         20.6460   -4.9140   22.0300 N.am  107  ILE107     -0.1963
     63  CA        20.0260   -5.8880   21.1590 C.3   107  ILE107      0.1727
     64  C         20.7870   -6.1460   19.8420 C.2   107  ILE107      0.2616
     65  O         20.5490   -7.1600   19.1520 O.2   107  ILE107     -0.2715
     66  CB        18.5800   -5.4550   20.8540 C.3   107  ILE107      0.0290
     67  CG1       17.7630   -6.6280   20.3280 C.3   107  ILE107      0.0022
     68  CG2       18.5270   -4.2650   19.9030 C.3   107  ILE107      0.0023
     69  CD1       16.3580   -6.2290   19.9220 C.3   107  ILE107      0.0001
     70  N         21.7000   -5.2370   19.4800 N.am  108  ASP108     -0.1971
     71  CA        22.3930   -5.3130   18.1980 C.3   108  ASP108      0.1709
     72  C         23.8920   -5.5560   18.3070 C.2   108  ASP108      0.2293
     73  O         24.6970   -4.6250   18.4970 O.2   108  ASP108     -0.2864
     74  CB        22.0980   -4.0080   17.4520 C.3   108  ASP108      0.1436
     75  CG        22.5210   -4.0390   15.9810 C.2   108  ASP108      0.3671
     76  OD1       23.3430   -4.9340   15.6010 O.co2 108  ASP108     -0.2456
     77  OD2       22.0340   -3.1710   15.2280 O.co2 108  ASP108     -0.2456
     78  N         26.2180   -3.3410   16.1840 N.3   111  VAL111     -0.1245
     79  CA        26.5240   -2.0010   16.6760 C.3   111  VAL111      0.1561
     80  C         27.6620   -2.0550   17.6700 C.2   111  VAL111      0.2260
     81  O         28.6160   -1.2350   17.5980 O.2   111  VAL111     -0.2867
     82  CB        25.2930   -1.2790   17.2440 C.3   111  VAL111      0.0252
     83  CG1       25.6870    0.0000   17.9790 C.3   111  VAL111      0.0019
     84  CG2       24.3050   -0.9490   16.1140 C.3   111  VAL111      0.0019
     85  N         20.9620   -8.8680   23.7950 N.3   136  ASN136     -0.1225
     86  CA        19.5800   -9.2740   23.9740 C.3   136  ASN136      0.1785
     87  C         18.7270   -8.0220   24.0860 C.2   136  ASN136      0.2597
     88  O         19.2400   -6.9200   24.3510 O.2   136  ASN136     -0.2718
     89  CB        19.4480  -10.1660   25.2280 C.3   136  ASN136      0.1169
     90  CG        18.0890  -10.8680   25.3350 C.2   136  ASN136      0.2627
     91  OD1       17.2970  -10.8830   24.4080 O.2   136  ASN136     -0.2716
     92  ND2       17.8140  -11.3950   26.5050 N.am  136  ASN136     -0.0877
     93  N         17.4520   -8.1660   23.7840 N.am  137  ASP137     -0.1960
     94  CA        16.4730   -7.1710   24.1450 C.3   137  ASP137      0.1840
     95  C         16.5390   -6.9870   25.6890 C.2   137  ASP137      0.2621
     96  O         16.4820   -7.9660   26.4500 O.2   137  ASP137     -0.2715
     97  CB        15.0950   -7.6280   23.6900 C.3   137  ASP137      0.1450
     98  CG        13.9720   -6.8570   24.3290 C.2   137  ASP137      0.3671
     99  OD1       14.1660   -5.6890   24.7020 O.co2 137  ASP137     -0.2456
    100  OD2       12.8830   -7.4210   24.4680 O.co2 137  ASP137     -0.2456
    101  N         16.6620   -5.7290   26.1420 N.am  138  ALA138     -0.1977
    102  CA        16.8600   -5.4510   27.5880 C.3   138  ALA138      0.1597
    103  C         15.6370   -5.8240   28.3980 C.2   138  ALA138      0.2287
    104  O         15.7690   -6.1310   29.5800 O.2   138  ALA138     -0.2864
    105  CB        17.2200   -4.0060   27.8460 C.3   138  ALA138      0.0319
    106  N         19.7060    3.9170   27.8150 N.3   155  ASP155     -0.1225
    107  CA        20.4550    4.5470   26.7160 C.3   155  ASP155      0.1805
    108  C         19.8630    4.0610   25.3970 C.2   155  ASP155      0.2598
    109  O         20.5560    3.6620   24.4880 O.2   155  ASP155     -0.2718
    110  CB        21.9310    4.2140   26.8760 C.3   155  ASP155      0.1424
    111  CG        22.8590    5.0910   26.0710 C.2   155  ASP155      0.3668
    112  OD1       22.3970    6.1480   25.5410 O.co2 155  ASP155     -0.2456
    113  OD2       24.0860    4.7370   26.0060 O.co2 155  ASP155     -0.2456
    114  N         18.5480    4.1210   25.3090 N.am  156  LEU156     -0.1966
    115  CA        17.8160    3.6750   24.1380 C.3   156  LEU156      0.1728
    116  C         17.3910    4.8170   23.2040 C.2   156  LEU156      0.2616
    117  O         17.5370    6.0050   23.5300 O.2   156  LEU156     -0.2715
    118  CB        16.5620    2.9130   24.5800 C.3   156  LEU156      0.0311
    119  CG        16.7960    1.6940   25.4750 C.3   156  LEU156      0.0022
    120  CD1       15.4880    1.2490   26.1350 C.3   156  LEU156      0.0001
    121  CD2       17.4470    0.5120   24.7580 C.3   156  LEU156      0.0001
    122  N         16.8310    4.4340   22.0480 N.am  157  ALA157     -0.1977
    123  CA        16.1700    5.3750   21.1660 C.3   157  ALA157      0.1597
    124  C         14.8830    5.9250   21.8120 C.2   157  ALA157      0.2287
    125  O         14.4190    5.4020   22.7850 O.2   157  ALA157     -0.2864
    126  CB        15.8750    4.7500   19.8070 C.3   157  ALA157      0.0319
    127  N         11.4820   -0.6760   18.1220 N.3   164  PRO164     -0.2102
    128  CA        11.9980   -1.6990   19.0480 C.3   164  PRO164      0.1504
    129  C         12.2020   -1.1800   20.5020 C.2   164  PRO164      0.2576
    130  O         12.5940   -1.9650   21.3730 O.2   164  PRO164     -0.2718
    131  CB        13.3580   -2.0750   18.4230 C.3   164  PRO164      0.0282
    132  CG        13.8030   -0.8360   17.7180 C.3   164  PRO164      0.0208
    133  CD        12.5490   -0.1220   17.2610 C.3   164  PRO164      0.0893
    134  N         11.9860    0.1260   20.7350 N.am  165  CYS165     -0.1971
    135  CA        12.2400    0.7580   22.0320 C.3   165  CYS165      0.1712
    136  C         10.9950    1.1190   22.8130 C.2   165  CYS165      0.2296
    137  O         11.0790    1.2600   24.0360 O.2   165  CYS165     -0.2864
    138  CB        13.1170    2.0080   21.8530 C.3   165  CYS165      0.0983
    139  SG        14.7750    1.5530   21.3450 S.3   165  CYS165     -0.0798
    140  N          8.4490   -0.3030   24.1310 N.3   167  LYS167     -0.1231
    141  CA         8.0380   -1.1090   25.2810 C.3   167  LYS167      0.1693
    142  C          8.8980   -0.7920   26.5200 C.2   167  LYS167      0.2591
    143  O          8.4720   -0.9890   27.6370 O.2   167  LYS167     -0.2718
    144  CB         8.1380   -2.6210   24.9880 C.3   167  LYS167      0.0285
    145  CG         7.5090   -3.1640   23.6890 C.3   167  LYS167      0.0035
    146  CD         8.1980   -4.4770   23.2520 C.3   167  LYS167      0.0206
    147  CE         9.6120   -4.2500   22.7010 C.3   167  LYS167      0.1093
    148  NZ        10.6110   -5.1770   23.2990 N.3   167  LYS167     -0.1314
    149  N         10.1150   -0.3020   26.3090 N.am  168  LEU168     -0.1980
    150  CA        11.0220    0.0570   27.4030 C.3   168  LEU168      0.1596
    151  C         10.7750    1.4610   28.0380 C.2   168  LEU168      0.2287
    152  O         11.5840    1.9410   28.8660 O.2   168  LEU168     -0.2864
    153  CB        12.4610   -0.1380   26.9150 C.3   168  LEU168      0.0297
    154  CG        12.7590   -1.6010   26.5540 C.3   168  LEU168      0.0022
    155  CD1       14.0810   -1.7810   25.8500 C.3   168  LEU168      0.0001
    156  CD2       12.8300   -2.4050   27.8180 C.3   168  LEU168      0.0001
@<TRIPOS>BOND
     1     4     3    2
     2     3     2    1
     3     2     1    1
     4     2     5    1
     5    12    13    2
     6    12    11    1
     7     5     6    1
     8    11    10    1
     9    11    14    1
    10     6     7    1
    11    14    15    1
    12    17    15    1
    13    15    16    1
    14     7     8    2
    15     7     9   am
    16    77    75   ar
    17    76    75   ar
    18    75    74    1
    19    26    24   am
    20    18    19    1
    21    84    82    1
    22    78    79    1
    23    79    82    1
    24    79    80    1
    25    23    24    1
    26    23    22    1
    27    24    25    2
    28    82    83    1
    29   133   132    1
    30   133   127    1
    31    74    71    1
    32    19    22    1
    33    19    20    1
    34    81    80    2
    35   132   131    1
    36   127   128    1
    37    71    72    1
    38    71    70    1
    39    72    73    2
    40    20    21    2
    41   131   128    1
    42   128   129    1
    43    65    64    2
    44    70    64   am
    45   126   123    1
    46    64    63    1
    47    68    66    1
    48    69    67    1
    49    67    66    1
    50   129   134   am
    51   129   130    2
    52   134   135    1
    53    66    63    1
    54    44    43    1
    55    44    45    1
    56    60    59   ar
    57    63    62    1
    58   123   124    1
    59   123   122    1
    60    43    40    1
    61   139   138    1
    62    40    39    1
    63    40    41    1
    64    38    37    2
    65   124   125    2
    66    39    37   am
    67    37    36    1
    68   138   135    1
    69    47    45   ar
    70    59    61   ar
    71    59    58    1
    72    42    41    2
    73    62    56   am
    74   135   136    1
    75   122   116   am
    76    45    46   ar
    77    36    35    1
    78    57    56    2
    79    56    55    1
    80   147   146    1
    81   147   148    1
    82   136   137    2
    83    58    55    1
    84    35    33   am
    85   116   117    2
    86   116   115    1
    87   146   145    1
    88    55    54    1
    89   145   144    1
    90    97    94    1
    91    97    98    1
    92    93    87   am
    93    93    94    1
    94    85    86    1
    95    86    87    1
    96    86    89    1
    97    87    88    2
    98   140   141    1
    99   115   118    1
   100   115   114    1
   101    94    95    1
   102    33    34    2
   103    33    32    1
   104    98   100   ar
   105    98    99   ar
   106    91    90    2
   107   109   108    2
   108   118   119    1
   109   121   119    1
   110    31    32    1
   111    31    29   am
   112    54    50   am
   113   144   141    1
   114    28    29    1
   115    28    27    1
   116    89    90    1
   117   141   142    1
   118    29    30    2
   119   114   108   am
   120    90    92   am
   121   108   107    1
   122   119   120    1
   123   112   111   ar
   124    95   101   am
   125    95    96    2
   126   155   154    1
   127   113   111   ar
   128    50    51    2
   129    50    49    1
   130   111   110    1
   131   101   102    1
   132   149   142   am
   133   149   150    1
   134   142   143    2
   135   154   153    1
   136   154   156    1
   137   107   110    1
   138   107   106    1
   139   153   150    1
   140    49    48    1
   141    49    52    1
   142    53    52    1
   143   150   151    1
   144   102   105    1
   145   102   103    1
   146   151   152    2
   147   103   104    2
