@<TRIPOS>MOLECULE
tmp/6bq4A01.pdb
 171 168 0 0 0
SMALL
GASTEIGER

@<TRIPOS>ATOM
      1  N         21.0780   16.1060    7.1860 N.3     7  GLU7       -0.1245
      2  CA        20.0270   15.3670    7.8520 C.3     7  GLU7        0.1567
      3  C         18.8530   16.3180    8.0530 C.2     7  GLU7        0.2260
      4  O         19.0650   17.4480    8.4930 O.2     7  GLU7       -0.2867
      5  CB        20.4820   14.8730    9.2070 C.3     7  GLU7        0.0388
      6  CG        19.4680   13.9510    9.8240 C.3     7  GLU7        0.1160
      7  CD        19.8810   13.3070   11.1560 C.2     7  GLU7        0.3649
      8  OE1       21.1390   13.2130   11.4540 O.co2   7  GLU7       -0.2457
      9  OE2       18.9330   12.8950   11.9160 O.co2   7  GLU7       -0.2457
     10  N         16.4120   17.0400   10.4000 N.3     9  ILE9       -0.1245
     11  CA        16.2700   16.7280   11.7890 C.3     9  ILE9        0.1561
     12  C         14.8750   17.0340   12.2770 C.2     9  ILE9        0.2260
     13  O         14.4750   16.4730   13.2600 O.2     9  ILE9       -0.2867
     14  CB        17.3770   17.3730   12.6820 C.3     9  ILE9        0.0252
     15  CG1       17.3940   18.9080   12.6180 C.3     9  ILE9        0.0019
     16  CG2       18.7490   16.8170   12.3150 C.3     9  ILE9        0.0019
     17  CD1       18.2330   19.5010   13.7240 C.3     9  ILE9        0.0001
     18  N         20.1310   20.1350    8.7120 N.3    15  TRP15      -0.1241
     19  CA        21.2710   20.4390    9.5030 C.3    15  TRP15       0.1605
     20  C         22.3950   19.7490    8.7960 C.2    15  TRP15       0.2264
     21  O         22.3220   18.5300    8.5960 O.2    15  TRP15      -0.2867
     22  CB        20.9940   19.8150   10.8770 C.3    15  TRP15       0.0550
     23  CG        21.9460   19.9780   12.0520 C.ar   15  TRP15       0.0003
     24  CD1       22.2770   18.9990   12.9110 C.ar   15  TRP15       0.0946
     25  CD2       22.5470   21.1800   12.5640 C.ar   15  TRP15       0.0152
     26  NE1       23.0760   19.4900   13.9170 N.ar   15  TRP15      -0.2442
     27  CE2       23.2620   20.8230   13.7300 C.ar   15  TRP15       0.0810
     28  CE3       22.6140   22.5010   12.1170 C.ar   15  TRP15       0.0012
     29  CZ2       24.0040   21.7390   14.4800 C.ar   15  TRP15       0.0191
     30  CZ3       23.3570   23.4170   12.8590 C.ar   15  TRP15       0.0001
     31  CH2       24.0600   23.0230   14.0240 C.ar   15  TRP15       0.0015
     32  N         20.5250    8.7580   11.0910 N.3    50  LYS50      -0.1231
     33  CA        20.2940    9.6800   12.1920 C.3    50  LYS50       0.1693
     34  C         21.5450    9.7350   13.0330 C.2    50  LYS50       0.2592
     35  O         22.0940    8.7040   13.4610 O.2    50  LYS50      -0.2718
     36  CB        19.1120    9.2250   13.0300 C.3    50  LYS50       0.0285
     37  CG        17.8350    9.1290   12.1980 C.3    50  LYS50       0.0035
     38  CD        16.5560    9.1340   13.0350 C.3    50  LYS50       0.0206
     39  CE        15.8740   10.5240   13.0470 C.3    50  LYS50       0.1093
     40  NZ        14.7510   10.7480   14.0470 N.3    50  LYS50      -0.1314
     41  N         22.0360   10.9340   13.2380 N.am   51  LEU51      -0.1966
     42  CA        23.1930   11.1170   14.0790 C.3    51  LEU51       0.1728
     43  C         22.9140   10.6160   15.5280 C.2    51  LEU51       0.2616
     44  O         21.9230   11.0300   16.1590 O.2    51  LEU51      -0.2715
     45  CB        23.5090   12.6030   14.1580 C.3    51  LEU51       0.0311
     46  CG        24.6250   12.9390   15.1130 C.3    51  LEU51       0.0022
     47  CD1       25.9480   12.4400   14.5600 C.3    51  LEU51       0.0001
     48  CD2       24.5950   14.4360   15.3660 C.3    51  LEU51       0.0001
     49  N         23.8420    9.8130   16.0770 N.am   52  GLN52      -0.1963
     50  CA        23.7870    9.3970   17.4790 C.3    52  GLN52       0.1733
     51  C         24.7740   10.1270   18.3550 C.2    52  GLN52       0.2617
     52  O         24.4060   10.6150   19.4240 O.2    52  GLN52      -0.2715
     53  CB        24.0860    7.8970   17.6070 C.3    52  GLN52       0.0408
     54  CG        23.1870    7.0630   16.7310 C.3    52  GLN52       0.0908
     55  CD        21.7240    7.3020   17.0140 C.2    52  GLN52       0.2608
     56  OE1       21.3080    7.2460   18.1450 O.2    52  GLN52      -0.2717
     57  NE2       20.9480    7.5540   15.9820 N.am   52  GLN52      -0.0878
     58  N         26.0400   10.1220   17.9660 N.am   53  SER53      -0.1950
     59  CA        27.0670   10.6410   18.8280 C.3    53  SER53       0.1924
     60  C         28.1310   11.2450   17.9950 C.2    53  SER53       0.2314
     61  O         28.5230   10.6620   17.0190 O.2    53  SER53      -0.2863
     62  CB        27.7060    9.5320   19.6420 C.3    53  SER53       0.2116
     63  OG        26.8720    9.2490   20.7110 O.3    53  SER53      -0.2180
     64  N         26.3770   14.4930   26.5190 N.3    61  TYR61      -0.1227
     65  CA        25.2400   13.5190   26.6910 C.3    61  TYR61       0.1736
     66  C         25.6140   12.4590   27.6760 C.2    61  TYR61       0.2595
     67  O         24.8320   12.0620   28.5190 O.2    61  TYR61      -0.2718
     68  CB        24.8320   12.8940   25.3480 C.3    61  TYR61       0.0548
     69  CG        23.8450   11.7400   25.4130 C.ar   61  TYR61      -0.0200
     70  CD1       24.2970   10.4780   25.5770 C.ar   61  TYR61      -0.0009
     71  CD2       22.4700   11.9140   25.2940 C.ar   61  TYR61      -0.0009
     72  CE1       23.4330    9.4010   25.6590 C.ar   61  TYR61       0.0417
     73  CE2       21.5930   10.8510   25.3850 C.ar   61  TYR61       0.0417
     74  CZ        22.1010    9.5910   25.5560 C.ar   61  TYR61       0.1957
     75  OH        21.3220    8.4300   25.6520 O.3    61  TYR61      -0.2866
     76  N         26.8450   11.9560   27.5950 N.am   62  HIS62      -0.1975
     77  CA        27.1600   10.7930   28.4350 C.3    62  HIS62       0.1656
     78  C         27.4520   11.1310   29.8990 C.2    62  HIS62       0.2291
     79  O         27.0370   10.4040   30.8040 O.2    62  HIS62      -0.2864
     80  CB        28.2410    9.9330   27.7350 C.3    62  HIS62       0.0771
     81  CG        27.7270    9.3290   26.4590 C.ar   62  HIS62       0.0820
     82  ND1       28.0950    9.7890   25.2050 N.ar   62  HIS62      -0.2267
     83  CD2       26.7870    8.3670   26.2610 C.ar   62  HIS62       0.1154
     84  CE1       27.4390    9.0810   24.2920 C.ar   62  HIS62       0.1986
     85  NE2       26.6290    8.2290   24.9050 N.ar   62  HIS62      -0.2212
     86  N         27.1500    1.8220   21.8150 N.3    86  GLU86      -0.1245
     87  CA        28.1280    2.7940   21.4400 C.3    86  GLU86       0.1567
     88  C         29.3300    2.8120   22.4110 C.2    86  GLU86       0.2260
     89  O         30.4790    3.1250   22.0050 O.2    86  GLU86      -0.2867
     90  CB        27.3800    4.1540   21.2440 C.3    86  GLU86       0.0388
     91  CG        28.2310    5.3680   20.8890 C.3    86  GLU86       0.1160
     92  CD        28.7070    6.1830   22.0970 C.2    86  GLU86       0.3649
     93  OE1       28.4940    5.7420   23.2440 O.co2  86  GLU86      -0.2457
     94  OE2       29.2870    7.2840   21.8920 O.co2  86  GLU86      -0.2457
     95  N         19.7060    3.9170   27.8150 N.3   155  ASP155     -0.1225
     96  CA        20.4550    4.5470   26.7160 C.3   155  ASP155      0.1805
     97  C         19.8630    4.0610   25.3970 C.2   155  ASP155      0.2598
     98  O         20.5560    3.6620   24.4880 O.2   155  ASP155     -0.2718
     99  CB        21.9310    4.2140   26.8760 C.3   155  ASP155      0.1424
    100  CG        22.8590    5.0910   26.0710 C.2   155  ASP155      0.3668
    101  OD1       22.3970    6.1480   25.5410 O.co2 155  ASP155     -0.2456
    102  OD2       24.0860    4.7370   26.0060 O.co2 155  ASP155     -0.2456
    103  N         18.5480    4.1210   25.3090 N.am  156  LEU156     -0.1966
    104  CA        17.8160    3.6750   24.1380 C.3   156  LEU156      0.1728
    105  C         17.3910    4.8170   23.2040 C.2   156  LEU156      0.2616
    106  O         17.5370    6.0050   23.5300 O.2   156  LEU156     -0.2715
    107  CB        16.5620    2.9130   24.5800 C.3   156  LEU156      0.0311
    108  CG        16.7960    1.6940   25.4750 C.3   156  LEU156      0.0022
    109  CD1       15.4880    1.2490   26.1350 C.3   156  LEU156      0.0001
    110  CD2       17.4470    0.5120   24.7580 C.3   156  LEU156      0.0001
    111  N         16.8310    4.4340   22.0480 N.am  157  ALA157     -0.1963
    112  CA        16.1700    5.3750   21.1660 C.3   157  ALA157      0.1728
    113  C         14.8830    5.9250   21.8120 C.2   157  ALA157      0.2616
    114  O         14.4190    5.4020   22.7850 O.2   157  ALA157     -0.2715
    115  CB        15.8750    4.7500   19.8070 C.3   157  ALA157      0.0334
    116  N         14.3120    6.9550   21.2230 N.am  158  ASP158     -0.1971
    117  CA        13.0840    7.5500   21.6810 C.3   158  ASP158      0.1709
    118  C         11.9150    6.5700   21.5060 C.2   158  ASP158      0.2293
    119  O         11.9300    5.7610   20.5890 O.2   158  ASP158     -0.2864
    120  CB        12.7660    8.8130   20.8780 C.3   158  ASP158      0.1436
    121  CG        13.6070   10.0260   21.3050 C.2   158  ASP158      0.3671
    122  OD1       14.5180    9.8780   22.1660 O.co2 158  ASP158     -0.2456
    123  OD2       13.3550   11.1200   20.7810 O.co2 158  ASP158     -0.2456
    124  N         17.5940    8.4250   29.3060 N.3   191  GLN191     -0.1245
    125  CA        17.4960    9.4850   28.2600 C.3   191  GLN191      0.1566
    126  C         16.0070    9.7350   27.9480 C.2   191  GLN191      0.2260
    127  O         15.2060    8.8400   28.0320 O.2   191  GLN191     -0.2867
    128  CB        18.3030    9.1140   26.9730 C.3   191  GLN191      0.0367
    129  CG        17.6060    8.2330   25.9230 C.3   191  GLN191      0.0905
    130  CD        16.7100    9.0670   24.9910 C.2   191  GLN191      0.2608
    131  OE1       17.0320   10.2110   24.7100 O.2   191  GLN191     -0.2717
    132  NE2       15.6000    8.4820   24.4890 N.am  191  GLN191     -0.0878
    133  N         14.1780   14.9050   23.0110 N.3   194  PRO194     -0.2116
    134  CA        14.3130   16.3340   22.8560 C.3   194  PRO194      0.1372
    135  C         13.6790   17.0780   24.0190 C.2   194  PRO194      0.2244
    136  O         12.6130   16.7160   24.4290 O.2   194  PRO194     -0.2868
    137  CB        13.5430   16.6130   21.5770 C.3   194  PRO194      0.0268
    138  CG        13.5710   15.3420   20.7940 C.3   194  PRO194      0.0207
    139  CD        13.5050   14.2890   21.8450 C.3   194  PRO194      0.0892
    140  N         25.6460   19.2670   18.5110 N.3   227  SER227     -0.1202
    141  CA        25.5450   18.4880   17.3170 C.3   227  SER227      0.2020
    142  C         24.1290   18.0200   17.0640 C.2   227  SER227      0.2618
    143  O         23.8330   17.6730   15.9410 O.2   227  SER227     -0.2717
    144  CB        26.4750   17.2630   17.3250 C.3   227  SER227      0.2103
    145  OG        26.1050   16.4350   18.3590 O.3   227  SER227     -0.2182
    146  N         23.2760   18.0360   18.0730 N.am  228  TYR228     -0.1975
    147  CA        21.8570   17.7340   17.8900 C.3   228  TYR228      0.1639
    148  C         21.0290   18.9550   17.5500 C.2   228  TYR228      0.2290
    149  O         19.8140   18.8350   17.2920 O.2   228  TYR228     -0.2864
    150  CB        21.3040   17.1690   19.1510 C.3   228  TYR228      0.0560
    151  CG        21.7380   15.7960   19.5280 C.ar  228  TYR228     -0.0198
    152  CD1       22.7070   15.0770   18.8170 C.ar  228  TYR228     -0.0009
    153  CD2       21.1840   15.2200   20.6540 C.ar  228  TYR228     -0.0009
    154  CE1       23.0650   13.8070   19.2260 C.ar  228  TYR228      0.0417
    155  CE2       21.5520   13.9600   21.0890 C.ar  228  TYR228      0.0417
    156  CZ        22.4740   13.2550   20.3850 C.ar  228  TYR228      0.1957
    157  OH        22.8130   12.0290   20.8730 O.3   228  TYR228     -0.2866
    158  N         18.5310   18.4270   24.9930 N.3   232  TRP232     -0.1241
    159  CA        18.1700   17.0130   25.1900 C.3   232  TRP232      0.1605
    160  C         17.8620   16.7940   26.6740 C.2   232  TRP232      0.2264
    161  O         18.3660   17.5210   27.5370 O.2   232  TRP232     -0.2867
    162  CB        19.3660   16.1020   24.7220 C.3   232  TRP232      0.0550
    163  CG        18.8840   14.8110   24.2590 C.ar  232  TRP232      0.0003
    164  CD1       18.8780   13.6400   24.9460 C.ar  232  TRP232      0.0946
    165  CD2       18.2050   14.5700   23.0390 C.ar  232  TRP232      0.0152
    166  NE1       18.2690   12.6420   24.2020 N.ar  232  TRP232     -0.2442
    167  CE2       17.8780   13.1800   23.0110 C.ar  232  TRP232      0.0810
    168  CE3       17.8670   15.3750   21.9400 C.ar  232  TRP232      0.0012
    169  CZ2       17.2260   12.5980   21.9420 C.ar  232  TRP232      0.0191
    170  CZ3       17.2380   14.7840   20.8540 C.ar  232  TRP232      0.0001
    171  CH2       16.9120   13.4020   20.8710 C.ar  232  TRP232      0.0015
@<TRIPOS>BOND
     1     1     2    1
     2     2     3    1
     3     2     5    1
     4     3     4    2
     5    21    20    2
     6    18    19    1
     7    20    19    1
     8     5     6    1
     9    19    22    1
    10     6     7    1
    11    10    11    1
    12    22    23    1
    13    32    33    1
    14     7     8   ar
    15     7     9   ar
    16    11    12    1
    17    11    14    1
    18    23    25   ar
    19    23    24   ar
    20    28    25   ar
    21    28    30   ar
    22    33    36    1
    23    33    34    1
    24    37    36    1
    25    37    38    1
    26    12    13    2
    27    16    14    1
    28    25    27   ar
    29    15    14    1
    30    15    17    1
    31    30    31   ar
    32    24    26   ar
    33    34    41   am
    34    34    35    2
    35    38    39    1
    36    39    40    1
    37    41    42    1
    38    27    26   ar
    39    27    29   ar
    40    31    29   ar
    41    42    45    1
    42    42    43    1
    43    45    46    1
    44    47    46    1
    45    46    48    1
    46    43    49   am
    47    43    44    2
    48   143   142    2
    49    57    55   am
    50    49    50    1
    51    54    55    1
    52    54    53    1
    53    55    56    2
    54    61    60    2
    55   142   141    1
    56   142   146   am
    57   149   148    2
    58   141   144    1
    59   141   140    1
    60   144   145    1
    61    50    53    1
    62    50    51    1
    63   148   147    1
    64   147   146    1
    65   147   150    1
    66    58    51   am
    67    58    59    1
    68    60    59    1
    69    51    52    2
    70   152   154   ar
    71   152   151   ar
    72    59    62    1
    73   150   151    1
    74   154   156   ar
    75   151   153   ar
    76    62    63    1
    77   115   112    1
    78   156   157    1
    79   156   155   ar
    80   119   118    2
    81   153   155   ar
    82   123   121   ar
    83   138   137    1
    84   138   139    1
    85   170   171   ar
    86   170   168   ar
    87   171   169   ar
    88   120   121    1
    89   120   117    1
    90    91    90    1
    91    91    92    1
    92   112   113    1
    93   112   111    1
    94   116   117    1
    95   116   113   am
    96    90    87    1
    97   121   122   ar
    98    87    86    1
    99    87    88    1
   100   118   117    1
   101   137   134    1
   102   113   114    2
   103   139   133    1
   104    94    92   ar
   105   168   165   ar
   106   169   167   ar
   107    89    88    2
   108   111   105   am
   109    92    93   ar
   110   134   133    1
   111   134   135    1
   112   167   165   ar
   113   167   166   ar
   114   165   163   ar
   115   105   106    2
   116   105   104    1
   117   135   136    2
   118   104   107    1
   119   104   103    1
   120   166   164   ar
   121   163   162    1
   122   163   164   ar
   123    84    85   ar
   124    84    82   ar
   125    98    97    2
   126   132   130   am
   127   107   108    1
   128   131   130    2
   129   162   159    1
   130   110   108    1
   131    85    83   ar
   132   130   129    1
   133   158   159    1
   134   159   160    1
   135    82    81   ar
   136    71    73   ar
   137    71    69   ar
   138   103    97   am
   139    68    69    1
   140    68    65    1
   141    73    74   ar
   142    97    96    1
   143    69    70   ar
   144   108   109    1
   145   101   100   ar
   146    74    75    1
   147    74    72   ar
   148    70    72   ar
   149   129   128    1
   150   102   100   ar
   151   100    99    1
   152    83    81   ar
   153    81    80    1
   154    64    65    1
   155   160   161    2
   156    65    66    1
   157    96    99    1
   158    96    95    1
   159   128   125    1
   160    76    66   am
   161    76    77    1
   162    66    67    2
   163    80    77    1
   164   126   127    2
   165   126   125    1
   166   125   124    1
   167    77    78    1
   168    78    79    2
