@<TRIPOS>MOLECULE
tmp/6bq5A01.pdb
 156 147 0 0 0
SMALL
GASTEIGER

@<TRIPOS>ATOM
      1  N         20.7810   -0.8920   12.0400 N.3    31  GLN31      -0.1245
      2  CA        21.1210    0.4270   11.5250 C.3    31  GLN31       0.1566
      3  C         22.3760    0.4770   10.6360 C.2    31  GLN31       0.2260
      4  O         23.2470   -0.4040   10.6630 O.2    31  GLN31      -0.2867
      5  CB        21.2360    1.4570   12.7000 C.3    31  GLN31       0.0367
      6  CG        22.3480    1.1540   13.7000 C.3    31  GLN31       0.0905
      7  CD        21.9190    1.2990   15.1660 C.2    31  GLN31       0.2608
      8  OE1       21.2550    2.2830   15.5470 O.2    31  GLN31      -0.2717
      9  NE2       22.3090    0.3150   15.9980 N.am   31  GLN31      -0.0878
     10  N         24.3740    7.3130   12.8650 N.3    47  LEU47      -0.1245
     11  CA        23.5820    6.0830   12.8280 C.3    47  LEU47       0.1561
     12  C         22.2560    6.3720   12.1060 C.2    47  LEU47       0.2260
     13  O         21.5360    7.3230   12.4280 O.2    47  LEU47      -0.2867
     14  CB        23.3360    5.5550   14.2530 C.3    47  LEU47       0.0270
     15  CG        24.5720    5.2330   15.1140 C.3    47  LEU47       0.0019
     16  CD1       24.1410    4.7260   16.4750 C.3    47  LEU47       0.0001
     17  CD2       25.4700    4.2130   14.4730 C.3    47  LEU47       0.0001
     18  N         25.0060   11.1790   16.1440 N.3    52  GLN52      -0.1245
     19  CA        24.9940   10.6940   17.5490 C.3    52  GLN52       0.1566
     20  C         25.9700   11.4190   18.4690 C.2    52  GLN52       0.2260
     21  O         25.5480   12.0300   19.4440 O.2    52  GLN52      -0.2867
     22  CB        25.2700    9.2110   17.6020 C.3    52  GLN52       0.0367
     23  CG        24.3430    8.3850   16.7010 C.3    52  GLN52       0.0905
     24  CD        22.8860    8.4690   17.1280 C.2    52  GLN52       0.2608
     25  OE1       22.5910    8.2730   18.2890 O.2    52  GLN52      -0.2717
     26  NE2       21.9770    8.8000   16.2080 N.am   52  GLN52      -0.0878
     27  N         22.0290    0.4800   26.2140 N.3    83  GLY83      -0.1210
     28  CA        22.6580    1.0000   25.0070 C.3    83  GLY83       0.1956
     29  C         24.1280    1.2470   25.2790 C.2    83  GLY83       0.2612
     30  O         24.8060    0.4160   25.8880 O.2    83  GLY83      -0.2717
     31  N         24.6110    2.4180   24.8850 N.am   84  GLY84      -0.1942
     32  CA        26.0140    2.7560   25.1340 C.3    84  GLY84       0.2014
     33  C         27.0500    2.0450   24.3010 C.2    84  GLY84       0.2639
     34  O         28.2640    2.0930   24.6260 O.2    84  GLY84      -0.2714
     35  N         26.6310    1.4300   23.1770 N.am   85  GLY85      -0.1939
     36  CA        27.6140    0.8620   22.2670 C.3    85  GLY85       0.2014
     37  C         28.7220    1.7960   21.8120 C.2    85  GLY85       0.2638
     38  O         29.7860    1.3350   21.4710 O.2    85  GLY85      -0.2714
     39  N         28.4530    3.0990   21.7650 N.am   86  GLU86      -0.1977
     40  CA        29.4430    4.0890   21.3700 C.3    86  GLU86       0.1602
     41  C         30.6360    4.2210   22.3180 C.2    86  GLU86       0.2287
     42  O         31.7220    4.6210   21.9150 O.2    86  GLU86      -0.2864
     43  CB        28.7060    5.4310   21.1640 C.3    86  GLU86       0.0415
     44  CG        29.5520    6.6540   20.7870 C.3    86  GLU86       0.1163
     45  CD        29.9180    7.5490   21.9780 C.2    86  GLU86       0.3649
     46  OE1       30.4410    8.6530   21.7530 O.co2  86  GLU86      -0.2457
     47  OE2       29.6620    7.1520   23.1270 O.co2  86  GLU86      -0.2457
     48  N         25.0390   -2.9850   27.9620 N.3   105  CYS105     -0.1221
     49  CA        24.1190   -3.8310   27.2290 C.3   105  CYS105      0.1808
     50  C         23.5480   -3.0920   26.0080 C.2   105  CYS105      0.2601
     51  O         22.5780   -2.3240   26.1340 O.2   105  CYS105     -0.2717
     52  CB        22.9880   -4.2830   28.1370 C.3   105  CYS105      0.0970
     53  SG        21.8570   -5.4600   27.3670 S.3   105  CYS105     -0.0800
     54  N         24.1850   -3.3010   24.8520 N.am  106  ASP106     -0.1959
     55  CA        23.7240   -2.7410   23.5630 C.3   106  ASP106      0.1840
     56  C         23.2160   -3.8640   22.6540 C.2   106  ASP106      0.2622
     57  O         23.8370   -4.9110   22.5550 O.2   106  ASP106     -0.2715
     58  CB        24.8590   -2.0070   22.8590 C.3   106  ASP106      0.1450
     59  CG        24.3560   -1.0310   21.8040 C.2   106  ASP106      0.3671
     60  OD1       23.7450   -1.4870   20.7900 O.co2 106  ASP106     -0.2456
     61  OD2       24.5360    0.2010   22.0090 O.co2 106  ASP106     -0.2456
     62  N         22.0920   -3.6190   22.0020 N.am  107  ILE107     -0.1963
     63  CA        21.4710   -4.6030   21.1160 C.3   107  ILE107      0.1727
     64  C         22.2730   -4.8680   19.8430 C.2   107  ILE107      0.2616
     65  O         22.1470   -5.9160   19.2560 O.2   107  ILE107     -0.2715
     66  CB        20.0270   -4.1820   20.7670 C.3   107  ILE107      0.0290
     67  CG1       19.1830   -5.3710   20.3280 C.3   107  ILE107      0.0022
     68  CG2       19.9910   -3.0410   19.7570 C.3   107  ILE107      0.0023
     69  CD1       17.7160   -5.0040   20.2430 C.3   107  ILE107      0.0001
     70  N         23.1100   -3.9300   19.4270 N.am  108  ASP108     -0.1971
     71  CA        23.7920   -4.0210   18.1380 C.3   108  ASP108      0.1709
     72  C         25.3160   -4.1780   18.2930 C.2   108  ASP108      0.2293
     73  O         26.0470   -3.2170   18.4150 O.2   108  ASP108     -0.2864
     74  CB        23.4230   -2.7890   17.3080 C.3   108  ASP108      0.1436
     75  CG        23.8790   -2.8790   15.8660 C.2   108  ASP108      0.3671
     76  OD1       24.5800   -3.8570   15.5270 O.co2 108  ASP108     -0.2456
     77  OD2       23.5290   -1.9770   15.0840 O.co2 108  ASP108     -0.2456
     78  N         27.6090   -1.8950   16.1660 N.3   111  VAL111     -0.1245
     79  CA        27.8700   -0.5550   16.7730 C.3   111  VAL111      0.1561
     80  C         29.0240   -0.6730   17.7530 C.2   111  VAL111      0.2260
     81  O         29.9840    0.0990   17.6800 O.2   111  VAL111     -0.2867
     82  CB        26.6390    0.0090   17.4810 C.3   111  VAL111      0.0252
     83  CG1       27.0070    1.2200   18.3230 C.3   111  VAL111      0.0019
     84  CG2       25.5830    0.3760   16.4620 C.3   111  VAL111      0.0019
     85  N         22.6500   -7.5380   23.7790 N.3   136  ASN136     -0.1225
     86  CA        21.2500   -7.9250   23.9360 C.3   136  ASN136      0.1785
     87  C         20.2940   -6.7300   23.9440 C.2   136  ASN136      0.2597
     88  O         20.7250   -5.5880   24.0860 O.2   136  ASN136     -0.2718
     89  CB        21.1000   -8.7030   25.2480 C.3   136  ASN136      0.1169
     90  CG        19.8440   -9.5410   25.3020 C.2   136  ASN136      0.2627
     91  OD1       19.0570   -9.6190   24.3470 O.2   136  ASN136     -0.2716
     92  ND2       19.6400  -10.1550   26.4360 N.am  136  ASN136     -0.0877
     93  N         19.0050   -6.9940   23.7620 N.am  137  ASP137     -0.1960
     94  CA        17.9790   -6.0240   24.1330 C.3   137  ASP137      0.1840
     95  C         18.0730   -5.7990   25.6790 C.2   137  ASP137      0.2621
     96  O         18.0230   -6.7450   26.4590 O.2   137  ASP137     -0.2715
     97  CB        16.5870   -6.4830   23.6420 C.3   137  ASP137      0.1450
     98  CG        15.4540   -5.7700   24.3380 C.2   137  ASP137      0.3671
     99  OD1       15.5790   -4.5690   24.5930 O.co2 137  ASP137     -0.2456
    100  OD2       14.4700   -6.4370   24.7300 O.co2 137  ASP137     -0.2456
    101  N         18.2240   -4.5420   26.1130 N.am  138  ALA138     -0.1977
    102  CA        18.4080   -4.2510   27.5370 C.3   138  ALA138      0.1597
    103  C         17.1810   -4.6150   28.3830 C.2   138  ALA138      0.2287
    104  O         17.3150   -4.8950   29.5660 O.2   138  ALA138     -0.2864
    105  CB        18.7800   -2.7830   27.7630 C.3   138  ALA138      0.0319
    106  N         20.7290    5.1310   27.7620 N.3   155  ASP155     -0.1225
    107  CA        21.4940    5.8030   26.6970 C.3   155  ASP155      0.1805
    108  C         20.9440    5.3520   25.3490 C.2   155  ASP155      0.2598
    109  O         21.7020    5.0710   24.4030 O.2   155  ASP155     -0.2718
    110  CB        22.9670    5.4730   26.8680 C.3   155  ASP155      0.1424
    111  CG        23.9350    6.3470   26.0550 C.2   155  ASP155      0.3668
    112  OD1       23.5250    7.3960   25.4800 O.co2 155  ASP155     -0.2456
    113  OD2       25.1450    5.9830   26.0440 O.co2 155  ASP155     -0.2456
    114  N         19.6170    5.3420   25.2520 N.am  156  LEU156     -0.1966
    115  CA        18.9170    4.8790   24.0570 C.3   156  LEU156      0.1728
    116  C         18.4720    6.0210   23.1550 C.2   156  LEU156      0.2616
    117  O         18.6540    7.2190   23.4770 O.2   156  LEU156     -0.2715
    118  CB        17.7020    4.0520   24.4790 C.3   156  LEU156      0.0311
    119  CG        17.9780    2.8030   25.3000 C.3   156  LEU156      0.0022
    120  CD1       16.7680    2.3430   26.1190 C.3   156  LEU156      0.0001
    121  CD2       18.4950    1.6650   24.4640 C.3   156  LEU156      0.0001
    122  N         17.8770    5.6540   22.0070 N.am  157  ALA157     -0.1977
    123  CA        17.1370    6.5510   21.1830 C.3   157  ALA157      0.1597
    124  C         15.8580    7.0230   21.8850 C.2   157  ALA157      0.2287
    125  O         15.3820    6.4350   22.8300 O.2   157  ALA157     -0.2864
    126  CB        16.7950    5.9330   19.8020 C.3   157  ALA157      0.0319
    127  N         11.8870    0.8980   18.0170 N.3   164  PRO164     -0.2102
    128  CA        12.5620   -0.1490   18.7790 C.3   164  PRO164      0.1504
    129  C         12.8120    0.1760   20.2560 C.2   164  PRO164      0.2576
    130  O         12.9260   -0.7620   21.0800 O.2   164  PRO164     -0.2718
    131  CB        13.9090   -0.2740   18.0650 C.3   164  PRO164      0.0282
    132  CG        14.1750    1.0930   17.5540 C.3   164  PRO164      0.0208
    133  CD        12.8320    1.6400   17.1580 C.3   164  PRO164      0.0893
    134  N         12.9390    1.4680   20.5880 N.am  165  CYS165     -0.1971
    135  CA        13.2930    1.8890   21.9720 C.3   165  CYS165      0.1712
    136  C         12.0800    2.2760   22.8350 C.2   165  CYS165      0.2296
    137  O         12.2270    2.4150   24.0550 O.2   165  CYS165     -0.2864
    138  CB        14.3230    3.0360   21.9210 C.3   165  CYS165      0.0983
    139  SG        15.9480    2.5340   21.2490 S.3   165  CYS165     -0.0798
    140  N          9.5250    0.8820   24.1190 N.3   167  LYS167     -0.1231
    141  CA         9.1800    0.0320   25.2450 C.3   167  LYS167      0.1693
    142  C         10.1030    0.1980   26.4530 C.2   167  LYS167      0.2591
    143  O          9.7780   -0.3150   27.5120 O.2   167  LYS167     -0.2718
    144  CB         9.1550   -1.4540   24.8050 C.3   167  LYS167      0.0285
    145  CG        10.5420   -2.0000   24.5180 C.3   167  LYS167      0.0035
    146  CD        10.5730   -3.2130   23.6050 C.3   167  LYS167      0.0206
    147  CE        12.0020   -3.7180   23.4870 C.3   167  LYS167      0.1093
    148  NZ        12.0190   -5.1550   23.0880 N.3   167  LYS167     -0.1314
    149  N         11.2630    0.8430   26.2890 N.am  168  LEU168     -0.1980
    150  CA        12.1780    1.1050   27.4210 C.3   168  LEU168      0.1596
    151  C         11.9310    2.4750   28.0780 C.2   168  LEU168      0.2287
    152  O         12.7850    2.9230   28.8380 O.2   168  LEU168     -0.2864
    153  CB        13.6510    0.9190   27.0040 C.3   168  LEU168      0.0297
    154  CG        14.0180   -0.5240   26.5770 C.3   168  LEU168      0.0022
    155  CD1       13.9550   -0.6940   25.0680 C.3   168  LEU168      0.0001
    156  CD2       15.3800   -1.0040   27.0870 C.3   168  LEU168      0.0001
@<TRIPOS>BOND
     1     3     4    2
     2     3     2    1
     3     2     1    1
     4     2     5    1
     5    12    13    2
     6    12    11    1
     7     5     6    1
     8    11    10    1
     9    11    14    1
    10     6     7    1
    11    14    15    1
    12    17    15    1
    13    77    75   ar
    14    15    16    1
    15     7     8    2
    16     7     9   am
    17    76    75   ar
    18    75    74    1
    19    18    19    1
    20    78    79    1
    21    26    24   am
    22    84    82    1
    23    23    24    1
    24    23    22    1
    25    79    82    1
    26    79    80    1
    27    24    25    2
    28   133   132    1
    29   133   127    1
    30    74    71    1
    31    82    83    1
    32    19    22    1
    33    19    20    1
    34   132   131    1
    35    81    80    2
    36   127   128    1
    37   131   128    1
    38    71    72    1
    39    71    70    1
    40    72    73    2
    41    20    21    2
    42   128   129    1
    43    65    64    2
    44    70    64   am
    45    68    66    1
    46   126   123    1
    47    64    63    1
    48    69    67    1
    49   129   134   am
    50   129   130    2
    51    67    66    1
    52   134   135    1
    53    66    63    1
    54    44    43    1
    55    44    45    1
    56    60    59   ar
    57    63    62    1
    58    43    40    1
    59   123   124    1
    60   123   122    1
    61   139   138    1
    62    40    39    1
    63    40    41    1
    64    38    37    2
    65    46    45   ar
    66    39    37   am
    67    59    61   ar
    68    59    58    1
    69    37    36    1
    70   124   125    2
    71    42    41    2
    72   138   135    1
    73   135   136    1
    74    45    47   ar
    75    62    56   am
    76   122   116   am
    77    36    35    1
    78    57    56    2
    79    56    55    1
    80   136   137    2
    81    58    55    1
    82   148   147    1
    83   116   117    2
    84   116   115    1
    85    35    33   am
    86   147   146    1
    87    55    54    1
    88   146   145    1
    89    97    94    1
    90    97    98    1
    91    93    87   am
    92    93    94    1
    93    85    86    1
    94    86    87    1
    95    86    89    1
    96    87    88    2
    97   115   118    1
    98   115   114    1
    99   140   141    1
   100    94    95    1
   101    33    34    2
   102    33    32    1
   103    98    99   ar
   104    98   100   ar
   105    91    90    2
   106   109   108    2
   107   121   119    1
   108   118   119    1
   109   145   144    1
   110   144   141    1
   111    54    50   am
   112    31    32    1
   113    31    29   am
   114    28    29    1
   115    28    27    1
   116   155   154    1
   117   141   142    1
   118    89    90    1
   119   114   108   am
   120    29    30    2
   121   119   120    1
   122    90    92   am
   123   108   107    1
   124   112   111   ar
   125    95   101   am
   126    95    96    2
   127    50    51    2
   128    50    49    1
   129   113   111   ar
   130   111   110    1
   131   101   102    1
   132   149   142   am
   133   149   150    1
   134   142   143    2
   135   154   153    1
   136   154   156    1
   137   107   110    1
   138   107   106    1
   139   153   150    1
   140    49    48    1
   141    49    52    1
   142    53    52    1
   143   150   151    1
   144   102   105    1
   145   102   103    1
   146   151   152    2
   147   103   104    2
