@<TRIPOS>MOLECULE
tmp/6bq6B00.pdb
 174 164 0 0 0
SMALL
GASTEIGER

@<TRIPOS>ATOM
      1  N         20.5470   27.9080    5.9370 N.3     7  GLU7       -0.1245
      2  CA        21.5530   28.6820    6.6060 C.3     7  GLU7        0.1567
      3  C         22.7270   27.7970    7.0320 C.2     7  GLU7        0.2260
      4  O         22.5410   26.7000    7.5970 O.2     7  GLU7       -0.2867
      5  CB        20.9740   29.3610    7.8070 C.3     7  GLU7        0.0388
      6  CG        21.9660   30.4080    8.3500 C.3     7  GLU7        0.1160
      7  CD        21.3750   31.4070    9.3210 C.2     7  GLU7        0.3649
      8  OE1       20.1680   31.6140    9.3030 O.co2   7  GLU7       -0.2457
      9  OE2       22.1330   32.0230   10.0950 O.co2   7  GLU7       -0.2457
     10  N         25.0020   27.5090    9.5420 N.3     9  ILE9       -0.1245
     11  CA        25.3310   27.8190   10.9480 C.3     9  ILE9        0.1561
     12  C         26.8590   27.9460   11.1400 C.2     9  ILE9        0.2260
     13  O         27.3430   28.9100   11.7360 O.2     9  ILE9       -0.2867
     14  CB        24.8090   26.7010   11.9080 C.3     9  ILE9        0.0252
     15  CG1       23.2850   26.5380   11.8290 C.3     9  ILE9        0.0019
     16  CG2       25.2680   26.9630   13.3380 C.3     9  ILE9        0.0019
     17  CD1       22.5120   27.8390   11.7920 C.3     9  ILE9        0.0001
     18  N         23.1510   45.9940    4.9310 N.3    31  GLN31      -0.1245
     19  CA        22.7460   44.5690    4.9310 C.3    31  GLN31       0.1566
     20  C         21.4830   44.3100    4.1210 C.2    31  GLN31       0.2260
     21  O         20.6550   45.1910    4.0040 O.2    31  GLN31      -0.2867
     22  CB        22.5250   44.0710    6.3750 C.3    31  GLN31       0.0367
     23  CG        21.4130   44.8170    7.0980 C.3    31  GLN31       0.0905
     24  CD        21.5820   44.8410    8.6080 C.2    31  GLN31       0.2608
     25  OE1       22.0250   43.8610    9.2050 O.2    31  GLN31      -0.2717
     26  NE2       21.2150   45.9480    9.2240 N.am   31  GLN31      -0.0878
     27  N         18.8040   38.7260    8.0520 N.3    47  LEU47      -0.1245
     28  CA        19.6380   39.8690    7.7110 C.3    47  LEU47       0.1561
     29  C         20.9660   39.3450    7.2070 C.2    47  LEU47       0.2260
     30  O         21.6240   38.5780    7.9090 O.2    47  LEU47      -0.2867
     31  CB        19.8730   40.7880    8.8890 C.3    47  LEU47       0.0270
     32  CG        18.6460   41.4730    9.4850 C.3    47  LEU47       0.0019
     33  CD1       19.0510   42.3890   10.6270 C.3    47  LEU47       0.0001
     34  CD2       17.7940   42.2210    8.4650 C.3    47  LEU47       0.0001
     35  N         21.4580   35.6700    7.5200 N.3    50  LYS50      -0.1231
     36  CA        21.5140   35.1230    8.8540 C.3    50  LYS50       0.1693
     37  C         20.1850   35.3860    9.5310 C.2    50  LYS50       0.2592
     38  O         19.7390   36.5150    9.6440 O.2    50  LYS50      -0.2718
     39  CB        22.6620   35.7370    9.6330 C.3    50  LYS50       0.0285
     40  CG        24.0030   35.6550    8.8940 C.3    50  LYS50       0.0035
     41  CD        25.1420   35.1870    9.7880 C.3    50  LYS50       0.0206
     42  CE        25.5350   36.2380   10.8240 C.3    50  LYS50       0.1093
     43  NZ        26.2150   35.5910   11.9890 N.3    50  LYS50      -0.1314
     44  N         19.5350   34.3070    9.9200 N.am   51  LEU51      -0.1966
     45  CA        18.3340   34.3700   10.6530 C.3    51  LEU51       0.1728
     46  C         18.5150   35.2120   11.9100 C.2    51  LEU51       0.2616
     47  O         19.5070   35.0100   12.6720 O.2    51  LEU51      -0.2715
     48  CB        17.9540   32.9650   11.0300 C.3    51  LEU51       0.0311
     49  CG        16.7400   32.8370   11.8990 C.3    51  LEU51       0.0022
     50  CD1       15.4900   33.1250   11.1240 C.3    51  LEU51       0.0001
     51  CD2       16.7340   31.4360   12.4710 C.3    51  LEU51       0.0001
     52  N         17.5860   36.1550   12.1170 N.am   52  GLN52      -0.1977
     53  CA        17.5760   37.0050   13.3220 C.3    52  GLN52       0.1601
     54  C         16.5050   36.6010   14.3030 C.2    52  GLN52       0.2287
     55  O         16.7180   36.5710   15.5360 O.2    52  GLN52      -0.2864
     56  CB        17.3000   38.4500   12.9240 C.3    52  GLN52       0.0394
     57  CG        18.2450   39.0190   11.9110 C.3    52  GLN52       0.0908
     58  CD        19.6360   39.1170   12.4510 C.2    52  GLN52       0.2608
     59  OE1       19.8760   39.8080   13.4460 O.2    52  GLN52      -0.2717
     60  NE2       20.5740   38.4310   11.8100 N.am   52  GLN52      -0.0878
     61  N         14.1180   34.5220   22.9700 N.3    61  TYR61      -0.1241
     62  CA        15.2820   35.3540   22.9240 C.3    61  TYR61       0.1605
     63  C         14.9360   36.7110   23.5830 C.2    61  TYR61       0.2264
     64  O         15.7220   37.2340   24.3590 O.2    61  TYR61      -0.2867
     65  CB        15.7340   35.5570   21.4550 C.3    61  TYR61       0.0534
     66  CG        16.7980   36.5930   21.3150 C.ar   61  TYR61      -0.0201
     67  CD1       18.1570   36.2620   21.3920 C.ar   61  TYR61      -0.0009
     68  CD2       16.4680   37.9220   21.0800 C.ar   61  TYR61      -0.0009
     69  CE1       19.1330   37.2520   21.2780 C.ar   61  TYR61       0.0417
     70  CE2       17.4240   38.9010   20.9900 C.ar   61  TYR61       0.0417
     71  CZ        18.7530   38.5580   21.0730 C.ar   61  TYR61       0.1957
     72  OH        19.7190   39.5480   20.9490 O.3    61  TYR61      -0.2866
     73  N         21.1160   48.8310   19.3590 N.3    83  GLY83      -0.1210
     74  CA        20.6210   47.9610   18.2820 C.3    83  GLY83       0.1956
     75  C         19.1500   47.7510   18.4500 C.2    83  GLY83       0.2609
     76  O         18.3890   48.6810   18.5740 O.2    83  GLY83      -0.2717
     77  N         18.7480   46.5020   18.4880 N.am   84  GLY84      -0.2014
     78  CA        17.3440   46.1290   18.4700 C.3    84  GLY84       0.1506
     79  C         16.8500   46.1420   17.0280 C.3    84  GLY84       0.2054
     80  O         17.1660   45.2010   16.2110 O.3    84  GLY84      -0.2184
     81  N         14.2210   45.4950   15.4210 N.3    86  GLU86      -0.1245
     82  CA        13.0240   44.7310   15.0640 C.3    86  GLU86       0.1567
     83  C         11.7870   45.1720   15.8280 C.2    86  GLU86       0.2260
     84  O         10.6520   44.9670   15.3680 O.2    86  GLU86      -0.2867
     85  CB        13.2660   43.2490   15.3130 C.3    86  GLU86       0.0388
     86  CG        14.5030   42.7330   14.6380 C.3    86  GLU86       0.1160
     87  CD        14.8610   41.3220   15.0700 C.2    86  GLU86       0.3649
     88  OE1       13.9560   40.5710   15.5240 O.co2  86  GLU86      -0.2457
     89  OE2       16.0870   40.9910   14.9640 O.co2  86  GLU86      -0.2457
     90  N         19.6850   52.3180   16.7590 N.3   106  ASP106     -0.1239
     91  CA        20.0530   51.3370   15.7220 C.3   106  ASP106      0.1674
     92  C         20.6580   52.1020   14.5900 C.2   106  ASP106      0.2266
     93  O         20.2270   53.2050   14.2990 O.2   106  ASP106     -0.2867
     94  CB        18.8270   50.5300   15.2410 C.3   106  ASP106      0.1410
     95  CG        19.2060   49.2460   14.4660 C.2   106  ASP106      0.3668
     96  OD1       19.7080   49.2860   13.2950 O.co2 106  ASP106     -0.2456
     97  OD2       19.0190   48.1490   15.0430 O.co2 106  ASP106     -0.2456
     98  N         16.1370   48.8360    8.4460 N.3   111  VAL111     -0.1245
     99  CA        15.6810   47.6710    9.2350 C.3   111  VAL111      0.1561
    100  C         14.5340   48.1040   10.1550 C.2   111  VAL111      0.2260
    101  O         13.5260   47.4310   10.2490 O.2   111  VAL111     -0.2867
    102  CB        16.8170   47.0460   10.0450 C.3   111  VAL111      0.0252
    103  CG1       16.2730   46.0220   11.0680 C.3   111  VAL111      0.0019
    104  CG2       17.8390   46.4020    9.1140 C.3   111  VAL111      0.0019
    105  N         21.6930   44.6320   22.0350 N.3   155  ASP155     -0.1225
    106  CA        21.0090   43.7580   21.1120 C.3   155  ASP155      0.1805
    107  C         21.6310   43.9550   19.7220 C.2   155  ASP155      0.2598
    108  O         20.9600   44.2810   18.7830 O.2   155  ASP155     -0.2718
    109  CB        19.5420   44.0640   21.1220 C.3   155  ASP155      0.1424
    110  CG        18.7000   42.9970   20.4660 C.2   155  ASP155      0.3668
    111  OD1       19.2010   41.9310   20.1200 O.co2 155  ASP155     -0.2456
    112  OD2       17.5100   43.2730   20.2650 O.co2 155  ASP155     -0.2456
    113  N         22.9360   43.6910   19.6420 N.am  156  LEU156     -0.1966
    114  CA        23.7220   43.8620   18.4380 C.3   156  LEU156      0.1728
    115  C         24.1480   42.5330   17.8670 C.2   156  LEU156      0.2616
    116  O         24.0450   41.4810   18.5320 O.2   156  LEU156     -0.2715
    117  CB        24.9970   44.6450   18.7560 C.3   156  LEU156      0.0311
    118  CG        24.7340   45.9840   19.4130 C.3   156  LEU156      0.0022
    119  CD1       25.9950   46.3780   20.1840 C.3   156  LEU156      0.0001
    120  CD2       24.3700   47.0380   18.3980 C.3   156  LEU156      0.0001
    121  N         24.6660   42.5830   16.6260 N.am  157  ALA157     -0.1963
    122  CA        25.3420   41.4100   16.0400 C.3   157  ALA157      0.1728
    123  C         26.5090   40.9640   16.9340 C.2   157  ALA157      0.2616
    124  O         27.0530   41.7520   17.6550 O.2   157  ALA157     -0.2715
    125  CB        25.8430   41.7700   14.6560 C.3   157  ALA157      0.0334
    126  N         26.8500   39.6790   16.8850 N.am  158  ASP158     -0.1971
    127  CA        28.0140   39.1430   17.5690 C.3   158  ASP158      0.1709
    128  C         29.2700   39.9210   17.1930 C.2   158  ASP158      0.2293
    129  O         29.4040   40.3330   16.0480 O.2   158  ASP158     -0.2864
    130  CB        28.2430   37.6620   17.2140 C.3   158  ASP158      0.1436
    131  CG        27.1280   36.7590   17.6810 C.2   158  ASP158      0.3671
    132  OD1       26.2360   37.2290   18.4420 O.co2 158  ASP158     -0.2456
    133  OD2       27.1480   35.5550   17.2800 O.co2 158  ASP158     -0.2456
    134  N         23.1200   40.4170   24.6440 N.3   191  GLN191     -0.1245
    135  CA        23.1820   39.1460   23.9780 C.3   191  GLN191      0.1566
    136  C         24.6680   38.7680   23.8090 C.2   191  GLN191      0.2260
    137  O         25.5420   39.6200   23.6490 O.2   191  GLN191     -0.2867
    138  CB        22.4130   39.1540   22.6900 C.3   191  GLN191      0.0367
    139  CG        23.1250   39.7420   21.4700 C.3   191  GLN191      0.0905
    140  CD        23.9970   38.7180   20.7730 C.2   191  GLN191      0.2608
    141  OE1       23.7880   37.5180   20.9000 O.2   191  GLN191     -0.2717
    142  NE2       25.0430   39.1800   20.1290 N.am  191  GLN191     -0.0878
    143  N         14.9510   27.7470   16.5670 N.3   227  SER227     -0.1202
    144  CA        15.2320   28.2500   15.2260 C.3   227  SER227      0.2020
    145  C         16.6900   28.6120   15.0300 C.2   227  SER227      0.2618
    146  O         17.1560   28.6930   13.8980 O.2   227  SER227     -0.2717
    147  CB        14.3830   29.4650   14.8860 C.3   227  SER227      0.2103
    148  OG        14.5940   30.5240   15.7680 O.3   227  SER227     -0.2182
    149  N         17.4060   28.8430   16.1250 N.am  228  TYR228     -0.1975
    150  CA        18.8320   29.1220   16.0890 C.3   228  TYR228      0.1639
    151  C         19.7050   27.9030   16.0280 C.2   228  TYR228      0.2290
    152  O         20.9380   28.0510   15.8720 O.2   228  TYR228     -0.2864
    153  CB        19.1910   29.9860   17.3250 C.3   228  TYR228      0.0560
    154  CG        18.6550   31.4110   17.3940 C.ar  228  TYR228     -0.0198
    155  CD1       17.7700   31.9450   16.4380 C.ar  228  TYR228     -0.0009
    156  CD2       19.0200   32.2320   18.4540 C.ar  228  TYR228     -0.0009
    157  CE1       17.3080   33.2400   16.5400 C.ar  228  TYR228      0.0417
    158  CE2       18.5600   33.5350   18.5670 C.ar  228  TYR228      0.0417
    159  CZ        17.7030   34.0410   17.6150 C.ar  228  TYR228      0.1957
    160  OH        17.2560   35.3190   17.7380 O.3   228  TYR228     -0.2866
    161  N         21.5760   29.7470   23.0630 N.3   232  TRP232     -0.1241
    162  CA        22.0310   31.1140   22.9730 C.3   232  TRP232      0.1605
    163  C         22.3380   31.6980   24.3590 C.2   232  TRP232      0.2264
    164  O         21.7470   31.2880   25.3750 O.2   232  TRP232     -0.2867
    165  CB        20.9420   31.9680   22.2830 C.3   232  TRP232      0.0550
    166  CG        21.5480   33.0410   21.5010 C.ar  232  TRP232      0.0003
    167  CD1       21.6960   34.3860   21.8330 C.ar  232  TRP232      0.0946
    168  CD2       22.2310   32.8630   20.2700 C.ar  232  TRP232      0.0152
    169  NE1       22.4010   35.0200   20.8360 N.ar  232  TRP232     -0.2442
    170  CE2       22.7660   34.1180   19.8880 C.ar  232  TRP232      0.0810
    171  CE3       22.4810   31.7540   19.4510 C.ar  232  TRP232      0.0012
    172  CZ2       23.4740   34.2720   18.6810 C.ar  232  TRP232      0.0191
    173  CZ3       23.2530   31.9280   18.2940 C.ar  232  TRP232      0.0001
    174  CH2       23.7230   33.1510   17.9460 C.ar  232  TRP232      0.0015
@<TRIPOS>BOND
     1    21    20    2
     2    20    19    1
     3    19    18    1
     4    19    22    1
     5     1     2    1
     6    22    23    1
     7     2     3    1
     8     2     5    1
     9     3     4    2
    10    23    24    1
    11    29    28    1
    12    29    30    2
    13    35    36    1
    14    28    27    1
    15    28    31    1
    16     5     6    1
    17     6     7    1
    18    98    99    1
    19    34    32    1
    20    24    25    2
    21    24    26   am
    22    36    37    1
    23    36    39    1
    24    31    32    1
    25    40    39    1
    26    40    41    1
    27   104   102    1
    28    99   102    1
    29    99   100    1
    30     8     7   ar
    31     7     9   ar
    32    32    33    1
    33    37    38    2
    34    37    44   am
    35    10    11    1
    36    41    42    1
    37    44    45    1
    38   102   103    1
    39   100   101    2
    40    45    48    1
    41    45    46    1
    42    42    43    1
    43    11    12    1
    44    11    14    1
    45    48    49    1
    46    50    49    1
    47    12    13    2
    48    17    15    1
    49    60    58   am
    50    15    14    1
    51    49    51    1
    52    14    16    1
    53    46    52   am
    54    46    47    2
    55    57    58    1
    56    57    56    1
    57    52    53    1
    58    58    59    2
    59    56    53    1
    60    96    95   ar
    61    53    54    1
    62   146   145    2
    63    93    92    2
    64    54    55    2
    65    95    97   ar
    66    95    94    1
    67    92    91    1
    68    86    87    1
    69    86    85    1
    70   125   122    1
    71   147   144    1
    72   147   148    1
    73    89    87   ar
    74   145   144    1
    75   145   149   am
    76    82    85    1
    77    82    81    1
    78    82    83    1
    79    87    88   ar
    80   144   143    1
    81    94    91    1
    82    84    83    2
    83    91    90    1
    84   152   151    2
    85   151   150    1
    86   122   121    1
    87   122   123    1
    88   129   128    2
    89   150   149    1
    90   150   153    1
    91    80    79    1
    92   155   157   ar
    93   155   154   ar
    94   157   159   ar
    95   121   115   am
    96   126   123   am
    97   126   127    1
    98   123   124    2
    99    79    78    1
   100   128   127    1
   101   130   127    1
   102   130   131    1
   103   133   131   ar
   104   153   154    1
   105   154   156   ar
   106   159   160    1
   107   159   158   ar
   108   131   132   ar
   109   115   114    1
   110   115   116    2
   111   174   173   ar
   112   174   172   ar
   113    74    75    1
   114    74    73    1
   115   173   171   ar
   116   120   118    1
   117   114   117    1
   118   114   113    1
   119    75    77   am
   120    75    76    2
   121   156   158   ar
   122    78    77    1
   123   172   170   ar
   124   117   118    1
   125   108   107    2
   126   118   119    1
   127   171   168   ar
   128   113   107   am
   129   107   106    1
   130   170   168   ar
   131   170   169   ar
   132   111   110   ar
   133   142   140   am
   134   112   110   ar
   135   168   166   ar
   136   110   109    1
   137   140   141    2
   138   140   139    1
   139   169   167   ar
   140    72    71    1
   141    70    71   ar
   142    70    68   ar
   143    71    69   ar
   144    68    66   ar
   145   106   109    1
   146   106   105    1
   147    69    67   ar
   148    66    67   ar
   149    66    65    1
   150    65    62    1
   151   139   138    1
   152   166   167   ar
   153   166   165    1
   154   165   162    1
   155   138   135    1
   156    62    61    1
   157    62    63    1
   158   162   161    1
   159   162   163    1
   160    63    64    2
   161   137   136    2
   162   136   135    1
   163   135   134    1
   164   163   164    2
