@<TRIPOS>MOLECULE
tmp/6bq7B00.pdb
 148 143 0 0 0
SMALL
GASTEIGER

@<TRIPOS>ATOM
      1  N         19.9160   24.9050    7.1870 N.3     7  GLU7       -0.1245
      2  CA        20.8370   25.5360    8.1070 C.3     7  GLU7        0.1567
      3  C         22.1050   24.7120    8.1050 C.2     7  GLU7        0.2260
      4  O         22.0490   23.4910    8.2740 O.2     7  GLU7       -0.2867
      5  CB        20.2520   25.6230    9.5190 C.3     7  GLU7        0.0388
      6  CG        20.6480   26.8610   10.2800 C.3     7  GLU7        0.1160
      7  CD        20.1800   26.8150   11.7220 C.2     7  GLU7        0.3649
      8  OE1       19.1300   26.1810   12.0170 O.co2   7  GLU7       -0.2457
      9  OE2       20.8930   27.3890   12.5650 O.co2   7  GLU7       -0.2457
     10  N         24.8140   23.7870   10.2690 N.3     9  ILE9       -0.1245
     11  CA        25.0820   23.8420   11.6780 C.3     9  ILE9        0.1561
     12  C         26.5570   23.9090   11.8940 C.2     9  ILE9        0.2260
     13  O         27.0660   24.7220   12.6090 O.2     9  ILE9       -0.2867
     14  CB        24.5870   22.6160   12.3810 C.3     9  ILE9        0.0252
     15  CG1       23.0980   22.5420   12.3320 C.3     9  ILE9        0.0019
     16  CG2       24.9970   22.6890   13.8170 C.3     9  ILE9        0.0019
     17  CD1       22.4680   23.7950   12.8200 C.3     9  ILE9        0.0001
     18  N         20.5030   32.1190   10.6860 N.3    50  LYS50      -0.1231
     19  CA        20.6330   31.1730   11.7710 C.3    50  LYS50       0.1693
     20  C         19.4240   31.1220   12.6280 C.2    50  LYS50       0.2592
     21  O         18.9610   32.1000   13.0590 O.2    50  LYS50      -0.2718
     22  CB        21.7890   31.5340   12.6520 C.3    50  LYS50       0.0285
     23  CG        23.1230   31.2910   12.0110 C.3    50  LYS50       0.0035
     24  CD        23.9760   30.4560   12.9200 C.3    50  LYS50       0.0206
     25  CE        23.8440   30.9020   14.3650 C.3    50  LYS50       0.1093
     26  NZ        24.9700   30.4010   15.2100 N.3    50  LYS50      -0.1314
     27  N         18.9120   29.9550   12.8580 N.am   51  LEU51      -0.1966
     28  CA        17.7350   29.7970   13.7000 C.3    51  LEU51       0.1728
     29  C         18.0850   30.2010   15.1310 C.2    51  LEU51       0.2616
     30  O         19.0260   29.6600   15.7220 O.2    51  LEU51      -0.2715
     31  CB        17.2360   28.3560   13.6430 C.3    51  LEU51       0.0311
     32  CG        16.0240   27.9770   14.4930 C.3    51  LEU51       0.0022
     33  CD1       14.8660   28.7600   14.0280 C.3    51  LEU51       0.0001
     34  CD2       15.7190   26.4950   14.3170 C.3    51  LEU51       0.0001
     35  N         17.3570   31.1750   15.6660 N.am   52  GLN52      -0.1977
     36  CA        17.6010   31.6750   17.0150 C.3    52  GLN52       0.1601
     37  C         16.5410   31.2580   18.0250 C.2    52  GLN52       0.2287
     38  O         16.8510   31.1430   19.2160 O.2    52  GLN52      -0.2864
     39  CB        17.7350   33.2030   16.9990 C.3    52  GLN52       0.0394
     40  CG        19.0680   33.6990   16.3720 C.3    52  GLN52       0.0908
     41  CD        20.3340   33.0640   16.9900 C.2    52  GLN52       0.2608
     42  OE1       20.3310   32.6000   18.1320 O.2    52  GLN52      -0.2717
     43  NE2       21.4210   33.0590   16.2250 N.am   52  GLN52      -0.0878
     44  N         14.6260   26.7160   26.3370 N.3    61  TYR61      -0.1227
     45  CA        15.7630   27.6260   26.3830 C.3    61  TYR61       0.1736
     46  C         15.5240   28.7640   27.3710 C.2    61  TYR61       0.2595
     47  O         16.4080   29.1070   28.1740 O.2    61  TYR61      -0.2718
     48  CB        16.0430   28.1790   24.9680 C.3    61  TYR61       0.0548
     49  CG        17.1070   29.2400   24.9970 C.ar   61  TYR61      -0.0200
     50  CD1       16.7840   30.5710   25.2310 C.ar   61  TYR61      -0.0009
     51  CD2       18.4430   28.9060   24.8500 C.ar   61  TYR61      -0.0009
     52  CE1       17.7640   31.5450   25.3060 C.ar   61  TYR61       0.0417
     53  CE2       19.4280   29.8740   24.9090 C.ar   61  TYR61       0.0417
     54  CZ        19.0840   31.1860   25.1350 C.ar   61  TYR61       0.1957
     55  OH        20.0540   32.1560   25.1920 O.3    61  TYR61      -0.2866
     56  N         14.3390   29.3740   27.3260 N.am   62  HIS62      -0.1975
     57  CA        14.1390   30.5570   28.1490 C.3    62  HIS62       0.1656
     58  C         13.8140   30.2090   29.5950 C.2    62  HIS62       0.2291
     59  O         14.2050   30.9570   30.4840 O.2    62  HIS62      -0.2864
     60  CB        13.0680   31.4510   27.5270 C.3    62  HIS62       0.0771
     61  CG        13.4660   31.9800   26.1820 C.ar   62  HIS62       0.0820
     62  ND1       13.0310   31.4120   25.0060 N.ar   62  HIS62      -0.2267
     63  CD2       14.2940   32.9920   25.8260 C.ar   62  HIS62       0.1154
     64  CE1       13.5520   32.0660   23.9810 C.ar   62  HIS62       0.1986
     65  NE2       14.3240   33.0300   24.4500 N.ar   62  HIS62      -0.2212
     66  N         18.5150   39.4310   24.2290 N.3    84  GLY84      -0.1225
     67  CA        17.1170   39.1030   24.5060 C.3    84  GLY84       0.1811
     68  C         16.1170   40.0530   23.9070 C.2    84  GLY84       0.2280
     69  O         15.1210   40.4030   24.5580 O.2    84  GLY84      -0.2866
     70  N         14.1220   39.3020   21.5840 N.3    86  GLU86      -0.1245
     71  CA        12.9590   38.5040   21.2280 C.3    86  GLU86       0.1567
     72  C         11.7940   38.7090   22.1910 C.2    86  GLU86       0.2260
     73  O         10.6380   38.4970   21.8040 O.2    86  GLU86      -0.2867
     74  CB        13.3850   37.0380   21.1790 C.3    86  GLU86       0.0388
     75  CG        12.3120   36.0400   20.8330 C.3    86  GLU86       0.1160
     76  CD        12.8090   34.6160   20.9920 C.2    86  GLU86       0.3649
     77  OE1       13.9720   34.3580   20.6070 O.co2  86  GLU86      -0.2457
     78  OE2       12.0550   33.7630   21.5180 O.co2  86  GLU86      -0.2457
     79  N         22.0600   36.9990   27.1940 N.3   155  ASP155     -0.1225
     80  CA        21.2640   36.3650   26.1450 C.3   155  ASP155      0.1805
     81  C         21.7010   36.9190   24.7890 C.2   155  ASP155      0.2598
     82  O         20.9100   37.4640   24.0240 O.2   155  ASP155     -0.2718
     83  CB        19.7720   36.5870   26.3830 C.3   155  ASP155      0.1424
     84  CG        18.8930   35.7700   25.4390 C.2   155  ASP155      0.3668
     85  OD1       19.4160   34.8350   24.7800 O.co2 155  ASP155     -0.2456
     86  OD2       17.6740   36.0670   25.3760 O.co2 155  ASP155     -0.2456
     87  N         22.9930   36.8050   24.5120 N.am  156  LEU156     -0.1966
     88  CA        23.5850   37.3090   23.2850 C.3   156  LEU156      0.1728
     89  C         23.8110   36.1590   22.3210 C.2   156  LEU156      0.2616
     90  O         23.6210   34.9910   22.6610 O.2   156  LEU156     -0.2715
     91  CB        24.9120   38.0130   23.5820 C.3   156  LEU156      0.0311
     92  CG        24.8630   39.2190   24.5150 C.3   156  LEU156      0.0022
     93  CD1       26.2360   39.4780   25.1100 C.3   156  LEU156      0.0001
     94  CD2       24.3470   40.4470   23.7800 C.3   156  LEU156      0.0001
     95  N         24.2290   36.5050   21.1060 N.am  157  ALA157     -0.1963
     96  CA        24.7690   35.5130   20.1920 C.3   157  ALA157      0.1728
     97  C         26.0840   34.9680   20.7410 C.2   157  ALA157      0.2616
     98  O         26.7360   35.5850   21.5900 O.2   157  ALA157     -0.2715
     99  CB        24.9850   36.1170   18.8050 C.3   157  ALA157      0.0334
    100  N         26.4750   33.7980   20.2450 N.am  158  ASP158     -0.1971
    101  CA        27.6740   33.1420   20.7510 C.3   158  ASP158      0.1709
    102  C         28.9190   33.9790   20.4540 C.2   158  ASP158      0.2293
    103  O         28.9670   34.7110   19.4590 O.2   158  ASP158     -0.2864
    104  CB        27.8220   31.7550   20.1320 C.3   158  ASP158      0.1436
    105  CG        26.5720   30.9240   20.2750 C.2   158  ASP158      0.3671
    106  OD1       25.6590   31.3460   21.0180 O.co2 158  ASP158     -0.2456
    107  OD2       26.4960   29.8530   19.6360 O.co2 158  ASP158     -0.2456
    108  N         23.8390   32.4780   28.6220 N.3   191  GLN191     -0.1245
    109  CA        23.8910   31.3660   27.6910 C.3   191  GLN191      0.1566
    110  C         25.3460   31.1510   27.3070 C.2   191  GLN191      0.2260
    111  O         26.1710   32.0690   27.3660 O.2   191  GLN191     -0.2867
    112  CB        23.0220   31.6260   26.4600 C.3   191  GLN191      0.0367
    113  CG        23.5980   32.6190   25.4710 C.3   191  GLN191      0.0905
    114  CD        24.1300   31.9720   24.2100 C.2   191  GLN191      0.2608
    115  OE1       24.2370   30.7440   24.1070 O.2   191  GLN191     -0.2717
    116  NE2       24.4690   32.8000   23.2330 N.am  191  GLN191     -0.0878
    117  N         15.2010   22.1780   18.3780 N.3   227  SER227     -0.1202
    118  CA        15.3460   23.0360   17.2040 C.3   227  SER227      0.2020
    119  C         16.7700   23.5390   17.0060 C.2   227  SER227      0.2618
    120  O         17.0910   24.0180   15.9150 O.2   227  SER227     -0.2717
    121  CB        14.4230   24.2430   17.3190 C.3   227  SER227      0.2103
    122  OG        14.7320   24.9330   18.5210 O.3   227  SER227     -0.2182
    123  N         17.6080   23.4970   18.0430 N.am  228  TYR228     -0.1975
    124  CA        18.9980   23.9160   17.9290 C.3   228  TYR228      0.1639
    125  C         19.9000   22.7900   17.4710 C.2   228  TYR228      0.2290
    126  O         21.1050   23.0220   17.2810 O.2   228  TYR228     -0.2864
    127  CB        19.5190   24.4430   19.2800 C.3   228  TYR228      0.0560
    128  CG        18.9300   25.7550   19.7960 C.ar  228  TYR228     -0.0198
    129  CD1       18.0550   26.5180   19.0330 C.ar  228  TYR228     -0.0009
    130  CD2       19.2630   26.2190   21.0680 C.ar  228  TYR228     -0.0009
    131  CE1       17.5280   27.7130   19.5290 C.ar  228  TYR228      0.0417
    132  CE2       18.7420   27.4090   21.5620 C.ar  228  TYR228      0.0417
    133  CZ        17.8740   28.1490   20.7910 C.ar  228  TYR228      0.1957
    134  OH        17.3590   29.3290   21.2960 O.3   228  TYR228     -0.2866
    135  N         22.2900   22.4830   24.6310 N.3   232  TRP232     -0.1241
    136  CA        22.6640   23.8770   24.8120 C.3   232  TRP232      0.1605
    137  C         23.0970   24.1070   26.2500 C.2   232  TRP232      0.2264
    138  O         22.6660   23.3950   27.1620 O.2   232  TRP232     -0.2867
    139  CB        21.5140   24.8180   24.4570 C.3   232  TRP232      0.0550
    140  CG        22.0260   26.1140   23.9310 C.ar  232  TRP232      0.0003
    141  CD1       22.0340   27.3250   24.5760 C.ar  232  TRP232      0.0946
    142  CD2       22.6430   26.3260   22.6680 C.ar  232  TRP232      0.0152
    143  NE1       22.6150   28.2780   23.7770 N.ar  232  TRP232     -0.2442
    144  CE2       22.9830   27.6950   22.5930 C.ar  232  TRP232      0.0810
    145  CE3       22.9360   25.4980   21.5890 C.ar  232  TRP232      0.0012
    146  CZ2       23.6020   28.2480   21.4810 C.ar  232  TRP232      0.0191
    147  CZ3       23.5510   26.0540   20.4710 C.ar  232  TRP232      0.0001
    148  CH2       23.8860   27.4150   20.4370 C.ar  232  TRP232      0.0015
@<TRIPOS>BOND
     1     1     2    1
     2     3     2    1
     3     3     4    2
     4     2     5    1
     5     5     6    1
     6    10    11    1
     7     6     7    1
     8    18    19    1
     9    11    12    1
    10    11    14    1
    11     7     8   ar
    12     7     9   ar
    13    19    20    1
    14    19    22    1
    15    12    13    2
    16    23    22    1
    17    23    24    1
    18    15    14    1
    19    15    17    1
    20    14    16    1
    21    20    27   am
    22    20    21    2
    23    27    28    1
    24    24    25    1
    25    31    28    1
    26    31    32    1
    27    28    29    1
    28    33    32    1
    29    34    32    1
    30    25    26    1
    31    29    35   am
    32    29    30    2
    33    35    36    1
    34   120   119    2
    35    43    41   am
    36    40    41    1
    37    40    39    1
    38    41    42    2
    39    39    36    1
    40   119   118    1
    41   119   123   am
    42    36    37    1
    43   118   121    1
    44   118   117    1
    45   126   125    2
    46   121   122    1
    47   125   124    1
    48   124   123    1
    49   124   127    1
    50    37    38    2
    51    99    96    1
    52   129   131   ar
    53   129   128   ar
    54   127   128    1
    55   103   102    2
    56   131   133   ar
    57   107   105   ar
    58   128   130   ar
    59   104   105    1
    60   104   101    1
    61    96    97    1
    62    96    95    1
    63   100    97   am
    64   100   101    1
    65   105   106   ar
    66   148   147   ar
    67   148   146   ar
    68   102   101    1
    69   147   145   ar
    70    77    76   ar
    71    97    98    2
    72   133   134    1
    73   133   132   ar
    74    75    76    1
    75    75    74    1
    76    76    78   ar
    77   130   132   ar
    78    95    89   am
    79    74    71    1
    80    71    70    1
    81    71    72    1
    82   146   144   ar
    83   145   142   ar
    84    73    72    2
    85    89    90    2
    86    89    88    1
    87   144   142   ar
    88   144   143   ar
    89   142   140   ar
    90   116   114   am
    91    88    91    1
    92    88    87    1
    93    91    92    1
    94   143   141   ar
    95    94    92    1
    96    68    67    1
    97    68    69    2
    98   140   139    1
    99   140   141   ar
   100    64    65   ar
   101    64    62   ar
   102    82    81    2
   103   115   114    2
   104   114   113    1
   105    66    67    1
   106    65    63   ar
   107   139   136    1
   108    87    81   am
   109    92    93    1
   110   135   136    1
   111    85    84   ar
   112    81    80    1
   113   136   137    1
   114    51    53   ar
   115    51    49   ar
   116    53    54   ar
   117    48    49    1
   118    48    45    1
   119    49    50   ar
   120    62    61   ar
   121    54    55    1
   122    54    52   ar
   123    50    52   ar
   124    86    84   ar
   125    84    83    1
   126   113   112    1
   127    63    61   ar
   128    80    83    1
   129    80    79    1
   130    61    60    1
   131   137   138    2
   132    44    45    1
   133    45    46    1
   134   112   109    1
   135   110   111    2
   136   110   109    1
   137    56    46   am
   138    56    57    1
   139    46    47    2
   140    60    57    1
   141   109   108    1
   142    57    58    1
   143    58    59    2
