@<TRIPOS>MOLECULE
tmp/6bqgA01.pdb
 85 80 0 0 0
SMALL
GASTEIGER

@<TRIPOS>ATOM
      1  N         12.7150   32.0850   47.1090 N.3   317  CYS317     -0.1221
      2  CA        11.6760   32.8070   47.8480 C.3   317  CYS317      0.1794
      3  C         11.5000   32.2850   49.2620 C.2   317  CYS317      0.2443
      4  O         11.4690   33.1080   50.1990 O.2   317  CYS317     -0.2733
      5  CB        10.3480   32.7390   47.0860 C.3   317  CYS317      0.0970
      6  SG        10.3060   33.6460   45.5270 S.3   317  CYS317     -0.0800
      7  N         11.3740   30.9790   49.5090 N.am  318  PRO318     -0.2729
      8  CA        11.1190   30.5270   50.8870 C.3   318  PRO318      0.1401
      9  C         12.1490   31.0360   51.8790 C.2   318  PRO318      0.2269
     10  O         11.7790   31.5970   52.9170 O.2   318  PRO318     -0.2865
     11  CB        11.1410   28.9980   50.7640 C.3   318  PRO318      0.0296
     12  CG        10.8560   28.7250   49.3260 C.3   318  PRO318      0.0237
     13  CD        11.4960   29.8430   48.5760 C.3   318  PRO318      0.0939
     14  N         12.0100   35.0440   52.3500 N.3   321  ILE321     -0.1231
     15  CA        10.7680   35.4720   52.9830 C.3   321  ILE321      0.1692
     16  C         10.7870   35.1180   54.4650 C.2   321  ILE321      0.2592
     17  O         10.6330   35.9870   55.3320 O.2   321  ILE321     -0.2718
     18  CB         9.5600   34.8510   52.2630 C.3   321  ILE321      0.0266
     19  CG1        9.4970   35.3630   50.8180 C.3   321  ILE321      0.0019
     20  CG2        8.2720   35.1780   53.0130 C.3   321  ILE321      0.0020
     21  CD1        8.5490   34.5880   49.9310 C.3   321  ILE321      0.0001
     22  N         10.9850   33.8350   54.7790 N.am  322  THR322     -0.1953
     23  CA        11.0440   33.4230   56.1780 C.3   322  THR322      0.1897
     24  C         12.1720   34.1400   56.9090 C.2   322  THR322      0.2313
     25  O         12.0150   34.5350   58.0700 O.2   322  THR322     -0.2863
     26  CB        11.2180   31.9060   56.2810 C.3   322  THR322      0.1794
     27  OG1       12.4640   31.5170   55.6840 O.3   322  THR322     -0.2208
     28  CG2       10.0590   31.1780   55.5920 C.3   322  THR322      0.0378
     29  N         10.7900   37.2730   57.9950 N.3   325  LEU325     -0.1245
     30  CA         9.8490   37.1040   59.0970 C.3   325  LEU325      0.1561
     31  C         10.5680   36.7870   60.4050 C.2   325  LEU325      0.2260
     32  O         10.1200   37.1940   61.4810 O.2   325  LEU325     -0.2867
     33  CB         8.8440   36.0040   58.7630 C.3   325  LEU325      0.0270
     34  CG         7.9990   36.1830   57.4980 C.3   325  LEU325      0.0019
     35  CD1        6.7460   35.3090   57.5760 C.3   325  LEU325      0.0001
     36  CD2        7.6240   37.6430   57.2610 C.3   325  LEU325      0.0001
     37  N          5.1430   35.3670   65.5650 N.3   333  CYS333     -0.1221
     38  CA         5.4790   34.1630   64.8230 C.3   333  CYS333      0.1808
     39  C          6.2360   33.1700   65.7000 C.2   333  CYS333      0.2601
     40  O          6.9200   33.5450   66.6580 O.2   333  CYS333     -0.2717
     41  CB         6.3070   34.5230   63.5900 C.3   333  CYS333      0.0970
     42  SG         5.6320   35.9260   62.6560 S.3   333  CYS333     -0.0800
     43  N          6.1000   31.8860   65.3640 N.am  334  ASN334     -0.1974
     44  CA         6.7460   30.8230   66.1260 C.3   334  ASN334      0.1688
     45  C          8.2330   30.8010   65.8000 C.2   334  ASN334      0.2292
     46  O          8.6140   30.6770   64.6330 O.2   334  ASN334     -0.2864
     47  CB         6.1120   29.4720   65.8000 C.3   334  ASN334      0.1181
     48  CG         4.6100   29.5630   65.5940 C.2   334  ASN334      0.2629
     49  OD1        4.0960   30.5890   65.1460 O.2   334  ASN334     -0.2716
     50  ND2        3.8990   28.4890   65.9220 N.am  334  ASN334     -0.0877
     51  N          9.8600   26.8500   65.2420 N.3   337  LEU337     -0.1231
     52  CA         9.5430   26.3670   63.9020 C.3   337  LEU337      0.1693
     53  C         10.2330   27.2050   62.8330 C.2   337  LEU337      0.2591
     54  O         10.5790   26.6870   61.7650 O.2   337  LEU337     -0.2718
     55  CB         8.0270   26.3760   63.6940 C.3   337  LEU337      0.0284
     56  CG         7.5030   25.9880   62.3090 C.3   337  LEU337      0.0019
     57  CD1        7.9160   24.5660   61.9330 C.3   337  LEU337      0.0001
     58  CD2        5.9890   26.1430   62.2650 C.3   337  LEU337      0.0001
     59  N         10.4400   28.4960   63.1030 N.am  338  MET338     -0.1979
     60  CA        11.1370   29.3580   62.1530 C.3   338  MET338      0.1605
     61  C         12.5290   28.8180   61.8540 C.2   338  MET338      0.2287
     62  O         12.9180   28.6780   60.6890 O.2   338  MET338     -0.2864
     63  CB        11.2180   30.7800   62.7100 C.3   338  MET338      0.0413
     64  CG        11.3970   31.8470   61.6530 C.3   338  MET338      0.0598
     65  SD         9.8370   32.2840   60.8580 S.3   338  MET338     -0.1393
     66  CE         9.1110   33.3450   62.1050 C.3   338  MET338      0.0692
     67  N         12.3390   25.5830   59.7980 N.3   341  LEU341     -0.1245
     68  CA        12.1130   25.7850   58.3700 C.3   341  LEU341      0.1561
     69  C         13.3540   26.3550   57.6920 C.2   341  LEU341      0.2260
     70  O         13.7910   25.8500   56.6520 O.2   341  LEU341     -0.2867
     71  CB        10.9140   26.7100   58.1580 C.3   341  LEU341      0.0270
     72  CG         9.5510   26.1890   58.6150 C.3   341  LEU341      0.0019
     73  CD1        8.4790   27.2590   58.4050 C.3   341  LEU341      0.0001
     74  CD2        9.1890   24.9100   57.8770 C.3   341  LEU341      0.0001
     75  N         15.2280   25.5870   54.1230 N.3   345  PHE345     -0.1241
     76  CA        15.1620   26.5550   53.0370 C.3   345  PHE345      0.1605
     77  C         16.5460   27.0560   52.6540 C.2   345  PHE345      0.2264
     78  O         16.7500   27.5120   51.5230 O.2   345  PHE345     -0.2867
     79  CB        14.2590   27.7200   53.4420 C.3   345  PHE345      0.0534
     80  CG        12.8310   27.3220   53.6920 C.ar  345  PHE345     -0.0203
     81  CD1       12.3180   26.1470   53.1660 C.ar  345  PHE345     -0.0042
     82  CD2       11.9990   28.1300   54.4440 C.ar  345  PHE345     -0.0042
     83  CE1       11.0060   25.7870   53.3900 C.ar  345  PHE345     -0.0003
     84  CE2       10.6850   27.7740   54.6690 C.ar  345  PHE345     -0.0003
     85  CZ        10.1890   26.6020   54.1440 C.ar  345  PHE345     -0.0000
@<TRIPOS>BOND
     1     6     5    1
     2     5     2    1
     3     1     2    1
     4     2     3    1
     5    13    12    1
     6    13     7    1
     7     3     7   am
     8     3     4    2
     9    12    11    1
    10     7     8    1
    11    21    19    1
    12    11     8    1
    13    19    18    1
    14     8     9    1
    15    78    77    2
    16     9    10    2
    17    18    15    1
    18    18    20    1
    19    14    15    1
    20    77    76    1
    21    15    16    1
    22    76    79    1
    23    76    75    1
    24    81    83   ar
    25    81    80   ar
    26    83    85   ar
    27    79    80    1
    28    80    82   ar
    29    85    84   ar
    30    82    84   ar
    31    16    22   am
    32    16    17    2
    33    22    23    1
    34    28    26    1
    35    27    26    1
    36    23    26    1
    37    23    24    1
    38    70    69    2
    39    24    25    2
    40    36    34    1
    41    34    35    1
    42    34    33    1
    43    69    68    1
    44    74    72    1
    45    29    30    1
    46    71    68    1
    47    71    72    1
    48    68    67    1
    49    73    72    1
    50    33    30    1
    51    30    31    1
    52    31    32    2
    53    62    61    2
    54    65    64    1
    55    65    66    1
    56    64    63    1
    57    54    53    2
    58    61    60    1
    59    57    56    1
    60    60    63    1
    61    60    59    1
    62    58    56    1
    63    56    55    1
    64    42    41    1
    65    53    59   am
    66    53    52    1
    67    41    38    1
    68    55    52    1
    69    52    51    1
    70    46    45    2
    71    38    37    1
    72    38    39    1
    73    49    48    2
    74    43    39   am
    75    43    44    1
    76    48    47    1
    77    48    50   am
    78    39    40    2
    79    47    44    1
    80    45    44    1
