@<TRIPOS>MOLECULE
tmp/6bqhA02.pdb
 99 93 0 0 0
SMALL
GASTEIGER

@<TRIPOS>ATOM
      1  N         34.3560   49.8950   54.7190 N.3    16  VAL16      -0.1245
      2  CA        33.2010   49.8730   53.8260 C.3    16  VAL16       0.1561
      3  C         33.6210   50.1350   52.3850 C.2    16  VAL16       0.2260
      4  O         33.0280   49.5860   51.4470 O.2    16  VAL16      -0.2867
      5  CB        32.1450   50.8880   54.3080 C.3    16  VAL16       0.0252
      6  CG1       31.0980   51.1340   53.2360 C.3    16  VAL16       0.0019
      7  CG2       31.4810   50.3830   55.5770 C.3    16  VAL16       0.0019
      8  N         34.4730   47.0090   50.8290 N.3    19  ILE19      -0.1231
      9  CA        33.2690   46.2280   50.5660 C.3    19  ILE19       0.1692
     10  C         32.5680   46.7260   49.3080 C.2    19  ILE19       0.2591
     11  O         32.1390   45.9300   48.4650 O.2    19  ILE19      -0.2718
     12  CB        32.3380   46.2730   51.7920 C.3    19  ILE19       0.0266
     13  CG1       33.0480   45.6970   53.0230 C.3    19  ILE19       0.0019
     14  CG2       31.0380   45.5250   51.5100 C.3    19  ILE19       0.0020
     15  CD1       32.2480   45.8100   54.3080 C.3    19  ILE19       0.0001
     16  N         32.4530   48.0480   49.1600 N.am   20  ILE20      -0.1980
     17  CA        31.7590   48.6350   48.0160 C.3    20  ILE20       0.1595
     18  C         32.4610   48.2730   46.7130 C.2    20  ILE20       0.2287
     19  O         31.8130   47.9490   45.7090 O.2    20  ILE20      -0.2864
     20  CB        31.6580   50.1620   48.1960 C.3    20  ILE20       0.0276
     21  CG1       30.7430   50.5100   49.3730 C.3    20  ILE20       0.0022
     22  CG2       31.1880   50.8370   46.9110 C.3    20  ILE20       0.0022
     23  CD1       30.7190   51.9910   49.6960 C.3    20  ILE20       0.0001
     24  N         31.9100   44.4890   45.7210 N.3    23  ILE23      -0.1231
     25  CA        30.6030   44.1770   45.1520 C.3    23  ILE23       0.1692
     26  C         30.4780   44.7620   43.7510 C.2    23  ILE23       0.2592
     27  O         30.1460   44.0550   42.7930 O.2    23  ILE23      -0.2718
     28  CB        29.4780   44.6770   46.0740 C.3    23  ILE23       0.0266
     29  CG1       29.5770   43.9990   47.4400 C.3    23  ILE23       0.0019
     30  CG2       28.1170   44.4180   45.4450 C.3    23  ILE23       0.0020
     31  CD1       28.4650   44.3760   48.3890 C.3    23  ILE23       0.0001
     32  N         30.7520   46.0610   43.6110 N.am   24  GLY24      -0.1957
     33  CA        30.5840   46.7100   42.3200 C.3    24  GLY24       0.1869
     34  C         31.5140   46.1650   41.2520 C.2    24  GLY24       0.2309
     35  O         31.1330   46.0510   40.0840 O.2    24  GLY24      -0.2863
     36  N         30.1240   42.8450   40.1840 N.3    27  ILE27      -0.1231
     37  CA        28.8760   43.1140   39.4710 C.3    27  ILE27       0.1692
     38  C         29.1660   43.4280   38.0090 C.2    27  ILE27       0.2591
     39  O         28.4970   42.9250   37.0990 O.2    27  ILE27      -0.2718
     40  CB        28.1010   44.2590   40.1470 C.3    27  ILE27       0.0266
     41  CG1       27.3670   43.7540   41.3900 C.3    27  ILE27       0.0019
     42  CG2       27.1280   44.9030   39.1670 C.3    27  ILE27       0.0020
     43  CD1       26.5880   44.8310   42.1150 C.3    27  ILE27       0.0001
     44  N         30.1820   44.2620   37.7670 N.am   28  LEU28      -0.1980
     45  CA        30.5460   44.6080   36.3970 C.3    28  LEU28       0.1596
     46  C         30.9750   43.3750   35.6110 C.2    28  LEU28       0.2287
     47  O         30.6610   43.2480   34.4210 O.2    28  LEU28      -0.2864
     48  CB        31.6520   45.6620   36.4010 C.3    28  LEU28       0.0297
     49  CG        31.2940   47.0110   37.0340 C.3    28  LEU28       0.0022
     50  CD1       32.5330   47.8800   37.1880 C.3    28  LEU28       0.0001
     51  CD2       30.2350   47.7320   36.2170 C.3    28  LEU28       0.0001
     52  N         27.8510   41.6250   34.6650 N.3    31  MET31      -0.1245
     53  CA        27.2450   42.3400   33.5460 C.3    31  MET31       0.1570
     54  C         27.9810   42.0620   32.2430 C.2    31  MET31       0.2261
     55  O         27.3530   41.8770   31.1930 O.2    31  MET31      -0.2867
     56  CB        27.2370   43.8390   33.8290 C.3    31  MET31       0.0387
     57  CG        26.3180   44.2690   34.9480 C.3    31  MET31       0.0595
     58  SD        26.4790   46.0350   35.2660 S.3    31  MET31      -0.1393
     59  CE        25.1160   46.3170   36.3860 C.3    31  MET31       0.0692
     60  N         29.2950   40.7550   49.9390 N.3    59  LEU59      -0.1245
     61  CA        27.9160   41.0600   50.2920 C.3    59  LEU59       0.1561
     62  C         27.4680   40.3810   51.5820 C.2    59  LEU59       0.2260
     63  O         26.5960   40.9120   52.2790 O.2    59  LEU59      -0.2867
     64  CB        26.9890   40.6550   49.1400 C.3    59  LEU59       0.0270
     65  CG        25.5150   41.0730   49.1670 C.3    59  LEU59       0.0019
     66  CD1       25.3730   42.5800   49.2980 C.3    59  LEU59       0.0001
     67  CD2       24.8200   40.5800   47.9100 C.3    59  LEU59       0.0001
     68  N         29.7350   50.5590   31.3550 N.3   346  TYR346     -0.1241
     69  CA        28.7690   50.3580   32.4320 C.3   346  TYR346      0.1605
     70  C         28.8900   51.4550   33.4810 C.2   346  TYR346      0.2264
     71  O         27.8810   51.9060   34.0370 O.2   346  TYR346     -0.2867
     72  CB        28.9520   48.9830   33.0790 C.3   346  TYR346      0.0534
     73  CG        28.8700   47.8070   32.1300 C.ar  346  TYR346     -0.0201
     74  CD1       28.1680   47.8930   30.9350 C.ar  346  TYR346     -0.0009
     75  CD2       29.5010   46.6070   32.4340 C.ar  346  TYR346     -0.0009
     76  CE1       28.1000   46.8180   30.0670 C.ar  346  TYR346      0.0417
     77  CE2       29.4380   45.5270   31.5720 C.ar  346  TYR346      0.0417
     78  CZ        28.7350   45.6380   30.3910 C.ar  346  TYR346      0.1957
     79  OH        28.6690   44.5660   29.5290 O.3   346  TYR346     -0.2866
     80  N         25.4840   53.6110   32.0890 N.3   350  ASN350     -0.1225
     81  CA        24.4960   53.1120   33.0390 C.3   350  ASN350      0.1785
     82  C         24.5450   53.8510   34.3690 C.2   350  ASN350      0.2597
     83  O         23.5250   54.3810   34.8200 O.2   350  ASN350     -0.2718
     84  CB        24.6840   51.6000   33.2640 C.3   350  ASN350      0.1169
     85  CG        24.1800   50.7580   32.0900 C.2   350  ASN350      0.2627
     86  OD1       23.2140   51.1200   31.4150 O.2   350  ASN350     -0.2716
     87  ND2       24.8350   49.6250   31.8510 N.am  350  ASN350     -0.0877
     88  N         25.7110   53.9170   35.0080 N.am  351  TYR351     -0.1976
     89  CA        25.8530   54.6450   36.2680 C.3   351  TYR351      0.1639
     90  C         25.9690   56.1460   36.0250 C.2   351  TYR351      0.2290
     91  O         26.8140   56.5960   35.2510 O.2   351  TYR351     -0.2864
     92  CB        27.0730   54.1480   37.0490 C.3   351  TYR351      0.0560
     93  CG        26.9250   52.6770   37.4990 C.ar  351  TYR351     -0.0198
     94  CD1       25.7130   52.2360   38.0390 C.ar  351  TYR351     -0.0009
     95  CD2       28.0170   51.8510   37.4000 C.ar  351  TYR351     -0.0009
     96  CE1       25.6730   50.9300   38.5480 C.ar  351  TYR351      0.0417
     97  CE2       27.9750   50.5770   37.8340 C.ar  351  TYR351      0.0417
     98  CZ        26.8090   50.1260   38.4750 C.ar  351  TYR351      0.1957
     99  OH        26.7790   48.8240   38.8470 O.3   351  TYR351     -0.2866
@<TRIPOS>BOND
     1    79    78    1
     2    76    78   ar
     3    76    74   ar
     4    78    77   ar
     5    74    73   ar
     6    55    54    2
     7    68    69    1
     8    86    85    2
     9    77    75   ar
    10    87    85   am
    11    80    81    1
    12    85    84    1
    13    73    75   ar
    14    73    72    1
    15    54    53    1
    16    69    72    1
    17    69    70    1
    18    81    84    1
    19    81    82    1
    20    70    71    2
    21    53    56    1
    22    53    52    1
    23    56    57    1
    24    82    83    2
    25    82    88   am
    26    47    46    2
    27    57    58    1
    28    88    89    1
    29    91    90    2
    30    58    59    1
    31    46    45    1
    32    90    89    1
    33    51    49    1
    34    89    92    1
    35    45    48    1
    36    45    44    1
    37    48    49    1
    38    49    50    1
    39    92    93    1
    40    39    38    2
    41    95    93   ar
    42    95    97   ar
    43    93    94   ar
    44    44    38   am
    45    97    98   ar
    46    38    37    1
    47    94    96   ar
    48    98    96   ar
    49    98    99    1
    50    42    40    1
    51    37    40    1
    52    37    36    1
    53    35    34    2
    54    40    41    1
    55    34    33    1
    56    41    43    1
    57    33    32    1
    58    27    26    2
    59    32    26   am
    60    26    25    1
    61    25    24    1
    62    25    28    1
    63    30    28    1
    64    19    18    2
    65    28    29    1
    66    18    17    1
    67    22    20    1
    68    29    31    1
    69    67    65    1
    70    17    20    1
    71    17    16    1
    72    20    21    1
    73    11    10    2
    74    64    65    1
    75    64    61    1
    76    16    10   am
    77    65    66    1
    78    10     9    1
    79    21    23    1
    80    60    61    1
    81    61    62    1
    82     9     8    1
    83     9    12    1
    84     4     3    2
    85    14    12    1
    86    62    63    2
    87    12    13    1
    88     3     2    1
    89    13    15    1
    90     6     5    1
    91     2     5    1
    92     2     1    1
    93     5     7    1
