@<TRIPOS>MOLECULE
tmp/6bqhA00.pdb
 233 225 0 0 0
SMALL
GASTEIGER

@<TRIPOS>ATOM
      1  N         32.0550   40.4300   59.0440 N.3    65  SER65      -0.1217
      2  CA        33.3950   40.5020   59.6190 C.3    65  SER65       0.1889
      3  C         33.6940   41.9100   60.1120 C.2    65  SER65       0.2288
      4  O         34.2330   42.0970   61.2100 O.2    65  SER65      -0.2866
      5  CB        34.4410   40.0710   58.5920 C.3    65  SER65       0.2089
      6  OG        35.7450   40.4190   59.0370 O.3    65  SER65      -0.2183
      7  N         35.7280   42.5410   68.1860 N.3    73  TYR73      -0.1241
      8  CA        35.5630   41.1000   67.9990 C.3    73  TYR73       0.1605
      9  C         34.6520   40.4680   69.0460 C.2    73  TYR73       0.2264
     10  O         34.7020   39.2560   69.2670 O.2    73  TYR73      -0.2867
     11  CB        36.9240   40.3910   67.9560 C.3    73  TYR73       0.0534
     12  CG        37.7300   40.7880   66.7360 C.ar   73  TYR73      -0.0201
     13  CD1       37.3830   40.3170   65.4770 C.ar   73  TYR73      -0.0009
     14  CD2       38.8170   41.6500   66.8370 C.ar   73  TYR73      -0.0009
     15  CE1       38.1000   40.6780   64.3540 C.ar   73  TYR73       0.0417
     16  CE2       39.5460   42.0180   65.7130 C.ar   73  TYR73       0.0417
     17  CZ        39.1790   41.5270   64.4750 C.ar   73  TYR73       0.1957
     18  OH        39.8860   41.8790   63.3480 O.3    73  TYR73      -0.2866
     19  N         27.1060   32.6140   59.5750 N.3    85  TRP85      -0.1241
     20  CA        28.0990   33.4160   58.8710 C.3    85  TRP85       0.1605
     21  C         29.3740   32.6190   58.6240 C.2    85  TRP85       0.2264
     22  O         29.9800   32.7260   57.5520 O.2    85  TRP85      -0.2867
     23  CB        28.3890   34.6930   59.6610 C.3    85  TRP85       0.0550
     24  CG        29.5980   35.4590   59.1980 C.ar   85  TRP85       0.0003
     25  CD1       29.7430   36.1380   58.0210 C.ar   85  TRP85       0.0946
     26  CD2       30.8230   35.6420   59.9180 C.ar   85  TRP85       0.0152
     27  NE1       30.9870   36.7220   57.9600 N.ar   85  TRP85      -0.2442
     28  CE2       31.6690   36.4340   59.1140 C.ar   85  TRP85       0.0810
     29  CE3       31.2880   35.2100   61.1650 C.ar   85  TRP85       0.0012
     30  CZ2       32.9530   36.8020   59.5160 C.ar   85  TRP85       0.0191
     31  CZ3       32.5630   35.5760   61.5630 C.ar   85  TRP85       0.0001
     32  CH2       33.3810   36.3630   60.7410 C.ar   85  TRP85       0.0015
     33  N         31.0570   32.0510   55.1580 N.3    89  ASP89      -0.1225
     34  CA        32.4650   32.3450   54.9210 C.3    89  ASP89       0.1805
     35  C         33.1530   31.1700   54.2380 C.2    89  ASP89       0.2597
     36  O         33.8510   31.3410   53.2330 O.2    89  ASP89      -0.2718
     37  CB        33.1590   32.6910   56.2400 C.3    89  ASP89       0.1424
     38  CG        34.6410   32.9790   56.0650 C.2    89  ASP89       0.3668
     39  OD1       35.0200   33.5500   55.0210 O.co2  89  ASP89      -0.2456
     40  OD2       35.4270   32.6350   56.9740 O.co2  89  ASP89      -0.2456
     41  N         32.9450   29.9610   54.7620 N.am   90  VAL90      -0.1980
     42  CA        33.6080   28.7810   54.2130 C.3    90  VAL90       0.1595
     43  C         33.1050   28.4870   52.8030 C.2    90  VAL90       0.2287
     44  O         33.8890   28.1810   51.8990 O.2    90  VAL90      -0.2864
     45  CB        33.4100   27.5780   55.1510 C.3    90  VAL90       0.0276
     46  CG1       33.6560   26.2700   54.4070 C.3    90  VAL90       0.0022
     47  CG2       34.3300   27.7010   56.3560 C.3    90  VAL90       0.0022
     48  N         34.3840   31.1470   50.1440 N.3    93  SER93      -0.1202
     49  CA        35.8350   31.1030   50.0010 C.3    93  SER93       0.2020
     50  C         36.2780   29.8290   49.2950 C.2    93  SER93       0.2619
     51  O         37.1650   29.8680   48.4340 O.2    93  SER93      -0.2717
     52  CB        36.5070   31.2320   51.3660 C.3    93  SER93       0.2103
     53  OG        36.4250   32.5650   51.8500 O.3    93  SER93      -0.2182
     54  N         35.6710   28.6920   49.6380 N.am   94  THR94      -0.1952
     55  CA        35.9800   27.4570   48.9240 C.3    94  THR94       0.1897
     56  C         35.5630   27.5520   47.4600 C.2    94  THR94       0.2313
     57  O         36.2950   27.1030   46.5710 O.2    94  THR94      -0.2863
     58  CB        35.3010   26.2630   49.6030 C.3    94  THR94       0.1794
     59  OG1       35.5490   26.3070   51.0130 O.3    94  THR94      -0.2208
     60  CG2       35.8430   24.9550   49.0510 C.3    94  THR94       0.0378
     61  N         38.4800   29.1570   45.3130 N.3    97  ILE97      -0.1245
     62  CA        39.5870   28.2770   44.9470 C.3    97  ILE97       0.1561
     63  C         39.0930   27.1280   44.0710 C.2    97  ILE97       0.2260
     64  O         39.7990   26.6740   43.1620 O.2    97  ILE97      -0.2867
     65  CB        40.3100   27.7720   46.2130 C.3    97  ILE97       0.0252
     66  CG1       41.4230   26.7790   45.8610 C.3    97  ILE97       0.0019
     67  CG2       39.3280   27.1400   47.1830 C.3    97  ILE97       0.0019
     68  CD1       42.6340   27.4070   45.2060 C.3    97  ILE97       0.0001
     69  N         31.2830   21.2200   51.7590 N.3   140  VAL140     -0.1245
     70  CA        32.2750   21.5230   52.7840 C.3   140  VAL140      0.1561
     71  C         31.6880   22.4400   53.8520 C.2   140  VAL140      0.2260
     72  O         32.0210   22.3220   55.0360 O.2   140  VAL140     -0.2867
     73  CB        33.5350   22.1260   52.1360 C.3   140  VAL140      0.0252
     74  CG1       34.5820   22.4520   53.1910 C.3   140  VAL140      0.0019
     75  CG2       34.0940   21.1610   51.1130 C.3   140  VAL140      0.0019
     76  N         34.6240   32.6780   65.9010 N.3   163  VAL163     -0.1231
     77  CA        35.6040   32.1430   64.9610 C.3   163  VAL163      0.1692
     78  C         35.4940   30.6260   64.9740 C.2   163  VAL163      0.2591
     79  O         35.0600   30.0270   65.9610 O.2   163  VAL163     -0.2718
     80  CB        37.0500   32.5850   65.2940 C.3   163  VAL163      0.0266
     81  CG1       37.3610   33.9400   64.6720 C.3   163  VAL163      0.0020
     82  CG2       37.2600   32.6150   66.8010 C.3   163  VAL163      0.0020
     83  N         35.8950   30.0040   63.8680 N.am  164  LEU164     -0.1980
     84  CA        35.8870   28.5490   63.7820 C.3   164  LEU164      0.1596
     85  C         36.9290   27.9810   64.7390 C.2   164  LEU164      0.2287
     86  O         38.1050   28.3520   64.6790 O.2   164  LEU164     -0.2864
     87  CB        36.1580   28.1030   62.3470 C.3   164  LEU164      0.0297
     88  CG        35.8540   26.6420   62.0080 C.3   164  LEU164      0.0022
     89  CD1       34.4920   26.2310   62.5520 C.3   164  LEU164      0.0001
     90  CD2       35.9140   26.4300   60.5040 C.3   164  LEU164      0.0001
     91  N         38.1260   19.7170   62.2310 N.3   169  PHE169     -0.1227
     92  CA        37.5210   20.2270   61.0050 C.3   169  PHE169      0.1736
     93  C         38.4560   21.1940   60.2910 C.2   169  PHE169      0.2595
     94  O         38.6140   21.1170   59.0680 O.2   169  PHE169     -0.2718
     95  CB        36.1840   20.9010   61.3190 C.3   169  PHE169      0.0547
     96  CG        35.3610   21.2200   60.1000 C.ar  169  PHE169     -0.0202
     97  CD1       35.5710   22.3930   59.3880 C.ar  169  PHE169     -0.0042
     98  CD2       34.3740   20.3480   59.6670 C.ar  169  PHE169     -0.0042
     99  CE1       34.8160   22.6860   58.2670 C.ar  169  PHE169     -0.0003
    100  CE2       33.6150   20.6370   58.5480 C.ar  169  PHE169     -0.0003
    101  CZ        33.8370   21.8070   57.8470 C.ar  169  PHE169     -0.0000
    102  N         39.0890   22.1020   61.0370 N.am  170  VAL170     -0.1980
    103  CA        39.9640   23.0970   60.4230 C.3   170  VAL170      0.1595
    104  C         41.1470   22.4220   59.7380 C.2   170  VAL170      0.2287
    105  O         41.5640   22.8280   58.6470 O.2   170  VAL170     -0.2864
    106  CB        40.4190   24.1260   61.4750 C.3   170  VAL170      0.0276
    107  CG1       41.5650   24.9770   60.9370 C.3   170  VAL170      0.0022
    108  CG2       39.2510   25.0090   61.8850 C.3   170  VAL170      0.0022
    109  N         39.7270   19.9250   56.8820 N.3   173  GLY173     -0.1210
    110  CA        39.0540   20.8030   55.9410 C.3   173  GLY173      0.1956
    111  C         40.0090   21.6690   55.1410 C.2   173  GLY173      0.2612
    112  O         39.7830   21.9180   53.9560 O.2   173  GLY173     -0.2717
    113  N         41.0830   22.1490   55.7780 N.am  174  SER174     -0.1952
    114  CA        42.0530   22.9720   55.0610 C.3   174  SER174      0.1924
    115  C         42.6870   22.2090   53.9080 C.2   174  SER174      0.2314
    116  O         42.9680   22.7950   52.8570 O.2   174  SER174     -0.2863
    117  CB        43.1280   23.4860   56.0200 C.3   174  SER174      0.2116
    118  OG        42.6570   24.6120   56.7550 O.3   174  SER174     -0.2180
    119  N         39.5670   21.7660   51.3360 N.3   177  ALA177     -0.1231
    120  CA        39.0390   23.0240   50.8250 C.3   177  ALA177      0.1694
    121  C         40.1080   23.9830   50.3200 C.2   177  ALA177      0.2592
    122  O         39.7680   24.9450   49.6230 O.2   177  ALA177     -0.2718
    123  CB        38.2060   23.7270   51.9020 C.3   177  ALA177      0.0304
    124  N         41.3820   23.7650   50.6380 N.am  178  PHE178     -0.1976
    125  CA        42.3830   24.7210   50.1800 C.3   178  PHE178      0.1639
    126  C         43.6340   24.0480   49.6280 C.2   178  PHE178      0.2290
    127  O         44.0560   24.3450   48.5060 O.2   178  PHE178     -0.2864
    128  CB        42.7620   25.6810   51.3100 C.3   178  PHE178      0.0560
    129  CG        43.6730   26.7880   50.8720 C.ar  178  PHE178     -0.0200
    130  CD1       43.1660   27.8980   50.2140 C.ar  178  PHE178     -0.0042
    131  CD2       45.0360   26.7150   51.1040 C.ar  178  PHE178     -0.0042
    132  CE1       44.0030   28.9160   49.8000 C.ar  178  PHE178     -0.0003
    133  CE2       45.8760   27.7280   50.6940 C.ar  178  PHE178     -0.0003
    134  CZ        45.3600   28.8310   50.0410 C.ar  178  PHE178     -0.0000
    135  N         45.9760   35.0520   43.8790 N.3   284  PHE284     -0.1241
    136  CA        45.1240   34.3680   44.8470 C.3   284  PHE284      0.1605
    137  C         45.9590   33.5380   45.8140 C.2   284  PHE284      0.2264
    138  O         45.7560   33.5920   47.0320 O.2   284  PHE284     -0.2867
    139  CB        44.1040   33.4880   44.1220 C.3   284  PHE284      0.0534
    140  CG        43.1820   32.7350   45.0440 C.ar  284  PHE284     -0.0203
    141  CD1       42.0040   33.3130   45.4880 C.ar  284  PHE284     -0.0042
    142  CD2       43.4890   31.4500   45.4610 C.ar  284  PHE284     -0.0042
    143  CE1       41.1500   32.6270   46.3340 C.ar  284  PHE284     -0.0003
    144  CE2       42.6410   30.7590   46.3090 C.ar  284  PHE284     -0.0003
    145  CZ        41.4700   31.3490   46.7440 C.ar  284  PHE284     -0.0000
    146  N         46.4250   34.6100   49.9880 N.3   288  TRP288     -0.1241
    147  CA        45.8860   33.7260   51.0130 C.3   288  TRP288      0.1605
    148  C         46.9660   33.0050   51.8060 C.2   288  TRP288      0.2264
    149  O         46.6620   32.4430   52.8640 O.2   288  TRP288     -0.2867
    150  CB        44.9360   32.6920   50.3910 C.3   288  TRP288      0.0550
    151  CG        43.5190   33.1720   50.2970 C.ar  288  TRP288      0.0003
    152  CD1       42.8290   33.4800   49.1610 C.ar  288  TRP288      0.0946
    153  CD2       42.6190   33.4060   51.3890 C.ar  288  TRP288      0.0152
    154  NE1       41.5530   33.8870   49.4770 N.ar  288  TRP288     -0.2442
    155  CE2       41.4000   33.8500   50.8380 C.ar  288  TRP288      0.0810
    156  CE3       42.7260   33.2800   52.7780 C.ar  288  TRP288      0.0012
    157  CZ2       40.2970   34.1720   51.6280 C.ar  288  TRP288      0.0191
    158  CZ3       41.6290   33.6000   53.5610 C.ar  288  TRP288      0.0001
    159  CH2       40.4320   34.0410   52.9840 C.ar  288  TRP288      0.0015
    160  N         47.6400   34.1500   55.7840 N.3   291  PHE291     -0.1227
    161  CA        46.6160   33.5860   56.6560 C.3   291  PHE291      0.1736
    162  C         46.8220   32.0870   56.8420 C.2   291  PHE291      0.2595
    163  O         46.8480   31.5870   57.9740 O.2   291  PHE291     -0.2718
    164  CB        45.2280   33.8790   56.0830 C.3   291  PHE291      0.0547
    165  CG        44.1120   33.1420   56.7750 C.ar  291  PHE291     -0.0202
    166  CD1       43.5370   33.6470   57.9310 C.ar  291  PHE291     -0.0042
    167  CD2       43.6260   31.9490   56.2580 C.ar  291  PHE291     -0.0042
    168  CE1       42.5070   32.9710   58.5650 C.ar  291  PHE291     -0.0003
    169  CE2       42.6010   31.2700   56.8860 C.ar  291  PHE291     -0.0003
    170  CZ        42.0390   31.7810   58.0410 C.ar  291  PHE291     -0.0000
    171  N         46.9810   31.3490   55.7400 N.am  292  PHE292     -0.1976
    172  CA        47.0320   29.8940   55.8470 C.3   292  PHE292      0.1639
    173  C         48.3470   29.4240   56.4530 C.2   292  PHE292      0.2290
    174  O         48.3660   28.4550   57.2200 O.2   292  PHE292     -0.2864
    175  CB        46.7950   29.2480   54.4850 C.3   292  PHE292      0.0560
    176  CG        45.3480   28.9390   54.2150 C.ar  292  PHE292     -0.0200
    177  CD1       44.7680   27.7840   54.7180 C.ar  292  PHE292     -0.0042
    178  CD2       44.5670   29.8020   53.4650 C.ar  292  PHE292     -0.0042
    179  CE1       43.4390   27.4940   54.4780 C.ar  292  PHE292     -0.0003
    180  CE2       43.2370   29.5180   53.2210 C.ar  292  PHE292     -0.0003
    181  CZ        42.6710   28.3600   53.7280 C.ar  292  PHE292     -0.0000
    182  N         48.0960   30.1740   60.1150 N.3   295  ASN295     -0.1240
    183  CA        47.1370   29.2570   60.7230 C.3   295  ASN295      0.1653
    184  C         47.7440   27.8720   60.9250 C.2   295  ASN295      0.2266
    185  O         47.6740   27.3060   62.0230 O.2   295  ASN295     -0.2867
    186  CB        45.8780   29.1670   59.8640 C.3   295  ASN295      0.1155
    187  CG        44.6160   29.3620   60.6690 C.2   295  ASN295      0.2627
    188  OD1       44.2720   28.5360   61.5120 O.2   295  ASN295     -0.2716
    189  ND2       43.9130   30.4600   60.4120 N.am  295  ASN295     -0.0877
    190  N         46.7890   35.4160   66.6590 N.3   311  GLU311     -0.1245
    191  CA        45.4430   35.9180   66.4120 C.3   311  GLU311      0.1567
    192  C         45.4760   37.3400   65.8720 C.2   311  GLU311      0.2260
    193  O         44.7210   37.6790   64.9530 O.2   311  GLU311     -0.2867
    194  CB        44.6140   35.8520   67.6920 C.3   311  GLU311      0.0388
    195  CG        43.1560   36.2130   67.4830 C.3   311  GLU311      0.1160
    196  CD        42.5780   36.9890   68.6460 C.2   311  GLU311      0.3649
    197  OE1       43.3080   37.2130   69.6340 O.co2 311  GLU311     -0.2457
    198  OE2       41.3940   37.3800   68.5680 O.co2 311  GLU311     -0.2457
    199  N         46.4870   37.2120   62.3390 N.3   314  LEU314     -0.1231
    200  CA        45.4200   36.6420   61.5270 C.3   314  LEU314      0.1693
    201  C         44.2630   37.6140   61.3360 C.2   314  LEU314      0.2592
    202  O         43.5450   37.5190   60.3330 O.2   314  LEU314     -0.2718
    203  CB        44.9230   35.3410   62.1540 C.3   314  LEU314      0.0284
    204  CG        45.8530   34.1420   61.9750 C.3   314  LEU314      0.0019
    205  CD1       45.2990   32.9200   62.6850 C.3   314  LEU314      0.0001
    206  CD2       46.0670   33.8570   60.4970 C.3   314  LEU314      0.0001
    207  N         44.0570   38.5420   62.2770 N.am  315  ASN315     -0.1974
    208  CA        43.0130   39.5470   62.0850 C.3   315  ASN315      0.1688
    209  C         43.2860   40.3800   60.8400 C.2   315  ASN315      0.2292
    210  O         42.3590   40.7300   60.0990 O.2   315  ASN315     -0.2864
    211  CB        42.9020   40.4500   63.3140 C.3   315  ASN315      0.1181
    212  CG        42.5950   39.6820   64.5830 C.2   315  ASN315      0.2629
    213  OD1       42.9780   40.0930   65.6790 O.2   315  ASN315     -0.2716
    214  ND2       41.9130   38.5540   64.4410 N.am  315  ASN315     -0.0877
    215  N         43.4620   37.8380   57.3750 N.3   318  VAL318     -0.1245
    216  CA        42.2150   37.3910   56.7650 C.3   318  VAL318      0.1561
    217  C         41.6960   38.4310   55.7760 C.2   318  VAL318      0.2260
    218  O         41.1060   38.0800   54.7460 O.2   318  VAL318     -0.2867
    219  CB        41.1710   37.0530   57.8490 C.3   318  VAL318      0.0252
    220  CG1       40.7140   38.3070   58.5870 C.3   318  VAL318      0.0019
    221  CG2       39.9900   36.3120   57.2380 C.3   318  VAL318      0.0019
    222  N         40.6520   38.4310   51.9510 N.3   322  TYR322     -0.1241
    223  CA        39.3320   38.9060   51.5430 C.3   322  TYR322      0.1605
    224  C         39.4270   39.8790   50.3750 C.2   322  TYR322      0.2264
    225  O         38.6370   39.8060   49.4260 O.2   322  TYR322     -0.2867
    226  CB        38.6150   39.5550   52.7260 C.3   322  TYR322      0.0534
    227  CG        37.9500   38.5470   53.6280 C.ar  322  TYR322     -0.0201
    228  CD1       37.6730   37.2640   53.1740 C.ar  322  TYR322     -0.0009
    229  CD2       37.6000   38.8720   54.9330 C.ar  322  TYR322     -0.0009
    230  CE1       37.0660   36.3360   53.9900 C.ar  322  TYR322      0.0417
    231  CE2       36.9890   37.9440   55.7590 C.ar  322  TYR322      0.0417
    232  CZ        36.7260   36.6770   55.2770 C.ar  322  TYR322      0.1957
    233  OH        36.1220   35.7360   56.0740 O.3   322  TYR322     -0.2866
@<TRIPOS>BOND
     1    64    63    2
     2   135   136    1
     3    63    62    1
     4   139   136    1
     5   139   140    1
     6   136   137    1
     7    62    61    1
     8    62    65    1
     9   140   142   ar
    10   140   141   ar
    11    68    66    1
    12   142   144   ar
    13   141   143   ar
    14   137   138    2
    15    66    65    1
    16    65    67    1
    17   144   145   ar
    18   143   145   ar
    19    57    56    2
    20    56    55    1
    21    51    50    2
    22   127   126    2
    23    55    58    1
    24    55    54    1
    25    60    58    1
    26   152   154   ar
    27   152   151   ar
    28    50    54   am
    29    50    49    1
    30   225   224    2
    31   154   155   ar
    32    58    59    1
    33   122   121    2
    34   126   125    1
    35   132   134   ar
    36   132   130   ar
    37   146   147    1
    38    49    48    1
    39    49    52    1
    40   134   133   ar
    41   125   124    1
    42   125   128    1
    43   130   129   ar
    44   151   150    1
    45   151   153   ar
    46   121   124   am
    47   121   120    1
    48   224   223    1
    49   150   147    1
    50   133   131   ar
    51   120   119    1
    52   120   123    1
    53   155   153   ar
    54   155   157   ar
    55   129   131   ar
    56   129   128    1
    57   147   148    1
    58    75    73    1
    59    52    53    1
    60   153   156   ar
    61   223   222    1
    62   223   226    1
    63   157   159   ar
    64    69    70    1
    65   148   149    2
    66    44    43    2
    67    73    70    1
    68    73    74    1
    69   226   227    1
    70   156   158   ar
    71    70    71    1
    72    43    42    1
    73   116   115    2
    74   159   158   ar
    75   228   227   ar
    76   228   230   ar
    77   180   178   ar
    78   180   181   ar
    79    36    35    2
    80   178   176   ar
    81   227   229   ar
    82   181   179   ar
    83    71    72    2
    84   115   114    1
    85   112   111    2
    86   230   232   ar
    87    42    41    1
    88    42    45    1
    89   176   175    1
    90   176   177   ar
    91    35    41   am
    92    35    34    1
    93    46    45    1
    94   179   177   ar
    95   175   172    1
    96   218   217    2
    97    34    33    1
    98    34    37    1
    99   229   231   ar
   100    39    38   ar
   101   114   113    1
   102   114   117    1
   103   111   113   am
   104   111   110    1
   105    45    47    1
   106   232   231   ar
   107   232   233    1
   108   171   172    1
   109   171   162   am
   110   217   216    1
   111   160   161    1
   112   172   173    1
   113   110   109    1
   114   117   118    1
   115    38    37    1
   116    38    40   ar
   117   164   161    1
   118   164   165    1
   119   167   165   ar
   120   167   169   ar
   121   173   174    2
   122   161   162    1
   123   216   215    1
   124   216   219    1
   125   165   166   ar
   126   162   163    2
   127   169   170   ar
   128   221   219    1
   129    22    21    2
   130   101    99   ar
   131   101   100   ar
   132   219   220    1
   133   166   168   ar
   134    27    25   ar
   135    27    28   ar
   136    25    24   ar
   137   170   168   ar
   138    99    97   ar
   139   100    98   ar
   140     5     6    1
   141     5     2    1
   142    21    20    1
   143   105   104    2
   144    20    19    1
   145    20    23    1
   146     1     2    1
   147    94    93    2
   148    28    30   ar
   149    28    26   ar
   150    24    23    1
   151    24    26   ar
   152    97    96   ar
   153    30    32   ar
   154     2     3    1
   155    98    96   ar
   156   104   103    1
   157   186   187    1
   158   186   183    1
   159    26    29   ar
   160   210   209    2
   161    96    95    1
   162     3     4    2
   163   182   183    1
   164    93    92    1
   165    93   102   am
   166   202   201    2
   167   189   187   am
   168   103   102    1
   169   103   106    1
   170   206   204    1
   171    90    88    1
   172   187   188    2
   173   183   184    1
   174    32    31   ar
   175   209   208    1
   176   184   185    2
   177   107   106    1
   178    92    95    1
   179    92    91    1
   180    29    31   ar
   181   201   200    1
   182   201   207   am
   183   106   108    1
   184   200   203    1
   185   200   199    1
   186   204   203    1
   187   204   205    1
   188    88    87    1
   189    88    89    1
   190   208   207    1
   191   208   211    1
   192    87    84    1
   193   211   212    1
   194    18    17    1
   195    84    83    1
   196    84    85    1
   197    83    78   am
   198    15    17   ar
   199    15    13   ar
   200   214   212   am
   201    17    16   ar
   202   212   213    2
   203    81    80    1
   204    86    85    2
   205   193   192    2
   206    77    78    1
   207    77    80    1
   208    77    76    1
   209    78    79    2
   210    80    82    1
   211    13    12   ar
   212    16    14   ar
   213   192   191    1
   214   191   190    1
   215   191   194    1
   216    12    14   ar
   217    12    11    1
   218   195   194    1
   219   195   196    1
   220    11     8    1
   221     8     7    1
   222     8     9    1
   223   198   196   ar
   224   196   197   ar
   225     9    10    2
