@<TRIPOS>MOLECULE
tmp/6bqhA05.pdb
 80 73 0 0 0
SMALL
GASTEIGER

@<TRIPOS>ATOM
      1  N         37.8680   26.6500   44.3160 N.3    98  MET98      -0.1245
      2  CA        37.3300   25.5650   43.4980 C.3    98  MET98       0.1570
      3  C         37.0620   26.0160   42.0660 C.2    98  MET98       0.2261
      4  O         37.1160   25.1960   41.1420 O.2    98  MET98      -0.2867
      5  CB        36.0530   25.0020   44.1290 C.3    98  MET98       0.0387
      6  CG        36.2740   24.2160   45.4240 C.3    98  MET98       0.0595
      7  SD        37.2770   22.7270   45.2330 S.3    98  MET98      -0.1393
      8  CE        37.1980   22.0420   46.8900 C.3    98  MET98       0.0692
      9  N         40.7260   26.2870   40.4340 N.3   101  CYS101     -0.1221
     10  CA        41.2250   24.9400   40.1880 C.3   101  CYS101      0.1808
     11  C         40.4820   24.2770   39.0350 C.2   101  CYS101      0.2601
     12  O         41.0930   23.5810   38.2150 O.2   101  CYS101     -0.2717
     13  CB        41.1050   24.1030   41.4610 C.3   101  CYS101      0.0970
     14  SG        41.4640   22.3510   41.2330 S.3   101  CYS101     -0.0800
     15  N         39.1640   24.4820   38.9560 N.am  102  ALA102     -0.1979
     16  CA        38.3860   23.9030   37.8650 C.3   102  ALA102      0.1597
     17  C         38.7590   24.5260   36.5250 C.2   102  ALA102      0.2287
     18  O         38.8250   23.8260   35.5080 O.2   102  ALA102     -0.2864
     19  CB        36.8920   24.0710   38.1350 C.3   102  ALA102      0.0319
     20  N         42.0500   22.9980   35.6700 N.3   105  LEU105     -0.1245
     21  CA        41.9230   21.5770   35.3720 C.3   105  LEU105      0.1561
     22  C         41.2430   21.3650   34.0260 C.2   105  LEU105      0.2260
     23  O         41.6890   20.5460   33.2160 O.2   105  LEU105     -0.2867
     24  CB        41.1550   20.8760   36.4920 C.3   105  LEU105      0.0270
     25  CG        41.3910   19.3760   36.6480 C.3   105  LEU105      0.0019
     26  CD1       41.1670   18.9620   38.0900 C.3   105  LEU105      0.0001
     27  CD2       40.4710   18.6000   35.7270 C.3   105  LEU105      0.0001
     28  N         29.3880   21.0850   39.8600 N.3   132  ILE132     -0.1231
     29  CA        30.2160   20.2830   40.7550 C.3   132  ILE132      0.1692
     30  C         31.0660   21.1720   41.6610 C.2   132  ILE132      0.2591
     31  O         31.3520   20.7990   42.8040 O.2   132  ILE132     -0.2718
     32  CB        31.0850   19.2840   39.9640 C.3   132  ILE132      0.0266
     33  CG1       32.2650   19.9910   39.2880 C.3   132  ILE132      0.0019
     34  CG2       30.2460   18.5440   38.9350 C.3   132  ILE132      0.0020
     35  CD1       33.3520   19.0500   38.8190 C.3   132  ILE132      0.0001
     36  N         31.4720   22.3570   41.1960 N.am  133  VAL133     -0.1980
     37  CA        32.2770   23.2090   42.0660 C.3   133  VAL133      0.1595
     38  C         31.4100   23.8510   43.1420 C.2   133  VAL133      0.2287
     39  O         31.9020   24.1640   44.2320 O.2   133  VAL133     -0.2864
     40  CB        33.0560   24.2650   41.2580 C.3   133  VAL133      0.0276
     41  CG1       33.8800   23.6030   40.1640 C.3   133  VAL133      0.0022
     42  CG2       32.1260   25.3150   40.6780 C.3   133  VAL133      0.0022
     43  N         30.5310   20.6760   45.6560 N.3   136  ILE136     -0.1245
     44  CA        31.6000   20.4520   46.6220 C.3   136  ILE136      0.1561
     45  C         31.6320   21.5760   47.6500 C.2   136  ILE136      0.2260
     46  O         31.8200   21.3320   48.8470 O.2   136  ILE136     -0.2867
     47  CB        32.9540   20.3060   45.9040 C.3   136  ILE136      0.0252
     48  CG1       32.9200   19.1430   44.9120 C.3   136  ILE136      0.0019
     49  CG2       34.0730   20.0910   46.9140 C.3   136  ILE136      0.0019
     50  CD1       34.1160   19.1000   43.9860 C.3   136  ILE136      0.0001
     51  N         41.1270   19.5770   52.1980 N.3   176  VAL176     -0.1245
     52  CA        40.0960   19.3860   51.1820 C.3   176  VAL176      0.1561
     53  C         39.7230   20.7120   50.5330 C.2   176  VAL176      0.2260
     54  O         39.5880   20.8020   49.3070 O.2   176  VAL176     -0.2867
     55  CB        38.8630   18.6950   51.7920 C.3   176  VAL176      0.0252
     56  CG1       37.7960   18.4860   50.7250 C.3   176  VAL176      0.0019
     57  CG2       39.2540   17.3670   52.4250 C.3   176  VAL176      0.0019
     58  N         44.4670   20.8400   48.7260 N.3   180  ILE180     -0.1231
     59  CA        44.3610   19.9390   47.5780 C.3   180  ILE180      0.1678
     60  C         43.9820   20.7250   46.3240 C.2   180  ILE180      0.2434
     61  O         44.6480   20.5620   45.2900 O.2   180  ILE180     -0.2733
     62  CB        43.3700   18.7910   47.8400 C.3   180  ILE180      0.0265
     63  CG1       43.8230   17.9490   49.0330 C.3   180  ILE180      0.0019
     64  CG2       43.2450   17.9120   46.6010 C.3   180  ILE180      0.0020
     65  CD1       42.7860   16.9490   49.4940 C.3   180  ILE180      0.0001
     66  N         42.9440   21.5760   46.3410 N.am  181  PRO181     -0.2729
     67  CA        42.6370   22.3460   45.1220 C.3   181  PRO181      0.1401
     68  C         43.7630   23.2680   44.6950 C.2   181  PRO181      0.2269
     69  O         43.9500   23.4920   43.4920 O.2   181  PRO181     -0.2865
     70  CB        41.3830   23.1390   45.5130 C.3   181  PRO181      0.0296
     71  CG        40.7840   22.3720   46.6260 C.3   181  PRO181      0.0237
     72  CD        41.9460   21.8390   47.3940 C.3   181  PRO181      0.0939
     73  N         46.3680   21.1290   42.9060 N.3   184  ILE184     -0.1245
     74  CA        45.9400   20.7680   41.5590 C.3   184  ILE184      0.1561
     75  C         46.0520   21.9630   40.6210 C.2   184  ILE184      0.2260
     76  O         46.4900   21.8280   39.4710 O.2   184  ILE184     -0.2867
     77  CB        44.5100   20.2020   41.5880 C.3   184  ILE184      0.0252
     78  CG1       44.4740   18.9260   42.4290 C.3   184  ILE184      0.0019
     79  CG2       44.0070   19.9460   40.1770 C.3   184  ILE184      0.0019
     80  CD1       43.0800   18.4700   42.7850 C.3   184  ILE184      0.0001
@<TRIPOS>BOND
     1    23    22    2
     2    22    21    1
     3    21    20    1
     4    21    24    1
     5    18    17    2
     6    27    25    1
     7    24    25    1
     8    17    16    1
     9    25    26    1
    10    16    19    1
    11    16    15    1
    12    12    11    2
    13    35    33    1
    14    34    32    1
    15    15    11   am
    16    11    10    1
    17    33    32    1
    18    76    75    2
    19    28    29    1
    20    32    29    1
    21    41    40    1
    22    79    77    1
    23    10     9    1
    24    10    13    1
    25    75    74    1
    26    42    40    1
    27    29    30    1
    28     4     3    2
    29    36    30   am
    30    36    37    1
    31    14    13    1
    32    40    37    1
    33    74    77    1
    34    74    73    1
    35    77    78    1
    36    30    31    2
    37    37    38    1
    38     3     2    1
    39    78    80    1
    40    38    39    2
    41    69    68    2
    42     2     5    1
    43     2     1    1
    44    50    48    1
    45     5     6    1
    46    68    67    1
    47    48    47    1
    48    67    70    1
    49    67    66    1
    50     7     6    1
    51     7     8    1
    52    61    60    2
    53    70    71    1
    54    43    44    1
    55    47    44    1
    56    47    49    1
    57    60    66   am
    58    60    59    1
    59    66    72    1
    60    64    62    1
    61    44    45    1
    62    71    72    1
    63    59    62    1
    64    59    58    1
    65    45    46    2
    66    62    63    1
    67    63    65    1
    68    54    53    2
    69    53    52    1
    70    56    55    1
    71    52    55    1
    72    52    51    1
    73    55    57    1
