@<TRIPOS>MOLECULE
tmp/6bqhA06.pdb
 89 82 0 0 0
SMALL
GASTEIGER

@<TRIPOS>ATOM
      1  N         29.8350   40.3270   36.1580 N.3    30  ILE30      -0.1245
      2  CA        28.5820   39.6360   35.8700 C.3    30  ILE30       0.1561
      3  C         27.8760   40.2890   34.6920 C.2    30  ILE30       0.2260
      4  O         27.3610   39.6050   33.8000 O.2    30  ILE30      -0.2867
      5  CB        27.6870   39.6110   37.1230 C.3    30  ILE30       0.0252
      6  CG1       28.4130   38.9270   38.2830 C.3    30  ILE30       0.0019
      7  CG2       26.3710   38.9060   36.8270 C.3    30  ILE30       0.0019
      8  CD1       27.6950   39.0380   39.6100 C.3    30  ILE30       0.0001
      9  N         27.4640   38.5560   30.9020 N.3    34  SER34      -0.1217
     10  CA        26.0650   38.3580   30.5400 C.3    34  SER34       0.1889
     11  C         25.6920   39.1000   29.2630 C.2    34  SER34       0.2288
     12  O         24.8540   38.6160   28.4950 O.2    34  SER34      -0.2866
     13  CB        25.1540   38.8010   31.6910 C.3    34  SER34       0.2089
     14  OG        25.3800   38.0190   32.8590 O.3    34  SER34      -0.2183
     15  N         32.3580   34.3840   35.5730 N.3    48  MET48      -0.1245
     16  CA        31.1210   34.9850   36.0610 C.3    48  MET48       0.1570
     17  C         30.6540   34.3070   37.3410 C.2    48  MET48       0.2261
     18  O         30.3670   34.9750   38.3420 O.2    48  MET48      -0.2867
     19  CB        30.0370   34.9060   34.9860 C.3    48  MET48       0.0387
     20  CG        28.6540   35.3230   35.4730 C.3    48  MET48       0.0595
     21  SD        27.3950   35.0590   34.2130 S.3    48  MET48      -0.1393
     22  CE        25.9220   35.6400   35.0590 C.3    48  MET48       0.0692
     23  N         30.2330   35.7530   41.0210 N.3    52  ILE52      -0.1245
     24  CA        29.0750   35.6020   41.8940 C.3    52  ILE52       0.1561
     25  C         29.5070   35.1720   43.2910 C.2    52  ILE52       0.2260
     26  O         28.9240   35.6140   44.2880 O.2    52  ILE52      -0.2867
     27  CB        28.0610   34.6210   41.2740 C.3    52  ILE52       0.0252
     28  CG1       27.5030   35.2010   39.9690 C.3    52  ILE52       0.0019
     29  CG2       26.9200   34.3290   42.2370 C.3    52  ILE52       0.0019
     30  CD1       26.4210   34.3620   39.3250 C.3    52  ILE52       0.0001
     31  N         31.3210   38.3210   44.7360 N.3    55  MET55      -0.1230
     32  CA        30.3490   39.3430   45.1000 C.3    55  MET55       0.1702
     33  C         29.6220   38.9730   46.3840 C.2    55  MET55       0.2592
     34  O         29.3450   39.8470   47.2130 O.2    55  MET55      -0.2718
     35  CB        29.3480   39.5610   43.9670 C.3    55  MET55       0.0401
     36  CG        28.3520   40.6710   44.2460 C.3    55  MET55       0.0596
     37  SD        26.9760   40.6610   43.0850 S.3    55  MET55      -0.1393
     38  CE        26.2020   39.1010   43.5020 C.3    55  MET55       0.0692
     39  N         29.3240   37.6850   46.5750 N.am   56  LEU56      -0.1980
     40  CA        28.6660   37.2370   47.7960 C.3    56  LEU56       0.1596
     41  C         29.6050   37.2070   48.9930 C.2    56  LEU56       0.2287
     42  O         29.1290   37.2250   50.1330 O.2    56  LEU56      -0.2864
     43  CB        28.0450   35.8560   47.5830 C.3    56  LEU56       0.0297
     44  CG        26.8470   35.8440   46.6290 C.3    56  LEU56       0.0022
     45  CD1       26.2890   34.4370   46.4610 C.3    56  LEU56       0.0001
     46  CD2       25.7760   36.7990   47.1200 C.3    56  LEU56       0.0001
     47  N         29.2950   40.7550   49.9390 N.3    59  LEU59      -0.1231
     48  CA        27.9160   41.0600   50.2920 C.3    59  LEU59       0.1693
     49  C         27.4680   40.3810   51.5820 C.2    59  LEU59       0.2591
     50  O         26.5960   40.9120   52.2790 O.2    59  LEU59      -0.2718
     51  CB        26.9890   40.6550   49.1400 C.3    59  LEU59       0.0284
     52  CG        25.5150   41.0730   49.1670 C.3    59  LEU59       0.0019
     53  CD1       25.3730   42.5800   49.2980 C.3    59  LEU59       0.0001
     54  CD2       24.8200   40.5800   47.9100 C.3    59  LEU59       0.0001
     55  N         28.0550   39.2340   51.9290 N.am   60  LEU60      -0.1980
     56  CA        27.5800   38.4350   53.0540 C.3    60  LEU60       0.1596
     57  C         28.6540   38.0300   54.0550 C.2    60  LEU60       0.2287
     58  O         28.3020   37.7100   55.1960 O.2    60  LEU60      -0.2864
     59  CB        26.8870   37.1610   52.5460 C.3    60  LEU60       0.0297
     60  CG        25.6330   37.3710   51.6960 C.3    60  LEU60       0.0022
     61  CD1       25.2380   36.0830   50.9980 C.3    60  LEU60       0.0001
     62  CD2       24.4860   37.8910   52.5510 C.3    60  LEU60       0.0001
     63  N         28.7750   30.5340   55.6240 N.3    88  LEU88      -0.1245
     64  CA        28.8130   31.3840   54.4370 C.3    88  LEU88       0.1561
     65  C         30.2300   31.8530   54.1290 C.2    88  LEU88       0.2260
     66  O         30.5810   32.0370   52.9580 O.2    88  LEU88      -0.2867
     67  CB        27.8820   32.5860   54.6090 C.3    88  LEU88       0.0270
     68  CG        26.3860   32.2750   54.5200 C.3    88  LEU88       0.0019
     69  CD1       25.5600   33.5390   54.6800 C.3    88  LEU88       0.0001
     70  CD2       26.0660   31.5880   53.2020 C.3    88  LEU88       0.0001
     71  N         31.7890   28.5800   52.5960 N.3    91  LEU91      -0.1231
     72  CA        31.2040   28.2270   51.3040 C.3    91  LEU91       0.1693
     73  C         31.7740   29.0820   50.1800 C.2    91  LEU91       0.2592
     74  O         32.2740   28.5580   49.1770 O.2    91  LEU91      -0.2718
     75  CB        29.6830   28.3740   51.3640 C.3    91  LEU91       0.0284
     76  CG        28.9350   28.4950   50.0330 C.3    91  LEU91       0.0019
     77  CD1       29.0760   27.2320   49.1930 C.3    91  LEU91       0.0001
     78  CD2       27.4710   28.8200   50.2830 C.3    91  LEU91       0.0001
     79  N         31.7050   30.4040   50.3250 N.am   92  PHE92      -0.1976
     80  CA        32.1110   31.2730   49.2280 C.3    92  PHE92       0.1639
     81  C         33.6250   31.3090   49.0580 C.2    92  PHE92       0.2290
     82  O         34.1160   31.4720   47.9350 O.2    92  PHE92      -0.2864
     83  CB        31.5440   32.6720   49.4480 C.3    92  PHE92       0.0560
     84  CG        30.0420   32.7150   49.4420 C.ar   92  PHE92      -0.0200
     85  CD1       29.3230   32.0260   48.4750 C.ar   92  PHE92      -0.0042
     86  CD2       29.3480   33.4180   50.4150 C.ar   92  PHE92      -0.0042
     87  CE1       27.9440   32.0510   48.4700 C.ar   92  PHE92      -0.0003
     88  CE2       27.9680   33.4450   50.4140 C.ar   92  PHE92      -0.0003
     89  CZ        27.2630   32.7620   49.4400 C.ar   92  PHE92      -0.0000
@<TRIPOS>BOND
     1    12    11    2
     2    11    10    1
     3    10     9    1
     4    10    13    1
     5    13    14    1
     6     4     3    2
     7    21    22    1
     8    21    20    1
     9     3     2    1
    10    19    20    1
    11    19    16    1
    12    15    16    1
    13     2     1    1
    14     2     5    1
    15    16    17    1
    16     7     5    1
    17     5     6    1
    18    17    18    2
    19     6     8    1
    20    30    28    1
    21    28    27    1
    22    23    24    1
    23    27    24    1
    24    27    29    1
    25    24    25    1
    26    37    38    1
    27    37    36    1
    28    25    26    2
    29    35    36    1
    30    35    32    1
    31    31    32    1
    32    32    33    1
    33    33    39   am
    34    33    34    2
    35    45    44    1
    36    39    40    1
    37    44    46    1
    38    44    43    1
    39    43    40    1
    40    40    41    1
    41    54    52    1
    42    82    81    2
    43    87    85   ar
    44    87    89   ar
    45    85    84   ar
    46    41    42    2
    47    81    80    1
    48    51    52    1
    49    51    48    1
    50    52    53    1
    51    74    73    2
    52    77    76    1
    53    80    83    1
    54    80    79    1
    55    89    88   ar
    56    84    83    1
    57    84    86   ar
    58    47    48    1
    59    76    78    1
    60    76    75    1
    61    73    79   am
    62    73    72    1
    63    48    49    1
    64    88    86   ar
    65    61    60    1
    66    72    75    1
    67    72    71    1
    68    49    55   am
    69    49    50    2
    70    60    59    1
    71    60    62    1
    72    55    56    1
    73    59    56    1
    74    66    65    2
    75    56    57    1
    76    70    68    1
    77    57    58    2
    78    65    64    1
    79    64    67    1
    80    64    63    1
    81    68    67    1
    82    68    69    1
