@<TRIPOS>MOLECULE
tmp/6bqhA07.pdb
 107 101 0 0 0
SMALL
GASTEIGER

@<TRIPOS>ATOM
      1  N         32.3720   31.9130   31.4680 N.3    45  TYR45      -0.1241
      2  CA        31.2860   31.5440   32.3700 C.3    45  TYR45       0.1605
      3  C         31.8320   31.1740   33.7440 C.2    45  TYR45       0.2264
      4  O         31.2170   31.4850   34.7700 O.2    45  TYR45      -0.2867
      5  CB        30.4680   30.3910   31.7820 C.3    45  TYR45       0.0534
      6  CG        29.5770   30.7750   30.6140 C.ar   45  TYR45      -0.0201
      7  CD1       28.5640   31.7150   30.7660 C.ar   45  TYR45      -0.0009
      8  CD2       29.7300   30.1770   29.3680 C.ar   45  TYR45      -0.0009
      9  CE1       27.7410   32.0650   29.7040 C.ar   45  TYR45       0.0417
     10  CE2       28.9150   30.5200   28.2980 C.ar   45  TYR45       0.0417
     11  CZ        27.9210   31.4640   28.4730 C.ar   45  TYR45       0.1957
     12  OH        27.1050   31.8070   27.4150 O.3    45  TYR45      -0.2866
     13  N         32.3580   34.3840   35.5730 N.3    48  MET48      -0.1230
     14  CA        31.1210   34.9850   36.0610 C.3    48  MET48       0.1702
     15  C         30.6540   34.3070   37.3410 C.2    48  MET48       0.2593
     16  O         30.3670   34.9750   38.3420 O.2    48  MET48      -0.2718
     17  CB        30.0370   34.9060   34.9860 C.3    48  MET48       0.0401
     18  CG        28.6540   35.3230   35.4730 C.3    48  MET48       0.0596
     19  SD        27.3950   35.0590   34.2130 S.3    48  MET48      -0.1393
     20  CE        25.9220   35.6400   35.0590 C.3    48  MET48       0.0692
     21  N         30.5620   32.9740   37.3200 N.am   49  SER49      -0.1952
     22  CA        30.2150   32.2300   38.5260 C.3    49  SER49       0.1924
     23  C         31.2120   32.5040   39.6420 C.2    49  SER49       0.2314
     24  O         30.8430   32.5350   40.8210 O.2    49  SER49      -0.2863
     25  CB        30.1470   30.7340   38.2200 C.3    49  SER49       0.2116
     26  OG        29.9790   29.9790   39.4070 O.3    49  SER49      -0.2180
     27  N         30.2330   35.7530   41.0210 N.3    52  ILE52      -0.1245
     28  CA        29.0750   35.6020   41.8940 C.3    52  ILE52       0.1561
     29  C         29.5070   35.1720   43.2910 C.2    52  ILE52       0.2260
     30  O         28.9240   35.6140   44.2880 O.2    52  ILE52      -0.2867
     31  CB        28.0610   34.6210   41.2740 C.3    52  ILE52       0.0252
     32  CG1       27.5030   35.2010   39.9690 C.3    52  ILE52       0.0019
     33  CG2       26.9200   34.3290   42.2370 C.3    52  ILE52       0.0019
     34  CD1       26.4210   34.3620   39.3250 C.3    52  ILE52       0.0001
     35  N         29.3240   37.6850   46.5750 N.3    56  LEU56      -0.1245
     36  CA        28.6660   37.2370   47.7960 C.3    56  LEU56       0.1561
     37  C         29.6050   37.2070   48.9930 C.2    56  LEU56       0.2260
     38  O         29.1290   37.2250   50.1330 O.2    56  LEU56      -0.2867
     39  CB        28.0450   35.8560   47.5830 C.3    56  LEU56       0.0270
     40  CG        26.8470   35.8440   46.6290 C.3    56  LEU56       0.0019
     41  CD1       26.2890   34.4370   46.4610 C.3    56  LEU56       0.0001
     42  CD2       25.7760   36.7990   47.1200 C.3    56  LEU56       0.0001
     43  N         28.7750   30.5340   55.6240 N.3    88  LEU88      -0.1245
     44  CA        28.8130   31.3840   54.4370 C.3    88  LEU88       0.1561
     45  C         30.2300   31.8530   54.1290 C.2    88  LEU88       0.2260
     46  O         30.5810   32.0370   52.9580 O.2    88  LEU88      -0.2867
     47  CB        27.8820   32.5860   54.6090 C.3    88  LEU88       0.0270
     48  CG        26.3860   32.2750   54.5200 C.3    88  LEU88       0.0019
     49  CD1       25.5600   33.5390   54.6800 C.3    88  LEU88       0.0001
     50  CD2       26.0660   31.5880   53.2020 C.3    88  LEU88       0.0001
     51  N         31.7890   28.5800   52.5960 N.3    91  LEU91      -0.1231
     52  CA        31.2040   28.2270   51.3040 C.3    91  LEU91       0.1693
     53  C         31.7740   29.0820   50.1800 C.2    91  LEU91       0.2592
     54  O         32.2740   28.5580   49.1770 O.2    91  LEU91      -0.2718
     55  CB        29.6830   28.3740   51.3640 C.3    91  LEU91       0.0284
     56  CG        28.9350   28.4950   50.0330 C.3    91  LEU91       0.0019
     57  CD1       29.0760   27.2320   49.1930 C.3    91  LEU91       0.0001
     58  CD2       27.4710   28.8200   50.2830 C.3    91  LEU91       0.0001
     59  N         31.7050   30.4040   50.3250 N.am   92  PHE92      -0.1976
     60  CA        32.1110   31.2730   49.2280 C.3    92  PHE92       0.1639
     61  C         33.6250   31.3090   49.0580 C.2    92  PHE92       0.2290
     62  O         34.1160   31.4720   47.9350 O.2    92  PHE92      -0.2864
     63  CB        31.5440   32.6720   49.4480 C.3    92  PHE92       0.0560
     64  CG        30.0420   32.7150   49.4420 C.ar   92  PHE92      -0.0200
     65  CD1       29.3230   32.0260   48.4750 C.ar   92  PHE92      -0.0042
     66  CD2       29.3480   33.4180   50.4150 C.ar   92  PHE92      -0.0042
     67  CE1       27.9440   32.0510   48.4700 C.ar   92  PHE92      -0.0003
     68  CE2       27.9680   33.4450   50.4140 C.ar   92  PHE92      -0.0003
     69  CZ        27.2630   32.7620   49.4400 C.ar   92  PHE92      -0.0000
     70  N         27.9570   24.2320   32.4310 N.3   127  ILE127     -0.1245
     71  CA        26.9460   24.2720   33.4870 C.3   127  ILE127      0.1561
     72  C         27.1390   23.1230   34.4700 C.2   127  ILE127      0.2260
     73  O         27.0030   23.3010   35.6860 O.2   127  ILE127     -0.2867
     74  CB        25.5330   24.2570   32.8750 C.3   127  ILE127      0.0252
     75  CG1       25.3260   25.4820   31.9840 C.3   127  ILE127      0.0019
     76  CG2       24.4760   24.2210   33.9670 C.3   127  ILE127      0.0019
     77  CD1       25.3920   26.7930   32.7340 C.3   127  ILE127      0.0001
     78  N         30.2510   23.8730   36.5830 N.3   130  ILE130     -0.1245
     79  CA        29.9470   24.8520   37.6190 C.3   130  ILE130      0.1561
     80  C         29.1090   24.2140   38.7220 C.2   130  ILE130      0.2260
     81  O         29.2060   24.6040   39.8920 O.2   130  ILE130     -0.2867
     82  CB        29.2540   26.0800   36.9980 C.3   130  ILE130      0.0252
     83  CG1       30.1490   26.7110   35.9280 C.3   130  ILE130      0.0019
     84  CG2       28.9140   27.1080   38.0650 C.3   130  ILE130      0.0019
     85  CD1       29.5050   27.8680   35.1980 C.3   130  ILE130      0.0001
     86  N         30.1170   24.0450   42.8730 N.3   134  TRP134     -0.1241
     87  CA        29.2090   24.4930   43.9210 C.3   134  TRP134      0.1605
     88  C         28.7330   23.3350   44.7880 C.2   134  TRP134      0.2264
     89  O         28.5060   23.5220   45.9880 O.2   134  TRP134     -0.2867
     90  CB        28.0110   25.2240   43.3130 C.3   134  TRP134      0.0550
     91  CG        28.3380   26.6020   42.8250 C.ar  134  TRP134      0.0003
     92  CD1       28.4930   26.9980   41.5290 C.ar  134  TRP134      0.0946
     93  CD2       28.5590   27.7680   43.6290 C.ar  134  TRP134      0.0152
     94  NE1       28.7920   28.3370   41.4740 N.ar  134  TRP134     -0.2442
     95  CE2       28.8390   28.8340   42.7500 C.ar  134  TRP134      0.0810
     96  CE3       28.5440   28.0150   45.0060 C.ar  134  TRP134      0.0012
     97  CZ2       29.1040   30.1270   43.2020 C.ar  134  TRP134      0.0191
     98  CZ3       28.8080   29.3000   45.4530 C.ar  134  TRP134      0.0001
     99  CH2       29.0840   30.3380   44.5530 C.ar  134  TRP134      0.0015
    100  N         29.2150   23.6480   48.7840 N.3   138  ILE138     -0.1245
    101  CA        28.1370   23.4440   49.7500 C.3   138  ILE138      0.1561
    102  C         28.4510   22.2600   50.6540 C.2   138  ILE138      0.2260
    103  O         28.1630   22.2820   51.8580 O.2   138  ILE138     -0.2867
    104  CB        26.7960   23.2480   49.0170 C.3   138  ILE138      0.0252
    105  CG1       26.4720   24.4710   48.1600 C.3   138  ILE138      0.0019
    106  CG2       25.6740   22.9700   50.0090 C.3   138  ILE138      0.0019
    107  CD1       25.3190   24.2560   47.2120 C.3   138  ILE138      0.0001
@<TRIPOS>BOND
     1    12    11    1
     2    10    11   ar
     3    10     8   ar
     4    11     9   ar
     5     8     6   ar
     6     9     7   ar
     7     6     7   ar
     8     6     5    1
     9     1     2    1
    10     5     2    1
    11    75    77    1
    12    75    74    1
    13     2     3    1
    14    70    71    1
    15    74    71    1
    16    74    76    1
    17    71    72    1
    18     3     4    2
    19    19    20    1
    20    19    18    1
    21    72    73    2
    22    17    18    1
    23    17    14    1
    24    85    83    1
    25    13    14    1
    26    83    82    1
    27    14    15    1
    28    78    79    1
    29    82    79    1
    30    82    84    1
    31    21    15   am
    32    21    22    1
    33    15    16    2
    34    79    80    1
    35    25    22    1
    36    25    26    1
    37    22    23    1
    38    80    81    2
    39    34    32    1
    40    23    24    2
    41    32    31    1
    42    27    28    1
    43    31    28    1
    44    31    33    1
    45    94    92   ar
    46    94    95   ar
    47    92    91   ar
    48    28    29    1
    49    95    97   ar
    50    95    93   ar
    51    91    90    1
    52    91    93   ar
    53    86    87    1
    54    97    99   ar
    55    29    30    2
    56    90    87    1
    57    93    96   ar
    58    87    88    1
    59    99    98   ar
    60    88    89    2
    61    96    98   ar
    62    41    40    1
    63    35    36    1
    64    40    42    1
    65    40    39    1
    66   107   105    1
    67    39    36    1
    68    36    37    1
    69    62    61    2
    70   105   104    1
    71    67    65   ar
    72    67    69   ar
    73    65    64   ar
    74   100   101    1
    75    37    38    2
    76   104   101    1
    77   104   106    1
    78    61    60    1
    79    54    53    2
    80    57    56    1
    81    60    63    1
    82    60    59    1
    83    69    68   ar
    84    64    63    1
    85    64    66   ar
    86   101   102    1
    87    56    58    1
    88    56    55    1
    89    53    59   am
    90    53    52    1
    91    68    66   ar
    92   102   103    2
    93    52    55    1
    94    52    51    1
    95    46    45    2
    96    50    48    1
    97    45    44    1
    98    44    47    1
    99    44    43    1
   100    48    47    1
   101    48    49    1
