@<TRIPOS>MOLECULE
tmp/6bqhA04.pdb
 88 84 0 0 0
SMALL
GASTEIGER

@<TRIPOS>ATOM
      1  N         42.0500   22.9980   35.6700 N.3   105  LEU105     -0.1245
      2  CA        41.9230   21.5770   35.3720 C.3   105  LEU105      0.1561
      3  C         41.2430   21.3650   34.0260 C.2   105  LEU105      0.2260
      4  O         41.6890   20.5460   33.2160 O.2   105  LEU105     -0.2867
      5  CB        41.1550   20.8760   36.4920 C.3   105  LEU105      0.0270
      6  CG        41.3910   19.3760   36.6480 C.3   105  LEU105      0.0019
      7  CD1       41.1670   18.9620   38.0900 C.3   105  LEU105      0.0001
      8  CD2       40.4710   18.6000   35.7270 C.3   105  LEU105      0.0001
      9  N         43.5980   22.2220   31.2940 N.3   108  TYR108     -0.1241
     10  CA        44.5990   21.1760   31.1030 C.3   108  TYR108      0.1605
     11  C         44.0070   19.9690   30.3900 C.2   108  TYR108      0.2264
     12  O         44.6280   19.4130   29.4770 O.2   108  TYR108     -0.2867
     13  CB        45.1930   20.7590   32.4480 C.3   108  TYR108      0.0534
     14  CG        46.1720   19.6080   32.3550 C.ar  108  TYR108     -0.0201
     15  CD1       47.4600   19.8040   31.8700 C.ar  108  TYR108     -0.0009
     16  CD2       45.8100   18.3270   32.7560 C.ar  108  TYR108     -0.0009
     17  CE1       48.3610   18.7570   31.7830 C.ar  108  TYR108      0.0417
     18  CE2       46.7030   17.2730   32.6740 C.ar  108  TYR108      0.0417
     19  CZ        47.9770   17.4940   32.1870 C.ar  108  TYR108      0.1957
     20  OH        48.8700   16.4490   32.1020 O.3   108  TYR108     -0.2866
     21  N         42.9030   20.9050   54.0760 N.3   175  PHE175     -0.1241
     22  CA        43.3870   20.0940   52.9650 C.3   175  PHE175      0.1605
     23  C         42.3440   20.0080   51.8580 C.2   175  PHE175      0.2264
     24  O         42.6220   20.3490   50.7020 O.2   175  PHE175     -0.2867
     25  CB        43.7670   18.6980   53.4600 C.3   175  PHE175      0.0534
     26  CG        45.1250   18.6310   54.0860 C.ar  175  PHE175     -0.0203
     27  CD1       45.2990   18.9370   55.4230 C.ar  175  PHE175     -0.0042
     28  CD2       46.2310   18.2760   53.3330 C.ar  175  PHE175     -0.0042
     29  CE1       46.5500   18.8820   56.0030 C.ar  175  PHE175     -0.0003
     30  CE2       47.4870   18.2190   53.9060 C.ar  175  PHE175     -0.0003
     31  CZ        47.6460   18.5220   55.2430 C.ar  175  PHE175     -0.0000
     32  N         44.2310   23.1380   50.3990 N.3   179  PHE179     -0.1227
     33  CA        45.5440   22.6150   50.0350 C.3   179  PHE179      0.1736
     34  C         45.4860   21.6880   48.8240 C.2   179  PHE179      0.2595
     35  O         46.3750   21.7380   47.9670 O.2   179  PHE179     -0.2718
     36  CB        46.1730   21.9040   51.2340 C.3   179  PHE179      0.0547
     37  CG        46.5900   22.8370   52.3350 C.ar  179  PHE179     -0.0202
     38  CD1       47.5780   23.7850   52.1180 C.ar  179  PHE179     -0.0042
     39  CD2       46.0010   22.7650   53.5880 C.ar  179  PHE179     -0.0042
     40  CE1       47.9670   24.6470   53.1250 C.ar  179  PHE179     -0.0003
     41  CE2       46.3880   23.6250   54.6010 C.ar  179  PHE179     -0.0003
     42  CZ        47.3730   24.5680   54.3700 C.ar  179  PHE179     -0.0000
     43  N         44.4670   20.8400   48.7260 N.am  180  ILE180     -0.1980
     44  CA        44.3610   19.9390   47.5780 C.3   180  ILE180      0.1595
     45  C         43.9820   20.7250   46.3240 C.2   180  ILE180      0.2287
     46  O         44.6480   20.5620   45.2900 O.2   180  ILE180     -0.2864
     47  CB        43.3700   18.7910   47.8400 C.3   180  ILE180      0.0276
     48  CG1       43.8230   17.9490   49.0330 C.3   180  ILE180      0.0022
     49  CG2       43.2450   17.9120   46.6010 C.3   180  ILE180      0.0022
     50  CD1       42.7860   16.9490   49.4940 C.3   180  ILE180      0.0001
     51  N         46.9970   22.6140   45.1740 N.3   183  THR183     -0.1203
     52  CA        48.0190   21.7500   44.5920 C.3   183  THR183      0.1994
     53  C         47.6560   21.3570   43.1650 C.2   183  THR183      0.2617
     54  O         48.5300   21.2640   42.2940 O.2   183  THR183     -0.2717
     55  CB        48.2050   20.5060   45.4570 C.3   183  THR183      0.1784
     56  OG1       48.5240   20.9060   46.7940 O.3   183  THR183     -0.2211
     57  CG2       49.3240   19.6340   44.9090 C.3   183  THR183      0.0376
     58  N         46.3680   21.1290   42.9060 N.am  184  ILE184     -0.1979
     59  CA        45.9400   20.7680   41.5590 C.3   184  ILE184      0.1595
     60  C         46.0520   21.9630   40.6210 C.2   184  ILE184      0.2287
     61  O         46.4900   21.8280   39.4710 O.2   184  ILE184     -0.2864
     62  CB        44.5100   20.2020   41.5880 C.3   184  ILE184      0.0276
     63  CG1       44.4740   18.9260   42.4290 C.3   184  ILE184      0.0022
     64  CG2       44.0070   19.9460   40.1770 C.3   184  ILE184      0.0022
     65  CD1       43.0800   18.4700   42.7850 C.3   184  ILE184      0.0001
     66  N         49.8960   22.4820   39.6020 N.3   187  ILE187     -0.1231
     67  CA        50.4620   21.4640   38.7220 C.3   187  ILE187      0.1692
     68  C         49.7980   21.5120   37.3520 C.2   187  ILE187      0.2592
     69  O         50.4740   21.4920   36.3170 O.2   187  ILE187     -0.2718
     70  CB        50.3330   20.0710   39.3620 C.3   187  ILE187      0.0266
     71  CG1       51.0630   20.0390   40.7050 C.3   187  ILE187      0.0019
     72  CG2       50.8790   19.0060   38.4260 C.3   187  ILE187      0.0020
     73  CD1       50.9380   18.7200   41.4360 C.3   187  ILE187      0.0001
     74  N         48.4660   21.5800   37.3220 N.am  188  THR188     -0.1953
     75  CA        47.7670   21.6220   36.0410 C.3   188  THR188      0.1897
     76  C         48.1340   22.8750   35.2550 C.2   188  THR188      0.2313
     77  O         48.2830   22.8220   34.0300 O.2   188  THR188     -0.2863
     78  CB        46.2520   21.5410   36.2490 C.3   188  THR188      0.1794
     79  OG1       45.8290   22.5650   37.1570 O.3   188  THR188     -0.2208
     80  CG2       45.8600   20.1740   36.8010 C.3   188  THR188      0.0378
     81  N         51.8730   22.3860   34.0260 N.3   191  LEU191     -0.1245
     82  CA        51.8750   21.3430   33.0050 C.3   191  LEU191      0.1561
     83  C         51.1710   21.8120   31.7370 C.2   191  LEU191      0.2260
     84  O         51.5950   21.4780   30.6250 O.2   191  LEU191     -0.2867
     85  CB        51.2230   20.0710   33.5460 C.3   191  LEU191      0.0270
     86  CG        52.1730   18.9620   34.0050 C.3   191  LEU191      0.0019
     87  CD1       53.3130   19.5130   34.8530 C.3   191  LEU191      0.0001
     88  CD2       51.4000   17.9050   34.7730 C.3   191  LEU191      0.0001
@<TRIPOS>BOND
     1    12    11    2
     2    11    10    1
     3    84    83    2
     4    10     9    1
     5    10    13    1
     6    83    82    1
     7    17    15   ar
     8    17    19   ar
     9    15    14   ar
    10    20    19    1
    11    19    18   ar
    12    14    13    1
    13    14    16   ar
    14    18    16   ar
    15    82    85    1
    16    82    81    1
    17     4     3    2
    18    85    86    1
    19    86    88    1
    20    86    87    1
    21     3     2    1
    22    77    76    2
    23    76    75    1
    24     2     1    1
    25     2     5    1
    26     8     6    1
    27    75    78    1
    28    75    74    1
    29    78    80    1
    30    78    79    1
    31    69    68    2
    32     5     6    1
    33     6     7    1
    34    74    68   am
    35    68    67    1
    36    72    70    1
    37    67    70    1
    38    67    66    1
    39    70    71    1
    40    61    60    2
    41    64    62    1
    42    60    59    1
    43    71    73    1
    44    59    62    1
    45    59    58    1
    46    62    63    1
    47    54    53    2
    48    63    65    1
    49    58    53   am
    50    53    52    1
    51    52    51    1
    52    52    55    1
    53    57    55    1
    54    46    45    2
    55    55    56    1
    56    45    44    1
    57    49    47    1
    58    44    47    1
    59    44    43    1
    60    47    48    1
    61    35    34    2
    62    43    34   am
    63    34    33    1
    64    48    50    1
    65    33    32    1
    66    33    36    1
    67    24    23    2
    68    36    37    1
    69    23    22    1
    70    38    37   ar
    71    38    40   ar
    72    37    39   ar
    73    22    25    1
    74    22    21    1
    75    40    42   ar
    76    28    30   ar
    77    28    26   ar
    78    25    26    1
    79    39    41   ar
    80    30    31   ar
    81    26    27   ar
    82    42    41   ar
    83    31    29   ar
    84    27    29   ar
