@<TRIPOS>MOLECULE
tmp/6bqjB00.pdb
 193 189 0 0 0
SMALL
GASTEIGER

@<TRIPOS>ATOM
      1  N         52.5210   39.7310   38.5370 N.3    51  THR51      -0.1203
      2  CA        53.4180   40.6560   37.8420 C.3    51  THR51       0.1994
      3  C         54.5070   40.0390   36.9490 C.2    51  THR51       0.2618
      4  O         55.1060   40.7730   36.1630 O.2    51  THR51      -0.2717
      5  CB        54.0750   41.5800   38.8690 C.3    51  THR51       0.1784
      6  OG1       54.7230   40.7740   39.8490 O.3    51  THR51      -0.2211
      7  CG2       53.0730   42.5350   39.5380 C.3    51  THR51       0.0376
      8  N         54.7890   38.7240   37.0670 N.am   52  GLN52      -0.1965
      9  CA        55.8920   38.1300   36.2880 C.3    52  GLN52       0.1733
     10  C         55.5520   36.7090   35.8200 C.2    52  GLN52       0.2617
     11  O         54.8070   36.0220   36.4900 O.2    52  GLN52      -0.2715
     12  CB        57.1440   37.9710   37.2040 C.3    52  GLN52       0.0408
     13  CG        57.6400   39.1900   38.0090 C.3    52  GLN52       0.0908
     14  CD        58.8380   38.8050   38.8460 C.2    52  GLN52       0.2608
     15  OE1       59.7520   38.1490   38.3690 O.2    52  GLN52      -0.2717
     16  NE2       58.8640   39.1640   40.1160 N.am   52  GLN52      -0.0878
     17  N         56.1260   36.2720   34.6890 N.am   53  THR53      -0.1937
     18  CA        56.0490   34.8860   34.2220 C.3    53  THR53       0.2028
     19  C         57.5020   34.3620   34.1470 C.2    53  THR53       0.2642
     20  O         58.4180   35.0990   33.7700 O.2    53  THR53      -0.2714
     21  CB        55.2840   34.7060   32.9080 C.3    53  THR53       0.1808
     22  OG1       54.0050   35.3540   33.0210 O.3    53  THR53      -0.2208
     23  CG2       55.0450   33.2520   32.6030 C.3    53  THR53       0.0379
     24  N         57.7100   33.1050   34.5500 N.am   54  PHE54      -0.1973
     25  CA        59.0600   32.5500   34.6030 C.3    54  PHE54       0.1639
     26  C         58.9040   31.0270   34.5490 C.2    54  PHE54       0.2290
     27  O         57.8350   30.5280   34.1500 O.2    54  PHE54      -0.2864
     28  CB        59.8240   33.0370   35.8670 C.3    54  PHE54       0.0560
     29  CG        59.0630   32.9510   37.1800 C.ar   54  PHE54      -0.0200
     30  CD1       58.0970   33.8960   37.5050 C.ar   54  PHE54      -0.0042
     31  CD2       59.3580   31.9570   38.1180 C.ar   54  PHE54      -0.0042
     32  CE1       57.3780   33.8100   38.7030 C.ar   54  PHE54      -0.0003
     33  CE2       58.6330   31.8670   39.3170 C.ar   54  PHE54      -0.0003
     34  CZ        57.6320   32.7880   39.5920 C.ar   54  PHE54      -0.0000
     35  N         63.6850   32.5400   43.6830 N.3    67  TYR67      -0.1227
     36  CA        63.0140   33.3330   44.7130 C.3    67  TYR67       0.1736
     37  C         62.6270   34.7110   44.1230 C.2    67  TYR67       0.2595
     38  O         61.5790   35.2560   44.4940 O.2    67  TYR67      -0.2718
     39  CB        63.9520   33.5180   45.9290 C.3    67  TYR67       0.0548
     40  CG        63.2780   34.1400   47.1290 C.ar   67  TYR67      -0.0200
     41  CD1       63.1270   35.5260   47.2300 C.ar   67  TYR67      -0.0009
     42  CD2       62.7730   33.3490   48.1580 C.ar   67  TYR67      -0.0009
     43  CE1       62.4820   36.1060   48.3230 C.ar   67  TYR67       0.0417
     44  CE2       62.1110   33.9180   49.2510 C.ar   67  TYR67       0.0417
     45  CZ        62.0100   35.2990   49.3480 C.ar   67  TYR67       0.1957
     46  OH        61.3940   35.8670   50.4370 O.3    67  TYR67      -0.2866
     47  N         63.4390   35.2730   43.1820 N.am   68  HIS68      -0.1975
     48  CA        63.1190   36.5920   42.6310 C.3    68  HIS68       0.1656
     49  C         61.8380   36.5950   41.8310 C.2    68  HIS68       0.2291
     50  O         61.2780   37.6570   41.5990 O.2    68  HIS68      -0.2864
     51  CB        64.3020   37.1980   41.8420 C.3    68  HIS68       0.0771
     52  CG        64.5590   36.5800   40.5040 C.ar   68  HIS68       0.0820
     53  ND1       65.5980   35.7020   40.3110 N.ar   68  HIS68      -0.2267
     54  CD2       63.9670   36.8190   39.3130 C.ar   68  HIS68       0.1154
     55  CE1       65.5960   35.4190   39.0140 C.ar   68  HIS68       0.1986
     56  NE2       64.6420   36.0730   38.3800 N.ar   68  HIS68      -0.2212
     57  N         66.9200   32.5930   50.1470 N.3    89  VAL89      -0.1231
     58  CA        67.0220   33.9130   49.5080 C.3    89  VAL89       0.1692
     59  C         68.4010   34.1600   48.8820 C.2    89  VAL89       0.2592
     60  O         68.4830   34.7040   47.7680 O.2    89  VAL89      -0.2718
     61  CB        66.6040   35.0690   50.4690 C.3    89  VAL89       0.0266
     62  CG1       66.7870   36.4370   49.8050 C.3    89  VAL89       0.0020
     63  CG2       65.1620   34.8960   50.9120 C.3    89  VAL89       0.0020
     64  N         69.4770   33.7900   49.6100 N.am   90  ASP90      -0.1960
     65  CA        70.8620   33.9890   49.1640 C.3    90  ASP90       0.1840
     66  C         71.1900   33.2240   47.8910 C.2    90  ASP90       0.2622
     67  O         71.9290   33.7320   47.0490 O.2    90  ASP90      -0.2715
     68  CB        71.8600   33.6270   50.2750 C.3    90  ASP90       0.1450
     69  CG        71.8730   34.6150   51.4380 C.2    90  ASP90       0.3671
     70  OD1       71.3640   35.7590   51.2650 O.co2  90  ASP90      -0.2456
     71  OD2       72.3860   34.2510   52.5180 O.co2  90  ASP90      -0.2456
     72  N         70.6400   32.0050   47.7480 N.am   91  LYS91      -0.1963
     73  CA        70.8700   31.2200   46.5180 C.3    91  LYS91       0.1728
     74  C         69.8760   31.6350   45.4120 C.2    91  LYS91       0.2616
     75  O         70.0570   31.2180   44.2690 O.2    91  LYS91      -0.2715
     76  CB        70.6800   29.7210   46.7840 C.3    91  LYS91       0.0311
     77  CG        71.7320   29.0940   47.6870 C.3    91  LYS91       0.0038
     78  CD        71.4970   27.5640   47.7350 C.3    91  LYS91       0.0206
     79  CE        72.5080   26.8730   48.6310 C.3    91  LYS91       0.1093
     80  NZ        72.4160   25.3870   48.5270 N.3    91  LYS91      -0.1314
     81  N         68.8240   32.4120   45.7670 N.am   92  ASP92      -0.1971
     82  CA        67.7080   32.8260   44.8890 C.3    92  ASP92       0.1709
     83  C         66.9070   31.5500   44.5150 C.2    92  ASP92       0.2293
     84  O         66.5720   31.3280   43.3480 O.2    92  ASP92      -0.2864
     85  CB        68.2410   33.5320   43.6370 C.3    92  ASP92       0.1436
     86  CG        67.1920   34.2170   42.8050 C.2    92  ASP92       0.3671
     87  OD1       66.0490   34.3660   43.2960 O.co2  92  ASP92      -0.2456
     88  OD2       67.5070   34.6100   41.6660 O.co2  92  ASP92      -0.2456
     89  N         78.5140   29.3850   36.2650 N.3   134  ARG134     -0.1245
     90  CA        78.6070   30.2560   35.0980 C.3   134  ARG134      0.1563
     91  C         78.8830   29.5100   33.8380 C.2   134  ARG134      0.2260
     92  O         79.6240   28.5330   33.8440 O.2   134  ARG134     -0.2867
     93  CB        79.7260   31.3270   35.2880 C.3   134  ARG134      0.0307
     94  CG        79.4970   32.3360   36.4330 C.3   134  ARG134      0.0489
     95  CD        78.4060   33.3570   36.1430 C.3   134  ARG134      0.2205
     96  NE        78.9250   34.6980   35.9370 N.pl3 134  ARG134     -0.0865
     97  CZ        78.8540   35.6970   36.8020 C.cat 134  ARG134      0.5346
     98  NH1       79.3340   36.8840   36.4830 N.pl3 134  ARG134      0.1354
     99  NH2       78.2220   35.5430   37.9590 N.pl3 134  ARG134      0.1354
    100  N         69.0040   40.3990   25.2610 N.3   143  ILE143     -0.1245
    101  CA        68.5200   40.0010   26.5840 C.3   143  ILE143      0.1561
    102  C         67.0400   39.5310   26.5740 C.2   143  ILE143      0.2260
    103  O         66.6910   38.6240   27.3310 O.2   143  ILE143     -0.2867
    104  CB        68.7860   41.1120   27.6350 C.3   143  ILE143      0.0252
    105  CG1       68.4300   40.6530   29.0650 C.3   143  ILE143      0.0019
    106  CG2       68.0790   42.4430   27.2660 C.3   143  ILE143      0.0019
    107  CD1       69.3040   39.4760   29.5870 C.3   143  ILE143      0.0001
    108  N         66.1360   35.8250   26.7190 N.3   146  LEU146     -0.1231
    109  CA        66.2240   35.0890   27.9900 C.3   146  LEU146      0.1693
    110  C         65.2090   35.5450   29.0540 C.2   146  LEU146      0.2592
    111  O         65.0050   34.8480   30.0510 O.2   146  LEU146     -0.2718
    112  CB        67.6480   35.2000   28.5300 C.3   146  LEU146      0.0284
    113  CG        68.7940   34.6300   27.6400 C.3   146  LEU146      0.0019
    114  CD1       70.1500   34.9050   28.2680 C.3   146  LEU146      0.0001
    115  CD2       68.6210   33.1350   27.4090 C.3   146  LEU146      0.0001
    116  N         64.5930   36.7190   28.8570 N.am  147  LYS147     -0.1966
    117  CA        63.6220   37.2440   29.8100 C.3   147  LYS147      0.1728
    118  C         62.4740   36.2480   29.9930 C.2   147  LYS147      0.2617
    119  O         61.9360   35.7170   29.0100 O.2   147  LYS147     -0.2715
    120  CB        63.0600   38.5900   29.3170 C.3   147  LYS147      0.0311
    121  CG        64.2220   39.5500   29.1240 C.3   147  LYS147      0.0038
    122  CD        63.6550   40.9310   28.9910 C.3   147  LYS147      0.0206
    123  CE        64.7030   41.9880   28.7850 C.3   147  LYS147      0.1093
    124  NZ        64.1960   43.2690   29.2830 N.3   147  LYS147     -0.1314
    125  N         62.1460   35.9750   31.2620 N.am  148  GLY148     -0.1940
    126  CA        61.0670   35.0490   31.5940 C.3   148  GLY148      0.2014
    127  C         61.5100   33.5920   31.6150 C.2   148  GLY148      0.2640
    128  O         60.6660   32.7040   31.7360 O.2   148  GLY148     -0.2714
    129  N         62.8400   33.3320   31.4630 N.am  149  SER149     -0.1935
    130  CA        63.3350   31.9460   31.4640 C.3   149  SER149      0.2055
    131  C         64.0210   31.5830   32.7900 C.2   149  SER149      0.2643
    132  O         64.4180   30.4260   32.9430 O.2   149  SER149     -0.2714
    133  CB        64.2320   31.6450   30.2670 C.3   149  SER149      0.2130
    134  OG        63.4240   31.6380   29.0920 O.3   149  SER149     -0.2179
    135  N         64.1340   32.5300   33.7480 N.am  150  SER150     -0.1949
    136  CA        64.6960   32.1590   35.0560 C.3   150  SER150      0.1924
    137  C         63.8860   31.0170   35.6550 C.2   150  SER150      0.2314
    138  O         62.6490   31.0180   35.5780 O.2   150  SER150     -0.2863
    139  CB        64.6600   33.3350   36.0240 C.3   150  SER150      0.2116
    140  OG        65.7740   34.1470   35.7140 O.3   150  SER150     -0.2180
    141  N         68.5790   28.0340   35.6320 N.3   165  PHE165     -0.1227
    142  CA        68.9480   29.3610   35.1340 C.3   165  PHE165      0.1736
    143  C         68.4930   30.4640   36.0990 C.2   165  PHE165      0.2595
    144  O         67.3460   30.4830   36.5240 O.2   165  PHE165     -0.2718
    145  CB        68.3650   29.5670   33.7290 C.3   165  PHE165      0.0547
    146  CG        68.6140   30.9360   33.1470 C.ar  165  PHE165     -0.0202
    147  CD1       69.9030   31.4880   33.1340 C.ar  165  PHE165     -0.0042
    148  CD2       67.5880   31.6270   32.5060 C.ar  165  PHE165     -0.0042
    149  CE1       70.1360   32.7410   32.5700 C.ar  165  PHE165     -0.0003
    150  CE2       67.8220   32.8770   31.9370 C.ar  165  PHE165     -0.0003
    151  CZ        69.0920   33.4380   31.9850 C.ar  165  PHE165     -0.0000
    152  N         69.4110   31.3720   36.4580 N.am  166  ARG166     -0.1966
    153  CA        69.1110   32.4040   37.4480 C.3   166  ARG166      0.1729
    154  C         69.2170   33.8110   36.8580 C.2   166  ARG166      0.2616
    155  O         68.2850   34.6020   37.0050 O.2   166  ARG166     -0.2715
    156  CB        70.0880   32.2450   38.6330 C.3   166  ARG166      0.0348
    157  CG        69.9550   33.2910   39.7360 C.3   166  ARG166      0.0492
    158  CD        70.6830   32.8170   41.0030 C.3   166  ARG166      0.2205
    159  NE        72.1090   32.6190   40.7860 N.pl3 166  ARG166     -0.0865
    160  CZ        72.9070   31.9730   41.6250 C.cat 166  ARG166      0.5346
    161  NH1       72.4340   31.5050   42.7750 N.pl3 166  ARG166      0.1354
    162  NH2       74.1980   31.8210   41.3410 N.pl3 166  ARG166      0.1354
    163  N         70.3330   34.1260   36.1960 N.am  167  ALA167     -0.1963
    164  CA        70.5660   35.5080   35.7220 C.3   167  ALA167      0.1728
    165  C         71.4400   35.5150   34.4890 C.2   167  ALA167      0.2616
    166  O         72.1970   34.5830   34.2600 O.2   167  ALA167     -0.2715
    167  CB        71.2520   36.3040   36.8500 C.3   167  ALA167      0.0334
    168  N         71.3790   36.5900   33.7090 N.am  168  ALA168     -0.1963
    169  CA        72.2060   36.6820   32.5110 C.3   168  ALA168      0.1728
    170  C         73.2950   37.7370   32.7140 C.2   168  ALA168      0.2616
    171  O         73.0450   38.7610   33.3530 O.2   168  ALA168     -0.2715
    172  CB        71.3350   37.0580   31.3270 C.3   168  ALA168      0.0334
    173  N         74.4820   37.5020   32.1590 N.am  169  VAL169     -0.1963
    174  CA        75.5410   38.5100   32.1780 C.3   169  VAL169      0.1727
    175  C         75.2130   39.4040   30.9820 C.2   169  VAL169      0.2616
    176  O         75.3710   38.9690   29.8440 O.2   169  VAL169     -0.2715
    177  CB        76.9540   37.8750   32.1040 C.3   169  VAL169      0.0290
    178  CG1       78.0280   38.9640   32.1340 C.3   169  VAL169      0.0023
    179  CG2       77.1460   36.8640   33.2360 C.3   169  VAL169      0.0023
    180  N         74.6410   40.5970   31.2570 N.am  170  CYS170     -0.1968
    181  CA        74.0680   41.5000   30.2490 C.3   170  CYS170      0.1712
    182  C         74.8380   42.8250   30.1970 C.2   170  CYS170      0.2296
    183  O         75.0640   43.4510   31.2500 O.2   170  CYS170     -0.2864
    184  CB        72.5810   41.7080   30.5900 C.3   170  CYS170      0.0983
    185  SG        71.6870   42.8820   29.5270 S.3   170  CYS170     -0.0798
    186  N         74.3080   32.8090   34.4380 N.3   179  ASP179     -0.1239
    187  CA        74.5500   32.5000   35.8350 C.3   179  ASP179      0.1674
    188  C         73.4290   31.5290   36.2480 C.2   179  ASP179      0.2266
    189  O         72.2420   31.7540   35.9380 O.2   179  ASP179     -0.2867
    190  CB        74.5560   33.8090   36.6400 C.3   179  ASP179      0.1410
    191  CG        74.3680   33.6120   38.1190 C.2   179  ASP179      0.3668
    192  OD1       75.3540   33.3530   38.8000 O.co2 179  ASP179     -0.2456
    193  OD2       73.2310   33.7180   38.5840 O.co2 179  ASP179     -0.2456
@<TRIPOS>BOND
     1   100   101    1
     2   102   101    1
     3   102   103    2
     4   101   104    1
     5   108   109    1
     6   106   104    1
     7   115   113    1
     8   104   105    1
     9   113   114    1
    10   113   112    1
    11   109   112    1
    12   109   110    1
    13   123   122    1
    14   123   124    1
    15   116   110   am
    16   116   117    1
    17   122   121    1
    18   119   118    2
    19   110   111    2
    20   105   107    1
    21   134   133    1
    22   121   120    1
    23   120   117    1
    24   185   184    1
    25   117   118    1
    26   176   175    2
    27   118   125   am
    28   182   181    1
    29   182   183    2
    30   181   184    1
    31   181   180    1
    32   133   130    1
    33   175   180   am
    34   175   174    1
    35   125   126    1
    36   172   169    1
    37   129   130    1
    38   129   127   am
    39   130   131    1
    40   126   127    1
    41   127   128    2
    42   150   151   ar
    43   150   148   ar
    44   151   149   ar
    45   177   178    1
    46   177   174    1
    47   177   179    1
    48   173   174    1
    49   173   170   am
    50   148   146   ar
    51   169   170    1
    52   169   168    1
    53   149   147   ar
    54    23    21    1
    55   170   171    2
    56   131   132    2
    57   131   135   am
    58    21    22    1
    59    21    18    1
    60   147   146   ar
    61   146   145    1
    62   168   165   am
    63   145   142    1
    64   135   136    1
    65    20    19    2
    66    91    92    2
    67    91    90    1
    68    19    18    1
    69    19    24   am
    70    27    26    2
    71    18    17    1
    72   166   165    2
    73   186   187    1
    74   165   164    1
    75    26    25    1
    76    24    25    1
    77    25    28    1
    78    17    10   am
    79   136   137    1
    80   136   139    1
    81    90    93    1
    82    90    89    1
    83   142   141    1
    84   142   143    1
    85    93    94    1
    86   138   137    2
    87   140   139    1
    88   164   163    1
    89   164   167    1
    90    10     9    1
    91    10    11    2
    92   187   188    1
    93   187   190    1
    94    28    29    1
    95    96    95    1
    96    96    97    2
    97   189   188    2
    98   143   152   am
    99   143   144    2
   100    95    94    1
   101     4     3    2
   102   163   154   am
   103     9     8    1
   104     9    12    1
   105   152   153    1
   106    98    97    1
   107   190   191    1
   108    97    99    1
   109   154   155    2
   110   154   153    1
   111     3     8   am
   112     3     2    1
   113    29    30   ar
   114    29    31   ar
   115    12    13    1
   116   153   156    1
   117    30    32   ar
   118     2     1    1
   119     2     5    1
   120    13    14    1
   121    31    33   ar
   122   191   193   ar
   123   191   192   ar
   124    15    14    2
   125    56    55   ar
   126    56    54   ar
   127   156   157    1
   128    32    34   ar
   129    14    16   am
   130     5     7    1
   131     5     6    1
   132    55    53   ar
   133    54    52   ar
   134    33    34   ar
   135   157   158    1
   136    53    52   ar
   137    52    51    1
   138   159   158    1
   139   159   160    2
   140   162   160    1
   141    50    49    2
   142   160   161    1
   143    88    86   ar
   144    49    48    1
   145    51    48    1
   146    48    47    1
   147    86    87   ar
   148    86    85    1
   149    47    37   am
   150    84    83    2
   151    85    82    1
   152    35    36    1
   153    37    38    2
   154    37    36    1
   155    75    74    2
   156    83    82    1
   157    36    39    1
   158    82    81    1
   159    74    81   am
   160    74    73    1
   161    39    40    1
   162    73    76    1
   163    73    72    1
   164    76    77    1
   165    67    66    2
   166    40    41   ar
   167    40    42   ar
   168    41    43   ar
   169    77    78    1
   170    78    79    1
   171    72    66   am
   172    60    59    2
   173    66    65    1
   174    42    44   ar
   175    43    45   ar
   176    80    79    1
   177    59    58    1
   178    59    64   am
   179    65    64    1
   180    65    68    1
   181    44    45   ar
   182    45    46    1
   183    58    57    1
   184    58    61    1
   185    62    61    1
   186    68    69    1
   187    61    63    1
   188    70    69   ar
   189    69    71   ar
