@<TRIPOS>MOLECULE
tmp/6bqjC00.pdb
 175 169 0 0 0
SMALL
GASTEIGER

@<TRIPOS>ATOM
      1  N         56.2500   37.2060    9.2300 N.3    52  GLN52      -0.1231
      2  CA        54.9050   36.6500    9.4530 C.3    52  GLN52       0.1698
      3  C         54.9660   35.2430   10.0340 C.2    52  GLN52       0.2593
      4  O         55.9270   34.5260    9.7810 O.2    52  GLN52      -0.2718
      5  CB        54.1490   36.5140    8.1090 C.3    52  GLN52       0.0381
      6  CG        54.0730   37.7290    7.1750 C.3    52  GLN52       0.0905
      7  CD        53.2990   37.3610    5.9270 C.2    52  GLN52       0.2608
      8  OE1       52.2260   36.7560    5.9890 O.2    52  GLN52      -0.2717
      9  NE2       53.8200   37.6850    4.7550 N.am   52  GLN52      -0.0878
     10  N         53.9290   34.8410   10.7840 N.am   53  THR53      -0.1939
     11  CA        53.7690   33.4810   11.2710 C.3    53  THR53       0.2028
     12  C         52.4250   32.9680   10.7210 C.2    53  THR53       0.2642
     13  O         51.4520   33.7260   10.6270 O.2    53  THR53      -0.2714
     14  CB        53.9110   33.3290   12.7820 C.3    53  THR53       0.1808
     15  OG1       55.1090   33.9800   13.2230 O.3    53  THR53      -0.2208
     16  CG2       54.0120   31.8710   13.1800 C.3    53  THR53       0.0379
     17  N         52.3880   31.6910   10.3130 N.am   54  PHE54      -0.1973
     18  CA        51.1790   31.1260    9.7140 C.3    54  PHE54       0.1639
     19  C         51.2740   29.5910    9.8640 C.2    54  PHE54       0.2290
     20  O         52.0590   29.1100   10.6850 O.2    54  PHE54      -0.2864
     21  CB        51.0180   31.5660    8.2410 C.3    54  PHE54       0.0560
     22  CG        52.2710   31.4670    7.3870 C.ar   54  PHE54      -0.0200
     23  CD1       53.2890   32.4200    7.4940 C.ar   54  PHE54      -0.0042
     24  CD2       52.4010   30.4620    6.4280 C.ar   54  PHE54      -0.0042
     25  CE1       54.4560   32.3160    6.7230 C.ar   54  PHE54      -0.0003
     26  CE2       53.5590   30.3590    5.6600 C.ar   54  PHE54      -0.0003
     27  CZ        54.5900   31.2800    5.8270 C.ar   54  PHE54      -0.0000
     28  N         50.7270   31.0510   -0.3990 N.3    67  TYR67      -0.1227
     29  CA        51.7760   31.8190   -1.0550 C.3    67  TYR67       0.1736
     30  C         51.8900   33.2060   -0.3640 C.2    67  TYR67       0.2595
     31  O         52.9930   33.7220   -0.2490 O.2    67  TYR67      -0.2718
     32  CB        51.4270   32.0050   -2.5520 C.3    67  TYR67       0.0548
     33  CG        52.5530   32.6310   -3.3550 C.ar   67  TYR67      -0.0200
     34  CD1       52.7330   34.0170   -3.3850 C.ar   67  TYR67      -0.0009
     35  CD2       53.4400   31.8410   -4.0840 C.ar   67  TYR67      -0.0009
     36  CE1       53.7880   34.5960   -4.0950 C.ar   67  TYR67       0.0417
     37  CE2       54.5010   32.4100   -4.7920 C.ar   67  TYR67       0.0417
     38  CZ        54.6480   33.7900   -4.8230 C.ar   67  TYR67       0.1957
     39  OH        55.6760   34.3550   -5.5400 O.3    67  TYR67      -0.2866
     40  N         50.7640   33.7770    0.1300 N.am   68  HIS68      -0.1961
     41  CA        50.8290   35.1190    0.7610 C.3    68  HIS68       0.1787
     42  C         51.6790   35.1110    2.0220 C.2    68  HIS68       0.2620
     43  O         52.0880   36.1690    2.4890 O.2    68  HIS68      -0.2715
     44  CB        49.4330   35.7270    0.9700 C.3    68  HIS68       0.0785
     45  CG        48.6360   35.1140    2.0830 C.ar   68  HIS68       0.0821
     46  ND1       47.6030   34.2540    1.8250 N.ar   68  HIS68      -0.2267
     47  CD2       48.7020   35.3380    3.4150 C.ar   68  HIS68       0.1154
     48  CE1       47.0660   33.9600    3.0050 C.ar   68  HIS68       0.1986
     49  NE2       47.7090   34.5750    3.9950 N.ar   68  HIS68      -0.2212
     50  N         51.9520   33.9190    2.5540 N.am   69  GLY69      -0.1954
     51  CA        52.8580   33.7640    3.6840 C.3    69  GLY69       0.1869
     52  C         54.2590   33.3460    3.2470 C.2    69  GLY69       0.2309
     53  O         55.2560   33.9670    3.6260 O.2    69  GLY69      -0.2863
     54  N         50.4760   31.1080   -7.5960 N.3    89  VAL89      -0.1231
     55  CA        50.1170   32.4420   -7.0720 C.3    89  VAL89       0.1692
     56  C         48.6060   32.6910   -7.0950 C.2    89  VAL89       0.2592
     57  O         48.0630   33.2210   -6.1170 O.2    89  VAL89      -0.2718
     58  CB        50.9190   33.5840   -7.7730 C.3    89  VAL89       0.0266
     59  CG1       50.4840   34.9620   -7.2720 C.3    89  VAL89       0.0020
     60  CG2       52.4040   33.4100   -7.5550 C.3    89  VAL89       0.0020
     61  N         47.9340   32.3110   -8.1960 N.am   90  ASP90      -0.1974
     62  CA        46.4920   32.4990   -8.3650 C.3    90  ASP90       0.1709
     63  C         45.6580   31.7440   -7.3360 C.2    90  ASP90       0.2293
     64  O         44.6210   32.2530   -6.9070 O.2    90  ASP90      -0.2864
     65  CB        46.0480   32.1180   -9.7850 C.3    90  ASP90       0.1436
     66  CG        46.4960   33.0950  -10.8610 C.2    90  ASP90       0.3671
     67  OD1       46.8920   34.2390  -10.5080 O.co2  90  ASP90      -0.2456
     68  OD2       46.4320   32.7300  -12.0480 O.co2  90  ASP90      -0.2456
     69  N         46.9040   30.9280   -4.4200 N.3    92  ASP92      -0.1239
     70  CA        47.5650   31.3380   -3.1690 C.3    92  ASP92       0.1674
     71  C         48.1080   30.0580   -2.4930 C.2    92  ASP92       0.2266
     72  O         47.9080   29.8350   -1.2880 O.2    92  ASP92      -0.2867
     73  CB        46.5510   32.0540   -2.2560 C.3    92  ASP92       0.1410
     74  CG        47.1630   32.7420   -1.0810 C.2    92  ASP92       0.3668
     75  OD1       48.4200   32.8790   -1.0550 O.co2  92  ASP92      -0.2456
     76  OD2       46.3990   33.1350   -0.1780 O.co2  92  ASP92      -0.2456
     77  N         33.9850   27.8400    0.3340 N.3   134  ARG134     -0.1245
     78  CA        33.4710   28.7260    1.3830 C.3   134  ARG134      0.1563
     79  C         32.7240   27.9640    2.4580 C.2   134  ARG134      0.2260
     80  O         32.0400   26.9780    2.1820 O.2   134  ARG134     -0.2867
     81  CB        32.5230   29.8050    0.7970 C.3   134  ARG134      0.0307
     82  CG        33.1710   30.8190   -0.1510 C.3   134  ARG134      0.0489
     83  CD        33.9810   31.8740    0.5890 C.3   134  ARG134      0.2205
     84  NE        34.5170   32.8990   -0.3090 N.pl3 134  ARG134     -0.0865
     85  CZ        34.0390   34.1370   -0.4480 C.cat 134  ARG134      0.5346
     86  NH1       32.9740   34.5300    0.2430 N.pl3 134  ARG134      0.1354
     87  NH2       34.6250   34.9900   -1.2770 N.pl3 134  ARG134      0.1354
     88  N         38.2800   38.8420   14.1080 N.3   143  ILE143     -0.1245
     89  CA        39.2990   38.4960   13.1160 C.3   143  ILE143      0.1561
     90  C         40.6650   38.1330   13.7320 C.2   143  ILE143      0.2260
     91  O         41.3360   37.2450   13.2250 O.2   143  ILE143     -0.2867
     92  CB        39.4320   39.6150   12.0400 C.3   143  ILE143      0.0252
     93  CG1       40.3590   39.1700   10.8830 C.3   143  ILE143      0.0019
     94  CG2       39.8870   40.9710   12.6550 C.3   143  ILE143      0.0019
     95  CD1       39.8160   37.9500   10.1150 C.3   143  ILE143      0.0001
     96  N         41.6980   34.5090   14.1570 N.3   146  LEU146     -0.1231
     97  CA        42.0600   33.7430   12.9430 C.3   146  LEU146      0.1693
     98  C         43.3680   34.2040   12.3030 C.2   146  LEU146      0.2592
     99  O         43.9110   33.5010   11.4360 O.2   146  LEU146     -0.2718
    100  CB        40.9430   33.8430   11.9000 C.3   146  LEU146      0.0284
    101  CG        39.5350   33.4180   12.3230 C.3   146  LEU146      0.0019
    102  CD1       38.5810   33.4550   11.1170 C.3   146  LEU146      0.0001
    103  CD2       39.5380   31.9920   12.9190 C.3   146  LEU146      0.0001
    104  N         43.8950   35.3370   12.7560 N.am  147  LYS147     -0.1966
    105  CA        45.1560   35.8840   12.2430 C.3   147  LYS147      0.1728
    106  C         46.2750   34.9130   12.5080 C.2   147  LYS147      0.2616
    107  O         46.3750   34.3610   13.6020 O.2   147  LYS147     -0.2715
    108  CB        45.4710   37.2480   12.8830 C.3   147  LYS147      0.0311
    109  CG        46.3520   38.1430   12.0290 C.3   147  LYS147      0.0038
    110  CD        45.5370   39.0520   11.1330 C.3   147  LYS147      0.0206
    111  CE        46.4410   39.9740   10.3550 C.3   147  LYS147      0.1093
    112  NZ        46.8850   39.3720    9.0700 N.3   147  LYS147     -0.1314
    113  N         47.0560   34.6240   11.4660 N.am  148  GLY148     -0.1955
    114  CA        48.1590   33.6950   11.5550 C.3   148  GLY148      0.1869
    115  C         47.7470   32.2400   11.3750 C.2   148  GLY148      0.2309
    116  O         48.5690   31.3540   11.6230 O.2   148  GLY148     -0.2863
    117  N         46.2150   31.1230    8.3840 N.3   150  SER150     -0.1217
    118  CA        46.2130   30.7160    6.9600 C.3   150  SER150      0.1889
    119  C         47.1960   29.5700    6.7710 C.2   150  SER150      0.2288
    120  O         48.2830   29.5700    7.3700 O.2   150  SER150     -0.2866
    121  CB        46.6370   31.8740    6.0730 C.3   150  SER150      0.2089
    122  OG        45.5100   32.7100    5.8860 O.3   150  SER150     -0.2183
    123  N         42.8970   26.5900    4.8310 N.3   165  PHE165     -0.1227
    124  CA        42.3480   27.9030    5.1390 C.3   165  PHE165      0.1736
    125  C         43.1770   28.9870    4.4470 C.2   165  PHE165      0.2595
    126  O         44.4080   29.0180    4.5830 O.2   165  PHE165     -0.2718
    127  CB        42.3250   28.1140    6.6630 C.3   165  PHE165      0.0547
    128  CG        41.8740   29.4890    7.0930 C.ar  165  PHE165     -0.0202
    129  CD1       40.7090   30.0490    6.5810 C.ar  165  PHE165     -0.0042
    130  CD2       42.5490   30.1730    8.1030 C.ar  165  PHE165     -0.0042
    131  CE1       40.2840   31.3110    7.0040 C.ar  165  PHE165     -0.0003
    132  CE2       42.1160   31.4360    8.5250 C.ar  165  PHE165     -0.0003
    133  CZ        40.9950   31.9930    7.9720 C.ar  165  PHE165     -0.0000
    134  N         42.4950   29.8970    3.7310 N.am  166  ARG166     -0.1966
    135  CA        43.1700   30.9230    2.9540 C.3   166  ARG166      0.1729
    136  C         42.8460   32.3400    3.4390 C.2   166  ARG166      0.2616
    137  O         43.7630   33.1200    3.6840 O.2   166  ARG166     -0.2715
    138  CB        42.7640   30.7560    1.4780 C.3   166  ARG166      0.0348
    139  CG        43.3580   31.8000    0.5330 C.3   166  ARG166      0.0492
    140  CD        43.1960   31.3450   -0.9190 C.3   166  ARG166      0.2205
    141  NE        41.7970   31.1290   -1.2960 N.pl3 166  ARG166     -0.0865
    142  CZ        41.4140   30.4960   -2.4010 C.cat 166  ARG166      0.5346
    143  NH1       42.3220   30.0210   -3.2510 N.pl3 166  ARG166      0.1354
    144  NH2       40.1240   30.3360   -2.6660 N.pl3 166  ARG166      0.1354
    145  N         41.5460   32.6560    3.5750 N.am  167  ALA167     -0.1963
    146  CA        41.1460   34.0250    3.9250 C.3   167  ALA167      0.1728
    147  C         39.8570   34.0380    4.6930 C.2   167  ALA167      0.2616
    148  O         39.0710   33.1080    4.5860 O.2   167  ALA167     -0.2715
    149  CB        40.9880   34.8320    2.6230 C.3   167  ALA167      0.0334
    150  N         39.6150   35.1030    5.4630 N.am  168  ALA168     -0.1963
    151  CA        38.3780   35.1920    6.2400 C.3   168  ALA168      0.1728
    152  C         37.4630   36.2310    5.6440 C.2   168  ALA168      0.2616
    153  O         37.9460   37.2730    5.1840 O.2   168  ALA168     -0.2715
    154  CB        38.7000   35.5740    7.6760 C.3   168  ALA168      0.0334
    155  N         36.1520   35.9940    5.7090 N.am  169  VAL169     -0.1963
    156  CA        35.1680   36.9880    5.2720 C.3   169  VAL169      0.1727
    157  C         34.9990   37.8980    6.4870 C.2   169  VAL169      0.2616
    158  O         34.3910   37.4770    7.4690 O.2   169  VAL169     -0.2715
    159  CB        33.8600   36.3350    4.7950 C.3   169  VAL169      0.0290
    160  CG1       32.8730   37.3970    4.3310 C.3   169  VAL169      0.0023
    161  CG2       34.1360   35.3150    3.6760 C.3   169  VAL169      0.0023
    162  N         35.6320   39.0920    6.4490 N.am  170  CYS170     -0.1968
    163  CA        35.7730   40.0180    7.5790 C.3   170  CYS170      0.1712
    164  C         35.0580   41.3290    7.3120 C.2   170  CYS170      0.2296
    165  O         35.2570   41.9190    6.2390 O.2   170  CYS170     -0.2864
    166  CB        37.2650   40.2370    7.8510 C.3   170  CYS170      0.0983
    167  SG        37.6610   41.4220    9.1800 S.3   170  CYS170     -0.0798
    168  N         37.2050   31.3170    3.6140 N.3   179  ASP179     -0.1239
    169  CA        37.5260   31.0030    2.2220 C.3   179  ASP179      0.1674
    170  C         38.7050   30.0390    2.2920 C.2   179  ASP179      0.2266
    171  O         39.6730   30.2620    3.0380 O.2   179  ASP179     -0.2867
    172  CB        37.8480   32.3040    1.4670 C.3   179  ASP179      0.1410
    173  CG        38.6320   32.0970    0.1960 C.2   179  ASP179      0.3668
    174  OD1       38.0140   31.8170   -0.8250 O.co2 179  ASP179     -0.2456
    175  OD2       39.8660   32.2350    0.2370 O.co2 179  ASP179     -0.2456
@<TRIPOS>BOND
     1    68    66   ar
     2    66    67   ar
     3    66    65    1
     4    65    62    1
     5    62    61    1
     6    62    63    1
     7    61    56   am
     8    58    60    1
     9    58    59    1
    10    58    55    1
    11    54    55    1
    12    63    64    2
    13    56    55    1
    14    56    57    2
    15    39    38    1
    16    38    37   ar
    17    38    36   ar
    18    37    35   ar
    19    69    70    1
    20    36    34   ar
    21    35    33   ar
    22    34    33   ar
    23    33    32    1
    24   143   142    1
    25    70    71    1
    26    70    73    1
    27   144   142    1
    28    32    29    1
    29    71    72    2
    30   142   141    2
    31    73    74    1
    32   141   140    1
    33    87    85    1
    34    74    75   ar
    35    74    76   ar
    36    29    28    1
    37    29    30    1
    38   140   139    1
    39   174   173   ar
    40    85    84    2
    41    85    86    1
    42    30    31    2
    43    30    40   am
    44    84    83    1
    45    82    83    1
    46    82    81    1
    47    40    41    1
    48   173   175   ar
    49   173   172    1
    50    77    78    1
    51   139   138    1
    52    41    44    1
    53    41    42    1
    54    81    78    1
    55    44    45    1
    56    78    79    1
    57   172   169    1
    58   138   135    1
    59    46    45   ar
    60    46    48   ar
    61    42    43    2
    62    42    50   am
    63    45    47   ar
    64    80    79    2
    65   169   170    1
    66   169   168    1
    67   170   171    2
    68    50    51    1
    69   149   146    1
    70   135   136    1
    71   135   134    1
    72    48    49   ar
    73    52    53    2
    74    52    51    1
    75    47    49   ar
    76   136   145   am
    77   136   137    2
    78   145   146    1
    79   161   159    1
    80   134   125   am
    81   146   147    1
    82   160   159    1
    83   125   126    2
    84   125   124    1
    85   148   147    2
    86   147   150   am
    87     9     7   am
    88   159   156    1
    89   123   124    1
    90   124   127    1
    91   153   152    2
    92   156   155    1
    93   156   157    1
    94   150   151    1
    95   152   155   am
    96   152   151    1
    97    26    27   ar
    98    26    24   ar
    99    27    25   ar
   100   122   121    1
   101     7     8    2
   102     7     6    1
   103   121   118    1
   104   165   164    2
   105   151   154    1
   106    24    22   ar
   107   162   157   am
   108   162   163    1
   109   157   158    2
   110   129   131   ar
   111   129   128   ar
   112   127   128    1
   113    25    23   ar
   114   119   118    1
   115   119   120    2
   116   118   117    1
   117   131   133   ar
   118   128   130   ar
   119     6     5    1
   120   164   163    1
   121    22    23   ar
   122    22    21    1
   123   163   166    1
   124   166   167    1
   125   133   132   ar
   126   130   132   ar
   127     5     2    1
   128    21    18    1
   129   112   111    1
   130     1     2    1
   131     2     3    1
   132    18    19    1
   133    18    17    1
   134     4     3    2
   135    19    20    2
   136     3    10   am
   137    95    93    1
   138    17    12   am
   139   111   110    1
   140    13    12    2
   141    12    11    1
   142    10    11    1
   143    93    92    1
   144   102   101    1
   145   110   109    1
   146    11    14    1
   147   115   114    1
   148   115   116    2
   149    99    98    2
   150   113   114    1
   151   113   106   am
   152   100   101    1
   153   100    97    1
   154   109   108    1
   155    92    94    1
   156    92    89    1
   157   105   106    1
   158   105   104    1
   159   105   108    1
   160    98   104   am
   161    98    97    1
   162   101   103    1
   163   106   107    2
   164    14    16    1
   165    14    15    1
   166    97    96    1
   167    89    90    1
   168    89    88    1
   169    91    90    2
