@<TRIPOS>MOLECULE
tmp/6bqlA00.pdb
 167 159 0 0 0
SMALL
GASTEIGER

@<TRIPOS>ATOM
      1  N          8.9880   16.6680   55.5370 N.3    13  ILE13      -0.1231
      2  CA        10.0970   16.2990   54.6270 C.3    13  ILE13       0.1692
      3  C         11.3930   17.0730   54.8970 C.2    13  ILE13       0.2593
      4  O         12.4300   16.7790   54.2980 O.2    13  ILE13      -0.2718
      5  CB         9.7120   16.3580   53.1280 C.3    13  ILE13       0.0266
      6  CG1        9.2400   17.7380   52.7030 C.3    13  ILE13       0.0019
      7  CG2        8.6150   15.3380   52.8400 C.3    13  ILE13       0.0020
      8  CD1        8.6280   17.7930   51.3270 C.3    13  ILE13       0.0001
      9  N         11.3310   18.0350   55.8060 N.am   14  GLY14      -0.1942
     10  CA        12.4960   18.8850   56.1140 C.3    14  GLY14       0.2014
     11  C         12.2190   19.7240   57.3180 C.2    14  GLY14       0.2638
     12  O         11.0430   20.0540   57.6210 O.2    14  GLY14      -0.2714
     13  N         13.2930   20.0690   58.0300 N.am   15  LYS15      -0.1977
     14  CA        13.2230   20.9470   59.2190 C.3    15  LYS15       0.1596
     15  C         14.5980   21.6100   59.3060 C.2    15  LYS15       0.2287
     16  O         15.5750   20.9270   59.2560 O.2    15  LYS15      -0.2864
     17  CB        12.9350   20.1720   60.5260 C.3    15  LYS15       0.0298
     18  CG        12.7350   21.0420   61.7590 C.3    15  LYS15       0.0038
     19  CD        12.5990   20.1660   63.0050 C.3    15  LYS15       0.0206
     20  CE        12.2160   20.9530   64.2370 C.3    15  LYS15       0.1093
     21  NZ        13.2240   21.9350   64.6530 N.3    15  LYS15      -0.1314
     22  N         15.1060   27.9390   59.2020 N.3    18  TYR18      -0.1241
     23  CA        13.9430   28.6900   58.6470 C.3    18  TYR18       0.1605
     24  C         12.6030   28.2340   59.2260 C.2    18  TYR18       0.2264
     25  O         11.8360   29.0300   59.7940 O.2    18  TYR18      -0.2867
     26  CB        13.8920   28.6370   57.0850 C.3    18  TYR18       0.0534
     27  CG        14.3400   27.3290   56.4070 C.ar   18  TYR18      -0.0201
     28  CD1       13.4460   26.2610   56.2020 C.ar   18  TYR18      -0.0009
     29  CD2       15.6570   27.1750   55.9600 C.ar   18  TYR18      -0.0009
     30  CE1       13.8620   25.0790   55.5900 C.ar   18  TYR18       0.0417
     31  CE2       16.0750   26.0050   55.3530 C.ar   18  TYR18       0.0417
     32  CZ        15.1780   24.9680   55.1630 C.ar   18  TYR18       0.1957
     33  OH        15.6160   23.8270   54.5610 O.3    18  TYR18      -0.2866
     34  N          9.2560   21.9290   56.4260 N.3    21  VAL21      -0.1245
     35  CA         8.7360   21.6270   55.1170 C.3    21  VAL21       0.1561
     36  C          7.8560   20.3530   55.1900 C.2    21  VAL21       0.2260
     37  O          8.3090   19.2700   55.6510 O.2    21  VAL21      -0.2867
     38  CB         9.8650   21.4260   54.0900 C.3    21  VAL21       0.0252
     39  CG1        9.2820   21.3130   52.7010 C.3    21  VAL21       0.0019
     40  CG2       10.8740   22.5890   54.1660 C.3    21  VAL21       0.0019
     41  N          5.1020   17.6730   53.1430 N.3    23  LEU23      -0.1245
     42  CA         4.4240   17.2300   51.9380 C.3    23  LEU23       0.1561
     43  C          2.9540   17.7030   52.0140 C.2    23  LEU23       0.2260
     44  O          2.2740   17.4970   53.0400 O.2    23  LEU23      -0.2867
     45  CB         4.4940   15.6960   51.8210 C.3    23  LEU23       0.0270
     46  CG         3.7950   15.0620   50.6250 C.3    23  LEU23       0.0019
     47  CD1        4.5460   15.4370   49.3500 C.3    23  LEU23       0.0001
     48  CD2        3.7340   13.5270   50.8260 C.3    23  LEU23       0.0001
     49  N          5.3640   20.9780   48.1920 N.3    34  ALA34      -0.1245
     50  CA         6.0910   21.1000   49.4370 C.3    34  ALA34       0.1562
     51  C          5.6370   22.3640   50.0880 C.2    34  ALA34       0.2260
     52  O          5.7300   23.4550   49.4700 O.2    34  ALA34      -0.2867
     53  CB         7.5910   21.1640   49.1770 C.3    34  ALA34       0.0290
     54  N          6.4000   24.9620   52.9750 N.3    36  LYS36      -0.1245
     55  CA         7.1950   25.5020   54.0650 C.3    36  LYS36       0.1561
     56  C          6.3570   26.3610   55.0370 C.2    36  LYS36       0.2260
     57  O          5.6560   27.3080   54.6230 O.2    36  LYS36      -0.2867
     58  CB         8.3860   26.2600   53.4910 C.3    36  LYS36       0.0271
     59  CG         9.4090   26.5980   54.5320 C.3    36  LYS36       0.0035
     60  CD        10.3910   27.6080   54.0080 C.3    36  LYS36       0.0206
     61  CE        11.2480   27.0370   52.9140 C.3    36  LYS36       0.1093
     62  NZ        12.3110   28.0550   52.5800 N.3    36  LYS36      -0.1314
     63  N         13.6430   26.2700   41.5040 N.3    79  VAL79      -0.1245
     64  CA        12.3940   25.8590   42.1750 C.3    79  VAL79       0.1561
     65  C         11.2940   26.9240   41.9970 C.2    79  VAL79       0.2260
     66  O         11.5500   28.1440   42.1600 O.2    79  VAL79      -0.2867
     67  CB        12.5800   25.5370   43.6610 C.3    79  VAL79       0.0252
     68  CG1       12.8610   26.7980   44.4380 C.3    79  VAL79       0.0019
     69  CG2       11.3360   24.8280   44.2510 C.3    79  VAL79       0.0019
     70  N          5.6860   25.4030   47.3850 N.3    97  PHE97      -0.1227
     71  CA         6.5800   25.1530   46.2570 C.3    97  PHE97       0.1736
     72  C          6.1350   23.9380   45.4840 C.2    97  PHE97       0.2595
     73  O          5.5540   22.9940   46.0580 O.2    97  PHE97      -0.2718
     74  CB         8.0050   24.8690   46.7660 C.3    97  PHE97       0.0547
     75  CG         8.6140   26.0230   47.5130 C.ar   97  PHE97      -0.0202
     76  CD1        8.4610   26.1380   48.8780 C.ar   97  PHE97      -0.0042
     77  CD2        9.3460   26.9770   46.8570 C.ar   97  PHE97      -0.0042
     78  CE1        9.0380   27.1810   49.6040 C.ar   97  PHE97      -0.0003
     79  CE2        9.9110   28.0700   47.5730 C.ar   97  PHE97      -0.0003
     80  CZ         9.7330   28.1750   48.9400 C.ar   97  PHE97      -0.0000
     81  N          6.5340   23.8950   44.2250 N.am   98  GLU98      -0.1965
     82  CA         6.4450   22.6690   43.4360 C.3    98  GLU98       0.1733
     83  C          7.2670   21.5640   44.1690 C.2    98  GLU98       0.2616
     84  O          8.2990   21.8650   44.8250 O.2    98  GLU98      -0.2715
     85  CB         6.9750   22.8910   42.0090 C.3    98  GLU98       0.0429
     86  CG         8.4800   23.0600   41.9340 C.3    98  GLU98       0.1163
     87  CD         9.0090   23.1980   40.5230 C.2    98  GLU98       0.3649
     88  OE1        8.5150   22.5200   39.6010 O.co2  98  GLU98      -0.2457
     89  OE2        9.9390   24.0060   40.3660 O.co2  98  GLU98      -0.2457
     90  N          6.8110   20.3260   44.0820 N.am   99  LEU99      -0.1963
     91  CA         7.4690   19.2450   44.7580 C.3    99  LEU99       0.1728
     92  C          8.6920   18.8440   43.9210 C.2    99  LEU99       0.2616
     93  O          8.5930   18.6860   42.7090 O.2    99  LEU99      -0.2715
     94  CB         6.4980   18.0910   45.0060 C.3    99  LEU99       0.0311
     95  CG         6.9800   17.0000   45.9600 C.3    99  LEU99       0.0022
     96  CD1        7.0730   17.4990   47.4010 C.3    99  LEU99       0.0001
     97  CD2        6.1200   15.7560   45.8780 C.3    99  LEU99       0.0001
     98  N          9.8770   18.8310   44.5310 N.am  100  VAL100     -0.1963
     99  CA        11.1250   18.3300   43.8580 C.3   100  VAL100      0.1727
    100  C         11.3910   17.0410   44.6470 C.2   100  VAL100      0.2616
    101  O         12.0070   17.0670   45.6980 O.2   100  VAL100     -0.2715
    102  CB        12.2620   19.3760   43.9110 C.3   100  VAL100      0.0290
    103  CG1       13.4440   18.9560   43.0410 C.3   100  VAL100      0.0023
    104  CG2       11.7250   20.7480   43.5050 C.3   100  VAL100      0.0023
    105  N         11.0640   15.9170   44.0410 N.am  101  ASN101     -0.1958
    106  CA        10.7870   14.7360   44.8690 C.3   101  ASN101      0.1819
    107  C         11.9640   14.0340   45.5550 C.2   101  ASN101      0.2621
    108  O         11.7370   13.3930   46.5580 O.2   101  ASN101     -0.2715
    109  CB        10.0330   13.6490   44.0730 C.3   101  ASN101      0.1195
    110  CG         8.6540   14.0740   43.6330 C.2   101  ASN101      0.2630
    111  OD1        8.4310   15.2190   43.2490 O.2   101  ASN101     -0.2716
    112  ND2        7.7490   13.1340   43.5610 N.am  101  ASN101     -0.0877
    113  N         13.1920   14.1140   45.0330 N.am  102  GLN102     -0.1963
    114  CA        14.2950   13.3940   45.6790 C.3   102  GLN102      0.1733
    115  C         15.0500   14.1960   46.7100 C.2   102  GLN102      0.2617
    116  O         15.9030   13.6510   47.3740 O.2   102  GLN102     -0.2715
    117  CB        15.2490   12.8830   44.6430 C.3   102  GLN102      0.0408
    118  CG        14.5250   12.1000   43.5820 C.3   102  GLN102      0.0908
    119  CD        15.4450   11.2060   42.7970 C.2   102  GLN102      0.2608
    120  OE1       15.7940   11.5200   41.6720 O.2   102  GLN102     -0.2717
    121  NE2       15.8130   10.0710   43.3760 N.am  102  GLN102     -0.0878
    122  N         14.7230   15.4750   46.8760 N.am  103  GLY103     -0.1941
    123  CA        15.3740   16.3080   47.8930 C.3   103  GLY103      0.1998
    124  C         16.8060   16.7000   47.5300 C.2   103  GLY103      0.2480
    125  O         17.2040   16.5560   46.3970 O.2   103  GLY103     -0.2729
    126  N         17.5650   17.2240   48.5040 N.am  104  PRO104     -0.2726
    127  CA        18.8840   17.8030   48.1840 C.3   104  PRO104      0.1402
    128  C         19.7700   16.7990   47.5590 C.2   104  PRO104      0.2269
    129  O         19.7170   15.6390   47.9180 O.2   104  PRO104     -0.2865
    130  CB        19.4030   18.2350   49.5400 C.3   104  PRO104      0.0296
    131  CG        18.1590   18.6830   50.2360 C.3   104  PRO104      0.0237
    132  CD        17.0730   17.7350   49.8020 C.3   104  PRO104      0.0939
    133  N         23.4660   21.3830   49.1720 N.3   146  SER146     -0.1202
    134  CA        22.2380   21.2580   49.8940 C.3   146  SER146      0.2020
    135  C         21.1240   22.1720   49.3980 C.2   146  SER146      0.2618
    136  O         19.9980   21.9630   49.7830 O.2   146  SER146     -0.2717
    137  CB        22.4440   21.4220   51.3820 C.3   146  SER146      0.2103
    138  OG        22.9490   22.6580   51.6940 O.3   146  SER146     -0.2182
    139  N         21.4520   23.1760   48.5510 N.am  147  ASN147     -0.1974
    140  CA        20.4660   24.0800   47.9350 C.3   147  ASN147      0.1688
    141  C         20.0680   23.6710   46.5090 C.2   147  ASN147      0.2292
    142  O         19.3620   24.3990   45.7970 O.2   147  ASN147     -0.2864
    143  CB        20.9820   25.5250   47.9850 C.3   147  ASN147      0.1181
    144  CG        20.7370   26.1730   49.3230 C.2   147  ASN147      0.2629
    145  OD1       19.8480   25.7380   50.0920 O.2   147  ASN147     -0.2716
    146  ND2       21.4790   27.2600   49.6230 N.am  147  ASN147     -0.0877
    147  N         18.0570   20.8420   44.6070 N.3   149  LEU149     -0.1245
    148  CA        17.0600   19.7660   44.8290 C.3   149  LEU149      0.1561
    149  C         16.8810   18.9460   43.5480 C.2   149  LEU149      0.2260
    150  O         16.8420   19.5060   42.4630 O.2   149  LEU149     -0.2867
    151  CB        15.7080   20.3290   45.2920 C.3   149  LEU149      0.0270
    152  CG        15.7270   21.3350   46.4230 C.3   149  LEU149      0.0019
    153  CD1       14.3430   21.8830   46.7480 C.3   149  LEU149      0.0001
    154  CD2       16.3700   20.7810   47.6960 C.3   149  LEU149      0.0001
    155  N         17.3840   26.3050   44.8170 N.3   159  ALA159     -0.1231
    156  CA        16.5610   26.7910   45.8900 C.3   159  ALA159      0.1694
    157  C         17.3440   27.7890   46.7300 C.2   159  ALA159      0.2592
    158  O         18.5790   27.9910   46.5240 O.2   159  ALA159     -0.2718
    159  CB        16.1470   25.6140   46.7580 C.3   159  ALA159      0.0304
    160  N         16.6230   28.4200   47.6450 N.am  160  ASP160     -0.1974
    161  CA        17.1370   29.2690   48.7320 C.3   160  ASP160      0.1709
    162  C         17.7000   30.6140   48.2430 C.2   160  ASP160      0.2293
    163  O         18.9050   30.7870   48.1450 O.2   160  ASP160     -0.2864
    164  CB        18.1820   28.5440   49.5810 C.3   160  ASP160      0.1436
    165  CG        18.6210   29.3410   50.8230 C.2   160  ASP160      0.3671
    166  OD1       18.0010   30.4010   51.1390 O.co2 160  ASP160     -0.2456
    167  OD2       19.6490   28.9540   51.4400 O.co2 160  ASP160     -0.2456
@<TRIPOS>BOND
     1    88    87   ar
     2    89    87   ar
     3    87    86    1
     4    63    64    1
     5   120   119    2
     6    86    85    1
     7    65    66    2
     8    65    64    1
     9    85    82    1
    10    64    67    1
    11   150   149    2
    12    93    92    2
    13   119   121   am
    14   119   118    1
    15   103   102    1
    16   111   110    2
    17    82    83    1
    18    82    81    1
    19   104   102    1
    20   149   148    1
    21   112   110   am
    22   118   117    1
    23   110   109    1
    24    67    69    1
    25    67    68    1
    26    99   102    1
    27    99    98    1
    28    99   100    1
    29    92    98   am
    30    92    91    1
    31   105   100   am
    32   105   106    1
    33   109   106    1
    34    90    83   am
    35    90    91    1
    36    83    84    2
    37    81    72   am
    38   147   148    1
    39   117   114    1
    40   100   101    2
    41    91    94    1
    42   155   156    1
    43   148   151    1
    44   106   107    1
    45    94    95    1
    46   113   107   am
    47   113   114    1
    48   151   152    1
    49    72    73    2
    50    72    71    1
    51   107   108    2
    52   114   115    1
    53   142   141    2
    54    97    95    1
    55   156   157    1
    56   156   159    1
    57    95    96    1
    58    71    74    1
    59    71    70    1
    60   125   124    2
    61   152   153    1
    62   152   154    1
    63   141   140    1
    64   158   157    2
    65   115   122   am
    66   115   116    2
    67   157   160   am
    68    74    75    1
    69    77    75   ar
    70    77    79   ar
    71   122   123    1
    72    75    76   ar
    73   124   123    1
    74   124   126   am
    75   128   129    2
    76   128   127    1
    77    79    80   ar
    78   160   161    1
    79   140   143    1
    80   140   139    1
    81   143   144    1
    82   163   162    2
    83   127   126    1
    84   127   130    1
    85    49    50    1
    86   162   161    1
    87   126   132    1
    88   139   135   am
    89   161   164    1
    90    76    78   ar
    91    80    78   ar
    92   133   134    1
    93    53    50    1
    94   144   146   am
    95   144   145    2
    96    47    46    1
    97   135   136    2
    98   135   134    1
    99    50    51    1
   100    52    51    2
   101   130   131    1
   102   164   165    1
   103   132   131    1
   104   134   137    1
   105    46    48    1
   106    46    45    1
   107   165   166   ar
   108   165   167   ar
   109     8     6    1
   110   137   138    1
   111    45    42    1
   112    42    43    1
   113    42    41    1
   114    43    44    2
   115    62    61    1
   116    39    38    1
   117     6     5    1
   118     7     5    1
   119    61    60    1
   120    54    55    1
   121     5     2    1
   122    58    55    1
   123    58    59    1
   124    60    59    1
   125    55    56    1
   126    38    40    1
   127    38    35    1
   128     4     3    2
   129    33    32    1
   130    57    56    2
   131     2     3    1
   132     2     1    1
   133     3     9   am
   134    35    36    1
   135    35    34    1
   136    32    31   ar
   137    32    30   ar
   138    36    37    2
   139    31    29   ar
   140    30    28   ar
   141     9    10    1
   142    29    27   ar
   143    10    11    1
   144    28    27   ar
   145    27    26    1
   146    26    23    1
   147    11    12    2
   148    11    13   am
   149    13    14    1
   150    23    22    1
   151    23    24    1
   152    14    15    1
   153    14    17    1
   154    24    25    2
   155    16    15    2
   156    17    18    1
   157    18    19    1
   158    19    20    1
   159    20    21    1
