@<TRIPOS>MOLECULE
tmp/6bqpA00.pdb
 191 183 0 0 0
SMALL
GASTEIGER

@<TRIPOS>ATOM
      1  N          2.0700    0.3820   29.9880 N.3    12  ILE12      -0.1231
      2  CA         2.2610    0.0730   28.5690 C.3    12  ILE12       0.1692
      3  C          2.9960    1.1700   27.7750 C.2    12  ILE12       0.2593
      4  O          3.3070    0.9750   26.5970 O.2    12  ILE12      -0.2718
      5  CB         0.9200   -0.2110   27.8950 C.3    12  ILE12       0.0266
      6  CG1       -0.0350    1.0090   27.9940 C.3    12  ILE12       0.0019
      7  CG2        0.3360   -1.4920   28.4890 C.3    12  ILE12       0.0020
      8  CD1       -1.3000    0.8560   27.1900 C.3    12  ILE12       0.0001
      9  N          3.2560    2.3100   28.4160 N.am   13  GLY13      -0.1942
     10  CA         4.0630    3.3590   27.8190 C.3    13  GLY13       0.2014
     11  C          4.4390    4.4330   28.8260 C.2    13  GLY13       0.2639
     12  O          3.8820    4.5160   29.9280 O.2    13  GLY13      -0.2714
     13  N          5.4140    5.2400   28.4560 N.am   14  LYS14      -0.1963
     14  CA         5.7540    6.4220   29.2090 C.3    14  LYS14       0.1728
     15  C          5.0900    7.5960   28.4690 C.2    14  LYS14       0.2616
     16  O          3.9190    7.8830   28.6720 O.2    14  LYS14      -0.2715
     17  CB         7.2880    6.5780   29.3500 C.3    14  LYS14       0.0311
     18  CG         7.9840    5.5180   30.1980 C.3    14  LYS14       0.0038
     19  CD         7.6890    5.6910   31.6870 C.3    14  LYS14       0.0206
     20  CE         8.4300    6.9030   32.2640 C.3    14  LYS14       0.1093
     21  NZ         7.8830    7.3520   33.5930 N.3    14  LYS14      -0.1314
     22  N          5.8100    8.2680   27.6250 N.am   15  GLY15      -0.1955
     23  CA         5.2600    9.4590   26.9700 C.3    15  GLY15       0.1869
     24  C          5.8410   10.7380   27.4930 C.2    15  GLY15       0.2309
     25  O          6.6400   10.7440   28.4340 O.2    15  GLY15      -0.2863
     26  N          4.5460   13.1800   29.2740 N.3    17  TYR17      -0.1241
     27  CA         4.2530   13.3630   30.6880 C.3    17  TYR17       0.1605
     28  C          3.5250   12.1150   31.2450 C.2    17  TYR17       0.2264
     29  O          2.6320   11.5710   30.5990 O.2    17  TYR17      -0.2867
     30  CB         3.3770   14.6140   30.9220 C.3    17  TYR17       0.0534
     31  CG         4.0380   15.9280   30.5260 C.ar   17  TYR17      -0.0201
     32  CD1        3.9470   16.4130   29.2230 C.ar   17  TYR17      -0.0009
     33  CD2        4.7660   16.6880   31.4680 C.ar   17  TYR17      -0.0009
     34  CE1        4.5840   17.5990   28.8470 C.ar   17  TYR17       0.0417
     35  CE2        5.3970   17.8740   31.1040 C.ar   17  TYR17       0.0417
     36  CZ         5.3070   18.3100   29.7850 C.ar   17  TYR17       0.1957
     37  OH         5.9150   19.4660   29.4330 O.3    17  TYR17      -0.2866
     38  N          1.2880    5.4920   30.7940 N.3    20  VAL20      -0.1245
     39  CA         0.1000    4.9270   30.2260 C.3    20  VAL20       0.1561
     40  C         -0.0230    3.5090   30.7240 C.2    20  VAL20       0.2260
     41  O          0.9460    2.7460   30.6400 O.2    20  VAL20      -0.2867
     42  CB         0.1670    4.8950   28.6890 C.3    20  VAL20       0.0252
     43  CG1       -1.1540    4.3900   28.1450 C.3    20  VAL20       0.0019
     44  CG2        0.5210    6.2680   28.0670 C.3    20  VAL20       0.0019
     45  N         -2.6420   -0.0600   30.9280 N.3    22  LEU22      -0.1245
     46  CA        -3.7650   -0.8280   30.5070 C.3    22  LEU22       0.1561
     47  C         -4.8470   -0.7670   31.5830 C.2    22  LEU22       0.2260
     48  O         -4.5490   -0.8220   32.8050 O.2    22  LEU22      -0.2867
     49  CB        -3.2650   -2.2440   30.2670 C.3    22  LEU22       0.0270
     50  CG        -4.2230   -3.2710   29.7380 C.3    22  LEU22       0.0019
     51  CD1       -4.6030   -2.8920   28.3060 C.3    22  LEU22       0.0001
     52  CD2       -3.5270   -4.6300   29.7740 C.3    22  LEU22       0.0001
     53  N         -6.6910    2.3680   27.3070 N.3    33  ALA33      -0.1245
     54  CA        -5.3860    2.9030   27.6920 C.3    33  ALA33       0.1562
     55  C         -5.6160    4.1540   28.5680 C.2    33  ALA33       0.2260
     56  O         -6.3260    5.0780   28.1670 O.2    33  ALA33      -0.2867
     57  CB        -4.5930    3.2250   26.4370 C.3    33  ALA33       0.0290
     58  N         -3.9130    7.2490   30.5730 N.3    35  LYS35      -0.1245
     59  CA        -2.7660    8.0940   30.9040 C.3    35  LYS35       0.1561
     60  C         -2.9480    8.5900   32.3290 C.2    35  LYS35       0.2260
     61  O         -4.0210    9.0910   32.6770 O.2    35  LYS35      -0.2867
     62  CB        -2.6840    9.2810   29.9710 C.3    35  LYS35       0.0271
     63  CG        -1.6050   10.2890   30.3160 C.3    35  LYS35       0.0035
     64  CD        -1.3810   11.2530   29.1550 C.3    35  LYS35       0.0206
     65  CE        -0.4940   12.4010   29.6020 C.3    35  LYS35       0.1093
     66  NZ        -0.3290   13.3950   28.5140 N.3    35  LYS35      -0.1314
     67  N         -4.3480   20.3580   26.9860 N.3    51  GLU51      -0.1245
     68  CA        -4.2480   19.0770   26.2980 C.3    51  GLU51       0.1567
     69  C         -5.6410   18.4030   26.2100 C.2    51  GLU51       0.2260
     70  O         -6.0050   17.8890   25.1530 O.2    51  GLU51      -0.2867
     71  CB        -3.2090   18.1760   26.9860 C.3    51  GLU51       0.0388
     72  CG        -2.9260   16.8490   26.2770 C.3    51  GLU51       0.1160
     73  CD        -2.2220   15.8170   27.1500 C.2    51  GLU51       0.3649
     74  OE1       -1.6430   16.1570   28.2320 O.co2  51  GLU51      -0.2457
     75  OE2       -2.2390   14.6310   26.7420 O.co2  51  GLU51      -0.2457
     76  N         -5.7240    8.9000   18.0380 N.3    64  VAL64      -0.1245
     77  CA        -6.2350    8.1310   19.2050 C.3    64  VAL64       0.1561
     78  C         -7.3370    8.9570   19.9010 C.2    64  VAL64       0.2260
     79  O         -7.1630   10.1500   20.1660 O.2    64  VAL64      -0.2867
     80  CB        -5.1130    7.7430   20.1910 C.3    64  VAL64       0.0252
     81  CG1       -5.6550    6.9750   21.4010 C.3    64  VAL64       0.0019
     82  CG2       -4.0700    6.8730   19.5250 C.3    64  VAL64       0.0019
     83  N         -8.3120    6.6410   27.1900 N.3    82  PHE82      -0.1227
     84  CA        -8.2040    6.6260   25.7590 C.3    82  PHE82       0.1736
     85  C         -8.6150    5.2700   25.2590 C.2    82  PHE82       0.2595
     86  O         -8.5050    4.2710   25.9830 O.2    82  PHE82      -0.2718
     87  CB        -6.7530    6.8620   25.3310 C.3    82  PHE82       0.0547
     88  CG        -6.2470    8.2550   25.5540 C.ar   82  PHE82      -0.0202
     89  CD1       -5.6260    8.6080   26.7350 C.ar   82  PHE82      -0.0042
     90  CD2       -6.3440    9.2080   24.5670 C.ar   82  PHE82      -0.0042
     91  CE1       -5.1530    9.8930   26.9440 C.ar   82  PHE82      -0.0003
     92  CE2       -5.8440   10.4920   24.7520 C.ar   82  PHE82      -0.0003
     93  CZ        -5.2330   10.8340   25.9330 C.ar   82  PHE82      -0.0000
     94  N         -8.9820    5.2170   23.9810 N.am   83  GLU83      -0.1965
     95  CA        -9.1090    3.9380   23.2940 C.3    83  GLU83       0.1733
     96  C         -7.7560    3.2160   23.3300 C.2    83  GLU83       0.2616
     97  O         -6.7090    3.8640   23.2750 O.2    83  GLU83      -0.2715
     98  CB        -9.6110    4.1260   21.8500 C.3    83  GLU83       0.0429
     99  CG        -8.6140    4.7170   20.8750 C.3    83  GLU83       0.1163
    100  CD        -9.1510    4.8400   19.4440 C.2    83  GLU83       0.3649
    101  OE1       -9.8760    3.9340   18.9650 O.co2  83  GLU83      -0.2457
    102  OE2       -8.8520    5.8570   18.7930 O.co2  83  GLU83      -0.2457
    103  N         -7.8060    1.8820   23.4420 N.am   84  LEU84      -0.1963
    104  CA        -6.6620    1.0380   23.3670 C.3    84  LEU84       0.1728
    105  C         -6.4600    0.6090   21.9040 C.2    84  LEU84       0.2616
    106  O         -7.3730    0.0960   21.2810 O.2    84  LEU84      -0.2715
    107  CB        -6.8910   -0.2000   24.2120 C.3    84  LEU84       0.0311
    108  CG        -5.8070   -1.2430   24.1960 C.3    84  LEU84       0.0022
    109  CD1       -4.5030   -0.6970   24.7490 C.3    84  LEU84       0.0001
    110  CD2       -6.3030   -2.4450   24.9880 C.3    84  LEU84       0.0001
    111  N         -5.2340    0.7730   21.4170 N.am   85  VAL85      -0.1963
    112  CA        -4.8280    0.3630   20.0950 C.3    85  VAL85       0.1727
    113  C         -3.9220   -0.8740   20.2560 C.2    85  VAL85       0.2616
    114  O         -2.7510   -0.7490   20.5700 O.2    85  VAL85      -0.2715
    115  CB        -4.1590    1.5700   19.3910 C.3    85  VAL85       0.0290
    116  CG1       -3.8950    1.2800   17.9290 C.3    85  VAL85       0.0023
    117  CG2       -5.0480    2.7800   19.4760 C.3    85  VAL85       0.0023
    118  N         -4.5120   -2.0600   20.0660 N.am   86  ASN86      -0.1958
    119  CA        -3.9640   -3.3800   20.4340 C.3    86  ASN86       0.1819
    120  C         -2.5060   -3.6310   20.2550 C.2    86  ASN86       0.2621
    121  O         -1.8480   -4.0970   21.1600 O.2    86  ASN86      -0.2715
    122  CB        -4.5520   -4.4450   19.4970 C.3    86  ASN86       0.1195
    123  CG        -5.8470   -4.9410   19.9440 C.2    86  ASN86       0.2630
    124  OD1       -6.4850   -4.3240   20.7900 O.2    86  ASN86      -0.2716
    125  ND2       -6.2640   -6.0910   19.3940 N.am   86  ASN86      -0.0877
    126  N         -2.0450   -3.4080   19.0250 N.am   87  GLN87      -0.1963
    127  CA        -0.7160   -3.8140   18.5950 C.3    87  GLN87       0.1733
    128  C          0.3670   -2.8510   19.0180 C.2    87  GLN87       0.2617
    129  O          1.5720   -3.1670   18.9270 O.2    87  GLN87      -0.2715
    130  CB        -0.6870   -4.0550   17.0770 C.3    87  GLN87       0.0408
    131  CG        -1.7470   -5.0590   16.6090 C.3    87  GLN87       0.0908
    132  CD        -1.5440   -5.5280   15.1700 C.2    87  GLN87       0.2608
    133  OE1       -0.6780   -6.3620   14.9160 O.2    87  GLN87      -0.2717
    134  NE2       -2.3370   -4.9940   14.2260 N.am   87  GLN87      -0.0878
    135  N         -0.0310   -1.6770   19.5150 N.am   88  GLY88      -0.1941
    136  CA         0.9480   -0.7460   20.0470 C.3    88  GLY88       0.1998
    137  C          1.8140   -0.0880   18.9530 C.2    88  GLY88       0.2480
    138  O          1.4660   -0.1570   17.7520 O.2    88  GLY88      -0.2729
    139  N          2.9200    0.5760   19.3670 N.am   89  PRO89      -0.2726
    140  CA         3.8220    1.2830   18.4910 C.3    89  PRO89       0.1402
    141  C          4.2160    0.5020   17.2300 C.2    89  PRO89       0.2269
    142  O          4.5230   -0.7030   17.2860 O.2    89  PRO89      -0.2865
    143  CB         5.0400    1.5630   19.3770 C.3    89  PRO89       0.0296
    144  CG         4.4720    1.7090   20.7390 C.3    89  PRO89       0.0237
    145  CD         3.3840    0.6530   20.7710 C.3    89  PRO89       0.0939
    146  N          7.4440    5.6900   17.7140 N.3   131  SER131     -0.1202
    147  CA         6.9530    5.1060   18.9300 C.3   131  SER131      0.2020
    148  C          5.6200    5.7490   19.3880 C.2   131  SER131      0.2618
    149  O          4.9730    5.1540   20.2760 O.2   131  SER131     -0.2717
    150  CB         8.0250    5.0950   19.9980 C.3   131  SER131      0.2103
    151  OG         8.3420    6.3990   20.3250 O.3   131  SER131     -0.2182
    152  N          5.1980    6.8860   18.7630 N.am  132  ASN132     -0.1974
    153  CA         3.8910    7.5130   19.0190 C.3   132  ASN132      0.1688
    154  C          2.8150    7.1760   18.0230 C.2   132  ASN132      0.2292
    155  O          1.7280    7.7440   18.1090 O.2   132  ASN132     -0.2864
    156  CB         3.9740    9.0380   19.2040 C.3   132  ASN132      0.1181
    157  CG         4.5300    9.4560   20.5680 C.2   132  ASN132      0.2629
    158  OD1        4.4570    8.6980   21.5300 O.2   132  ASN132     -0.2716
    159  ND2        5.1210   10.6520   20.6430 N.am  132  ASN132     -0.0877
    160  N          0.5160    4.1960   16.6660 N.3   134  LEU134     -0.1245
    161  CA        -0.0080    2.9400   17.2040 C.3   134  LEU134      0.1561
    162  C         -0.7360    2.1810   16.1150 C.2   134  LEU134      0.2260
    163  O         -1.5220    2.7690   15.3790 O.2   134  LEU134     -0.2867
    164  CB        -0.9620    3.2080   18.3840 C.3   134  LEU134      0.0270
    165  CG        -0.3860    4.0500   19.5080 C.3   134  LEU134      0.0019
    166  CD1       -1.3480    4.2370   20.6820 C.3   134  LEU134      0.0001
    167  CD2        0.9040    3.4500   19.9960 C.3   134  LEU134      0.0001
    168  N         -0.6730    9.3030   18.6010 N.3   144  ALA144     -0.1231
    169  CA        -0.8510    9.3710   20.0640 C.3   144  ALA144      0.1694
    170  C          0.1080   10.4390   20.6240 C.2   144  ALA144      0.2592
    171  O          1.0290   10.9100   19.9390 O.2   144  ALA144     -0.2718
    172  CB        -0.5260    8.0270   20.6460 C.3   144  ALA144      0.0304
    173  N         -0.1780   10.7830   21.8640 N.am  145  ASP145     -0.1960
    174  CA         0.5740   11.6540   22.7680 C.3   145  ASP145      0.1840
    175  C          0.5320   13.0870   22.3590 C.2   145  ASP145      0.2622
    176  O          1.3690   13.5610   21.5940 O.2   145  ASP145     -0.2715
    177  CB         2.0100   11.1920   23.0420 C.3   145  ASP145      0.1450
    178  CG         2.5850   11.8220   24.3110 C.2   145  ASP145      0.3671
    179  OD1        1.9970   12.8090   24.8850 O.co2 145  ASP145     -0.2456
    180  OD2        3.6540   11.2990   24.7540 O.co2 145  ASP145     -0.2456
    181  N         -0.4410   13.7890   22.9240 N.am  146  PHE146     -0.1974
    182  CA        -0.6060   15.1950   22.6980 C.3   146  PHE146      0.1639
    183  C         -0.0140   16.0190   23.8210 C.2   146  PHE146      0.2290
    184  O         -0.3030   17.2200   23.9100 O.2   146  PHE146     -0.2864
    185  CB        -2.0540   15.5150   22.3640 C.3   146  PHE146      0.0560
    186  CG        -2.4500   15.0510   20.9830 C.ar  146  PHE146     -0.0200
    187  CD1       -2.6410   13.6830   20.7160 C.ar  146  PHE146     -0.0042
    188  CD2       -2.5640   15.9630   19.9440 C.ar  146  PHE146     -0.0042
    189  CE1       -2.9460   13.2820   19.3980 C.ar  146  PHE146     -0.0003
    190  CE2       -2.9160   15.5700   18.6600 C.ar  146  PHE146     -0.0003
    191  CZ        -3.0690   14.2220   18.3860 C.ar  146  PHE146     -0.0000
@<TRIPOS>BOND
     1   134   132   am
     2   133   132    2
     3   132   131    1
     4   163   162    2
     5   162   161    1
     6   131   130    1
     7   160   161    1
     8   130   127    1
     9   161   164    1
    10   141   142    2
    11   141   140    1
    12   146   147    1
    13   138   137    2
    14   116   115    1
    15   154   155    2
    16   154   153    1
    17    76    77    1
    18   164   165    1
    19   191   190   ar
    20   191   189   ar
    21   140   139    1
    22   140   143    1
    23   127   128    1
    24   127   126    1
    25   168   169    1
    26   190   188   ar
    27   152   153    1
    28   152   148   am
    29   102   100   ar
    30   129   128    2
    31   147   148    1
    32   147   150    1
    33   137   139   am
    34   137   136    1
    35   101   100   ar
    36   128   135   am
    37   153   156    1
    38   126   120   am
    39   156   157    1
    40    77    78    1
    41    77    80    1
    42   139   145    1
    43   143   144    1
    44   148   149    2
    45   115   117    1
    46   115   112    1
    47   125   123   am
    48   189   187   ar
    49   100    99    1
    50   122   123    1
    51   122   119    1
    52   165   167    1
    53   165   166    1
    54   135   136    1
    55    82    80    1
    56    78    79    2
    57   171   170    2
    58   123   124    2
    59   188   186   ar
    60   150   151    1
    61   169   170    1
    62   169   172    1
    63   118   113   am
    64   118   119    1
    65   112   113    1
    66   112   111    1
    67    80    81    1
    68   120   119    1
    69   120   121    2
    70   113   114    2
    71   157   159   am
    72   157   158    2
    73   170   173   am
    74   187   186   ar
    75   144   145    1
    76    99    98    1
    77   186   185    1
    78   106   105    2
    79   111   105   am
    80   176   175    2
    81    98    95    1
    82   173   174    1
    83   105   104    1
    84   175   174    1
    85   175   181   am
    86   185   182    1
    87   182   181    1
    88   182   183    1
    89   174   177    1
    90   177   178    1
    91    97    96    2
    92    95    96    1
    93    95    94    1
    94    96   103   am
    95   104   103    1
    96   104   107    1
    97   183   184    2
    98    94    85   am
    99   108   107    1
   100   108   109    1
   101   108   110    1
   102   178   180   ar
   103   178   179   ar
   104    90    92   ar
   105    90    88   ar
   106    92    93   ar
   107    70    69    2
   108    85    84    1
   109    85    86    2
   110    87    88    1
   111    87    84    1
   112    88    89   ar
   113    84    83    1
   114    93    91   ar
   115    69    68    1
   116    72    71    1
   117    72    73    1
   118    68    67    1
   119    68    71    1
   120    57    54    1
   121     4     3    2
   122    89    91   ar
   123    75    73   ar
   124    23    24    1
   125    23    22    1
   126    73    74   ar
   127     8     6    1
   128    53    54    1
   129    24    25    2
   130    22    15   am
   131    54    55    1
   132     3     9   am
   133     3     2    1
   134    10     9    1
   135    10    11    1
   136     5     6    1
   137     5     7    1
   138     5     2    1
   139    44    42    1
   140    43    42    1
   141    56    55    2
   142    51    50    1
   143    13    11   am
   144    13    14    1
   145    15    16    2
   146    15    14    1
   147    66    65    1
   148     2     1    1
   149    42    39    1
   150    11    12    2
   151    34    32   ar
   152    34    36   ar
   153    64    65    1
   154    64    63    1
   155    14    17    1
   156    32    31   ar
   157    26    27    1
   158    17    18    1
   159    37    36    1
   160    50    52    1
   161    50    49    1
   162    36    35   ar
   163    62    63    1
   164    62    59    1
   165    18    19    1
   166    39    40    1
   167    39    38    1
   168    49    46    1
   169    46    45    1
   170    46    47    1
   171    31    30    1
   172    31    33   ar
   173    58    59    1
   174    29    28    2
   175    41    40    2
   176    27    30    1
   177    27    28    1
   178    59    60    1
   179    35    33   ar
   180    47    48    2
   181    19    20    1
   182    20    21    1
   183    60    61    2
