@<TRIPOS>MOLECULE
tmp/6bqqA00.pdb
 177 168 0 0 0
SMALL
GASTEIGER

@<TRIPOS>ATOM
      1  N         30.4750   21.6420   54.0720 N.3    12  GLU12      -0.1231
      2  CA        29.5440   20.5560   54.1610 C.3    12  GLU12       0.1699
      3  C         28.2920   20.9520   53.3870 C.2    12  GLU12       0.2592
      4  O         27.7150   22.0130   53.6370 O.2    12  GLU12      -0.2718
      5  CB        29.1950   20.2540   55.6030 C.3    12  GLU12       0.0402
      6  CG        28.3790   18.9910   55.8030 C.3    12  GLU12       0.1161
      7  CD        28.4500   18.4880   57.2500 C.2    12  GLU12       0.3649
      8  OE1       29.5780   18.1860   57.7180 O.co2  12  GLU12      -0.2457
      9  OE2       27.3690   18.4000   57.9140 O.co2  12  GLU12      -0.2457
     10  N         27.8930   20.1050   52.4540 N.am   13  ILE13      -0.1966
     11  CA        26.7530   20.3820   51.5750 C.3    13  ILE13       0.1727
     12  C         25.5360   19.5050   51.8500 C.2    13  ILE13       0.2616
     13  O         24.4630   19.7540   51.2820 O.2    13  ILE13      -0.2715
     14  CB        27.1300   20.3670   50.0610 C.3    13  ILE13       0.0290
     15  CG1       27.6850   19.0070   49.5890 C.3    13  ILE13       0.0022
     16  CG2       28.1030   21.5070   49.7650 C.3    13  ILE13       0.0023
     17  CD1       28.0100   18.9020   48.1100 C.3    13  ILE13       0.0001
     18  N         25.7080   18.5090   52.7220 N.am   14  GLY14      -0.1955
     19  CA        24.6430   17.6000   53.0710 C.3    14  GLY14       0.1869
     20  C         24.9760   16.7950   54.3060 C.2    14  GLY14       0.2309
     21  O         26.1490   16.6340   54.6840 O.2    14  GLY14      -0.2863
     22  N         23.0900    8.3700   56.5390 N.3    18  TYR18      -0.1241
     23  CA        24.2570    7.8920   55.7800 C.3    18  TYR18       0.1605
     24  C         25.6130    8.4220   56.2560 C.2    18  TYR18       0.2264
     25  O         26.6010    7.7060   56.1380 O.2    18  TYR18      -0.2867
     26  CB        24.0910    8.1810   54.2800 C.3    18  TYR18       0.0534
     27  CG        23.9900    9.6510   53.9170 C.ar   18  TYR18      -0.0201
     28  CD1       25.1360   10.4530   53.8000 C.ar   18  TYR18      -0.0009
     29  CD2       22.7480   10.2450   53.6910 C.ar   18  TYR18      -0.0009
     30  CE1       25.0420   11.7950   53.4810 C.ar   18  TYR18       0.0417
     31  CE2       22.6490   11.5900   53.3590 C.ar   18  TYR18       0.0417
     32  CZ        23.8020   12.3550   53.2580 C.ar   18  TYR18       0.1957
     33  OH        23.6980   13.6790   52.9240 O.3    18  TYR18      -0.2866
     34  N         28.1300   14.9670   53.4190 N.3    21  VAL21      -0.1245
     35  CA        28.6410   15.2160   52.0440 C.3    21  VAL21       0.1561
     36  C         29.4350   16.4850   52.0760 C.2    21  VAL21       0.2260
     37  O         28.9650   17.4840   52.5880 O.2    21  VAL21      -0.2867
     38  CB        27.5230   15.3470   50.9890 C.3    21  VAL21       0.0252
     39  CG1       28.1030   15.4850   49.5880 C.3    21  VAL21       0.0019
     40  CG2       26.6090   14.1440   51.0550 C.3    21  VAL21       0.0019
     41  N         31.8720   19.3180   49.8570 N.3    23  LEU23      -0.1245
     42  CA        32.4210   19.8640   48.6520 C.3    23  LEU23       0.1561
     43  C         33.9050   19.4770   48.6310 C.2    23  LEU23       0.2260
     44  O         34.6060   19.6440   49.6710 O.2    23  LEU23      -0.2867
     45  CB        32.2480   21.3680   48.6800 C.3    23  LEU23       0.0270
     46  CG        32.5680   22.1820   47.4620 C.3    23  LEU23       0.0019
     47  CD1       31.6870   21.7660   46.2870 C.3    23  LEU23       0.0001
     48  CD2       32.4020   23.6560   47.8050 C.3    23  LEU23       0.0001
     49  N         31.4640   16.2960   44.6010 N.3    34  ALA34      -0.1245
     50  CA        30.6980   16.0680   45.8370 C.3    34  ALA34       0.1562
     51  C         31.1530   14.7480   46.4360 C.2    34  ALA34       0.2260
     52  O         31.0780   13.7090   45.7770 O.2    34  ALA34      -0.2867
     53  CB        29.2230   16.0070   45.5560 C.3    34  ALA34       0.0290
     54  N         30.5940   12.0680   49.3890 N.3    36  LYS36      -0.1245
     55  CA        29.7700   11.5220   50.4440 C.3    36  LYS36       0.1561
     56  C         30.6990   10.7030   51.3410 C.2    36  LYS36       0.2260
     57  O         31.4530    9.8550   50.8380 O.2    36  LYS36      -0.2867
     58  CB        28.6680   10.6450   49.8510 C.3    36  LYS36       0.0271
     59  CG        27.6720   10.0660   50.8680 C.3    36  LYS36       0.0035
     60  CD        26.7810    9.0010   50.2310 C.3    36  LYS36       0.0206
     61  CE        25.3960    9.4480   49.8290 C.3    36  LYS36       0.1093
     62  NZ        24.8020    8.4270   48.8760 N.3    36  LYS36      -0.1314
     63  N         22.8700   11.2930   38.1160 N.3    73  VAL73      -0.1231
     64  CA        24.1750   11.6040   38.7190 C.3    73  VAL73       0.1692
     65  C         25.2860   10.6520   38.3210 C.2    73  VAL73       0.2591
     66  O         25.0390    9.5300   37.8570 O.2    73  VAL73      -0.2718
     67  CB        24.0920   11.7160   40.2750 C.3    73  VAL73       0.0266
     68  CG1       23.1740   12.8330   40.6720 C.3    73  VAL73       0.0020
     69  CG2       23.7380   10.3880   40.9450 C.3    73  VAL73       0.0020
     70  N         26.5310   11.1250   38.4570 N.am   74  LYS74      -0.1980
     71  CA        27.6930   10.3450   38.0430 C.3    74  LYS74       0.1596
     72  C         28.6760   10.1100   39.1750 C.2    74  LYS74       0.2287
     73  O         29.3080   11.0470   39.6870 O.2    74  LYS74      -0.2864
     74  CB        28.4050   11.0420   36.8820 C.3    74  LYS74       0.0298
     75  CG        29.5640   10.2590   36.2890 C.3    74  LYS74       0.0038
     76  CD        29.0620    8.9960   35.6180 C.3    74  LYS74       0.0206
     77  CE        30.1150    8.2990   34.7920 C.3    74  LYS74       0.1093
     78  NZ        30.9970    7.5170   35.6960 N.3    74  LYS74      -0.1314
     79  N         31.2480   11.9580   43.6300 N.3    91  PHE91      -0.1227
     80  CA        30.3860   12.2430   42.4870 C.3    91  PHE91       0.1736
     81  C         30.7780   13.5290   41.7790 C.2    91  PHE91       0.2595
     82  O         31.2980   14.4450   42.4040 O.2    91  PHE91      -0.2718
     83  CB        28.9320   12.4000   42.9090 C.3    91  PHE91       0.0547
     84  CG        28.3020   11.1870   43.5760 C.ar   91  PHE91      -0.0202
     85  CD1       28.5340   10.8870   44.9020 C.ar   91  PHE91      -0.0042
     86  CD2       27.3930   10.4020   42.8920 C.ar   91  PHE91      -0.0042
     87  CE1       27.8930    9.8250   45.5280 C.ar   91  PHE91      -0.0003
     88  CE2       26.7570    9.3300   43.4990 C.ar   91  PHE91      -0.0003
     89  CZ        27.0010    9.0390   44.8270 C.ar   91  PHE91      -0.0000
     90  N         30.4870   13.6070   40.4770 N.am   92  GLU92      -0.1965
     91  CA        30.4840   14.8980   39.7800 C.3    92  GLU92       0.1733
     92  C         29.5390   15.8730   40.4910 C.2    92  GLU92       0.2616
     93  O         28.4330   15.5200   40.9120 O.2    92  GLU92      -0.2715
     94  CB        30.0700   14.7600   38.3190 C.3    92  GLU92       0.0429
     95  CG        31.1120   14.0270   37.4820 C.3    92  GLU92       0.1163
     96  CD        30.7660   13.9470   36.0100 C.2    92  GLU92       0.3649
     97  OE1       29.6190   14.2260   35.6250 O.co2  92  GLU92      -0.2457
     98  OE2       31.6570   13.5510   35.2480 O.co2  92  GLU92      -0.2457
     99  N         30.0000   17.0990   40.6720 N.am   93  LEU93      -0.1963
    100  CA        29.2090   18.0920   41.3760 C.3    93  LEU93       0.1728
    101  C         28.0350   18.4850   40.4890 C.2    93  LEU93       0.2616
    102  O         28.1950   18.5630   39.2610 O.2    93  LEU93      -0.2715
    103  CB        30.0430   19.3480   41.6910 C.3    93  LEU93       0.0311
    104  CG        29.3990   20.3350   42.6700 C.3    93  LEU93       0.0022
    105  CD1       29.2690   19.8470   44.1090 C.3    93  LEU93       0.0001
    106  CD2       30.1620   21.6520   42.6090 C.3    93  LEU93       0.0001
    107  N         26.8940   18.7480   41.1130 N.am   94  VAL94      -0.1963
    108  CA        25.7010   19.2270   40.4180 C.3    94  VAL94       0.1727
    109  C         25.3770   20.5440   41.1120 C.2    94  VAL94       0.2616
    110  O         24.7570   20.5780   42.1840 O.2    94  VAL94      -0.2715
    111  CB        24.5490   18.1880   40.4200 C.3    94  VAL94       0.0290
    112  CG1       23.3370   18.7020   39.6340 C.3    94  VAL94       0.0023
    113  CG2       25.0370   16.9070   39.7790 C.3    94  VAL94       0.0023
    114  N         25.8520   21.5960   40.4250 N.am   95  ASN95      -0.1958
    115  CA        26.1270   22.9610   40.8980 C.3    95  ASN95       0.1819
    116  C         25.1010   23.6340   41.7780 C.2    95  ASN95       0.2621
    117  O         25.4410   24.3820   42.7190 O.2    95  ASN95      -0.2715
    118  CB        26.2440   23.8360   39.5960 C.3    95  ASN95       0.1195
    119  CG        27.0500   25.0430   39.7790 C.2    95  ASN95       0.2630
    120  OD1       26.5800   26.0280   40.3380 O.2    95  ASN95      -0.2716
    121  ND2       28.2860   25.0090   39.2860 N.am   95  ASN95      -0.0877
    122  N         23.8400   23.4890   41.3860 N.am   96  GLN96      -0.1963
    123  CA        22.7770   24.2890   41.9440 C.3    96  GLN96       0.1733
    124  C         21.9710   23.5350   42.9770 C.2    96  GLN96       0.2617
    125  O         21.0310   24.0790   43.5150 O.2    96  GLN96      -0.2715
    126  CB        21.8930   24.8550   40.8310 C.3    96  GLN96       0.0408
    127  CG        22.6350   25.7510   39.8380 C.3    96  GLN96       0.0908
    128  CD        23.0680   27.0500   40.4810 C.2    96  GLN96       0.2608
    129  OE1       22.2460   27.8510   40.8670 O.2    96  GLN96      -0.2717
    130  NE2       24.3640   27.2370   40.6470 N.am   96  GLN96      -0.0878
    131  N         22.3640   22.3030   43.2910 N.am   97  GLY97      -0.1941
    132  CA        21.7490   21.5650   44.3660 C.3    97  GLY97       0.1998
    133  C         20.3350   21.1250   44.0580 C.2    97  GLY97       0.2480
    134  O         19.8870   21.2390   42.9060 O.2    97  GLY97      -0.2729
    135  N         19.6110   20.6400   45.0850 N.am   98  PRO98      -0.2726
    136  CA        18.2350   20.1520   44.9270 C.3    98  PRO98       0.1402
    137  C         17.3170   21.1850   44.3730 C.2    98  PRO98       0.2269
    138  O         17.4430   22.3440   44.7130 O.2    98  PRO98      -0.2865
    139  CB        17.8210   19.7990   46.3570 C.3    98  PRO98       0.0296
    140  CG        19.1040   19.4060   46.9940 C.3    98  PRO98       0.0237
    141  CD        20.1230   20.3550   46.4430 C.3    98  PRO98       0.0939
    142  N         12.9920   22.0200   48.2180 N.3   101  GLU101     -0.1245
    143  CA        12.5790   21.3410   49.4380 C.3   101  GLU101      0.1567
    144  C         11.0570   21.4520   49.4850 C.2   101  GLU101      0.2260
    145  O         10.4620   22.4250   48.9850 O.2   101  GLU101     -0.2867
    146  CB        13.2150   21.9710   50.6770 C.3   101  GLU101      0.0388
    147  CG        14.7270   22.0520   50.5070 C.3   101  GLU101      0.1160
    148  CD        15.4550   20.7490   50.7000 C.2   101  GLU101      0.3649
    149  OE1       14.7840   19.7550   50.9850 O.co2 101  GLU101     -0.2457
    150  OE2       16.7170   20.7170   50.5640 O.co2 101  GLU101     -0.2457
    151  N         13.6440   16.7440   46.3270 N.3   140  SER140     -0.1217
    152  CA        14.9600   16.9110   46.9790 C.3   140  SER140      0.1889
    153  C         16.0370   15.9720   46.4060 C.2   140  SER140      0.2288
    154  O         17.2130   16.1610   46.6450 O.2   140  SER140     -0.2866
    155  CB        14.8200   16.7770   48.5010 C.3   140  SER140      0.2089
    156  OG        14.5140   15.4520   48.8880 O.3   140  SER140     -0.2183
    157  N         18.5740   17.1350   41.2950 N.3   143  LEU143     -0.1245
    158  CA        19.5850   18.1720   41.4760 C.3   143  LEU143      0.1561
    159  C         19.7100   18.9790   40.1960 C.2   143  LEU143      0.2260
    160  O         19.7250   18.4210   39.1000 O.2   143  LEU143     -0.2867
    161  CB        20.9190   17.5190   41.8080 C.3   143  LEU143      0.0270
    162  CG        20.8740   16.5270   42.9840 C.3   143  LEU143      0.0019
    163  CD1       22.2760   15.9480   43.2440 C.3   143  LEU143      0.0001
    164  CD2       20.2760   17.1300   44.2210 C.3   143  LEU143      0.0001
    165  N         19.3240   11.7700   41.6670 N.3   153  ALA153     -0.1231
    166  CA        20.2920   11.3530   42.6860 C.3   153  ALA153      0.1694
    167  C         19.6870   10.3640   43.6630 C.2   153  ALA153      0.2592
    168  O         18.4730   10.1010   43.6540 O.2   153  ALA153     -0.2718
    169  CB        20.7750   12.5700   43.4510 C.3   153  ALA153      0.0304
    170  N         20.5490    9.8740   44.5490 N.am  154  ASP154     -0.1974
    171  CA        20.1790    9.0520   45.7260 C.3   154  ASP154      0.1709
    172  C         19.5440    7.7130   45.3540 C.2   154  ASP154      0.2293
    173  O         18.3300    7.5140   45.4920 O.2   154  ASP154     -0.2864
    174  CB        19.2660    9.7970   46.6920 C.3   154  ASP154      0.1436
    175  CG        19.0790    9.0610   48.0170 C.2   154  ASP154      0.3671
    176  OD1       19.5670    7.8960   48.1640 O.co2 154  ASP154     -0.2456
    177  OD2       18.4450    9.6800   48.9020 O.co2 154  ASP154     -0.2456
@<TRIPOS>BOND
     1    77    76    1
     2    77    78    1
     3    98    96   ar
     4    76    75    1
     5    97    96   ar
     6    96    95    1
     7    75    74    1
     8    74    71    1
     9    95    94    1
    10    66    65    2
    11    71    70    1
    12    71    72    1
    13    63    64    1
    14    94    91    1
    15    65    70   am
    16    65    64    1
    17    64    67    1
    18   160   159    2
    19    72    73    2
    20   102   101    2
    21   121   119   am
    22   118   119    1
    23   118   115    1
    24   112   111    1
    25   113   111    1
    26   119   120    2
    27    91    90    1
    28    91    92    1
    29   127   128    1
    30   127   126    1
    31   159   158    1
    32    67    68    1
    33    67    69    1
    34   108   111    1
    35   108   109    1
    36   108   107    1
    37   114   115    1
    38   114   109   am
    39    90    81   am
    40   128   130   am
    41   128   129    2
    42   101   107   am
    43   101   100    1
    44    92    99   am
    45    92    93    2
    46    99   100    1
    47   126   123    1
    48   115   116    1
    49   109   110    2
    50   157   158    1
    51   100   103    1
    52   122   116   am
    53   122   123    1
    54   158   161    1
    55   165   166    1
    56   103   104    1
    57   116   117    2
    58    81    82    2
    59    81    80    1
    60   161   162    1
    61   123   124    1
    62    80    83    1
    63    80    79    1
    64   106   104    1
    65   104   105    1
    66   166   169    1
    67   166   167    1
    68    86    88   ar
    69    86    84   ar
    70   134   133    2
    71    83    84    1
    72   124   131   am
    73   124   125    2
    74   162   163    1
    75   162   164    1
    76   131   132    1
    77    88    89   ar
    78    84    85   ar
    79   168   167    2
    80   167   170   am
    81   133   132    1
    82   133   135   am
    83   137   138    2
    84   137   136    1
    85   170   171    1
    86    49    50    1
    87    89    87   ar
    88    85    87   ar
    89   136   135    1
    90   136   139    1
    91   135   141    1
    92   172   173    2
    93   172   171    1
    94    53    50    1
    95   171   174    1
    96    52    51    2
    97    50    51    1
    98    47    46    1
    99   151   152    1
   100   139   140    1
   101   153   154    2
   102   153   152    1
   103   141   140    1
   104   174   175    1
   105   152   155    1
   106    46    48    1
   107    46    45    1
   108   175   176   ar
   109   175   177   ar
   110    17    15    1
   111   142   143    1
   112   155   156    1
   113    43    42    1
   114    43    44    2
   115    42    45    1
   116    42    41    1
   117    62    61    1
   118   145   144    2
   119    54    55    1
   120   143   144    1
   121   143   146    1
   122    39    38    1
   123    15    14    1
   124    16    14    1
   125    61    60    1
   126    58    55    1
   127    58    59    1
   128    14    11    1
   129    60    59    1
   130    55    56    1
   131   147   146    1
   132   147   148    1
   133   150   148   ar
   134   148   149   ar
   135    57    56    2
   136    38    40    1
   137    38    35    1
   138    13    12    2
   139    11    12    1
   140    11    10    1
   141    12    18   am
   142    35    36    1
   143    35    34    1
   144    36    37    2
   145    10     3   am
   146    18    19    1
   147    33    32    1
   148    19    20    1
   149    32    31   ar
   150    32    30   ar
   151    31    29   ar
   152     3     4    2
   153     3     2    1
   154    30    28   ar
   155    29    27   ar
   156    28    27   ar
   157    27    26    1
   158     1     2    1
   159     2     5    1
   160    26    23    1
   161    20    21    2
   162     5     6    1
   163    23    24    1
   164    23    22    1
   165     6     7    1
   166    25    24    2
   167     7     8   ar
   168     7     9   ar
