@<TRIPOS>MOLECULE
tmp/6bqtE01.pdb
 85 77 0 0 0
SMALL
GASTEIGER

@<TRIPOS>ATOM
      1  N         15.4590   30.0210   25.0080 N.3    91  ARG91      -0.1245
      2  CA        14.3820   30.8120   24.4280 C.3    91  ARG91       0.1563
      3  C         13.2400   29.9140   23.9800 C.2    91  ARG91       0.2260
      4  O         12.0670   30.2350   24.1930 O.2    91  ARG91      -0.2867
      5  CB        14.9090   31.6390   23.2590 C.3    91  ARG91       0.0307
      6  CG        14.4310   33.0780   23.2570 C.3    91  ARG91       0.0489
      7  CD        14.9780   33.8420   22.0600 C.3    91  ARG91       0.2205
      8  NE        16.4380   33.9130   22.0630 N.pl3  91  ARG91      -0.0865
      9  CZ        17.1490   34.8480   22.6890 C.cat  91  ARG91       0.5346
     10  NH1       16.5440   35.8100   23.3800 N.pl3  91  ARG91       0.1354
     11  NH2       18.4750   34.8190   22.6240 N.pl3  91  ARG91       0.1354
     12  N          9.5410   29.9090   25.5190 N.3    95  THR95      -0.1218
     13  CA         8.4150   30.0970   24.6100 C.3    95  THR95       0.1862
     14  C          7.3700   29.0120   24.8120 C.2    95  THR95       0.2287
     15  O          6.1680   29.2910   24.8390 O.2    95  THR95      -0.2866
     16  CB         8.9090   30.1040   23.1620 C.3    95  THR95       0.1770
     17  OG1        9.8480   31.1700   22.9810 O.3    95  THR95      -0.2211
     18  CG2        7.7510   30.2910   22.1910 C.3    95  THR95       0.0375
     19  N          5.5520   29.7770   28.1130 N.3    98  LEU98      -0.1231
     20  CA         4.6810   30.9400   27.9950 C.3    98  LEU98       0.1693
     21  C          3.4830   30.6620   27.1010 C.2    98  LEU98       0.2591
     22  O          2.4060   31.2260   27.3230 O.2    98  LEU98      -0.2718
     23  CB         5.4760   32.1280   27.4580 C.3    98  LEU98       0.0284
     24  CG         6.5920   32.6190   28.3760 C.3    98  LEU98       0.0019
     25  CD1        7.4470   33.6330   27.6380 C.3    98  LEU98       0.0001
     26  CD2        6.0320   33.2100   29.6700 C.3    98  LEU98       0.0001
     27  N          3.6440   29.8040   26.0960 N.am   99  GLU99      -0.1979
     28  CA         2.5030   29.4160   25.2790 C.3    99  GLU99       0.1602
     29  C          1.5080   28.6170   26.1050 C.2    99  GLU99       0.2287
     30  O          0.3050   28.9010   26.0900 O.2    99  GLU99      -0.2864
     31  CB         2.9680   28.6110   24.0660 C.3    99  GLU99       0.0415
     32  CG         1.9040   28.4870   22.9750 C.3    99  GLU99       0.1163
     33  CD         2.0070   27.1960   22.1790 C.2    99  GLU99       0.3649
     34  OE1        1.3810   26.1900   22.5780 O.co2  99  GLU99      -0.2457
     35  OE2        2.7180   27.1890   21.1510 O.co2  99  GLU99      -0.2457
     36  N         -0.2870   31.4390   28.3880 N.3   102  ASP102     -0.1239
     37  CA        -1.2320   32.3570   27.7650 C.3   102  ASP102      0.1674
     38  C         -2.2170   31.6660   26.8300 C.2   102  ASP102      0.2266
     39  O         -3.0460   32.3530   26.2220 O.2   102  ASP102     -0.2867
     40  CB        -0.4780   33.4460   26.9910 C.3   102  ASP102      0.1410
     41  CG         0.2650   34.4120   27.9060 C.2   102  ASP102      0.3668
     42  OD1        1.3780   34.0740   28.3720 O.co2 102  ASP102     -0.2456
     43  OD2       -0.2680   35.5150   28.1570 O.co2 102  ASP102     -0.2456
     44  N          9.3200   35.2320   31.4440 N.3   126  PHE126     -0.1241
     45  CA         9.6740   36.4400   30.7080 C.3   126  PHE126      0.1605
     46  C         10.9100   37.1210   31.2900 C.2   126  PHE126      0.2264
     47  O         11.6110   37.8300   30.5630 O.2   126  PHE126     -0.2867
     48  CB         8.4950   37.4140   30.6690 C.3   126  PHE126      0.0534
     49  CG         7.6300   37.2620   29.4500 C.ar  126  PHE126     -0.0203
     50  CD1        8.1380   37.5290   28.1900 C.ar  126  PHE126     -0.0042
     51  CD2        6.3120   36.8590   29.5610 C.ar  126  PHE126     -0.0042
     52  CE1        7.3500   37.3890   27.0680 C.ar  126  PHE126     -0.0003
     53  CE2        5.5190   36.7210   28.4370 C.ar  126  PHE126     -0.0003
     54  CZ         6.0380   36.9860   27.1940 C.ar  126  PHE126     -0.0000
     55  N         13.7130   35.2100   29.7770 N.3   129  LEU129     -0.1245
     56  CA        13.9090   35.7810   28.4480 C.3   129  LEU129      0.1561
     57  C         14.6430   37.1160   28.5220 C.2   129  LEU129      0.2260
     58  O         15.5110   37.4030   27.6890 O.2   129  LEU129     -0.2867
     59  CB        12.5640   35.9570   27.7500 C.3   129  LEU129      0.0270
     60  CG        11.9020   34.6640   27.2880 C.3   129  LEU129      0.0019
     61  CD1       10.4470   34.9150   26.9470 C.3   129  LEU129      0.0001
     62  CD2       12.6430   34.0840   26.0880 C.3   129  LEU129      0.0001
     63  N         13.6340   43.4800   21.7190 N.3   137  ASP137     -0.1239
     64  CA        13.1550   42.2780   22.3880 C.3   137  ASP137      0.1674
     65  C         13.3510   42.3800   23.8920 C.2   137  ASP137      0.2266
     66  O         12.4700   41.9940   24.6690 O.2   137  ASP137     -0.2867
     67  CB        13.8780   41.0460   21.8390 C.3   137  ASP137      0.1410
     68  CG        13.3640   39.7500   22.4440 C.2   137  ASP137      0.3668
     69  OD1       12.2440   39.3310   22.0870 O.co2 137  ASP137     -0.2456
     70  OD2       14.0800   39.1510   23.2750 O.co2 137  ASP137     -0.2456
     71  N         10.2060   42.1420   26.5010 N.3   141  THR141     -0.1218
     72  CA        10.1330   41.0410   27.4560 C.3   141  THR141      0.1862
     73  C         10.1870   41.5500   28.8910 C.2   141  THR141      0.2287
     74  O          9.5220   40.9960   29.7730 O.2   141  THR141     -0.2866
     75  CB        11.2580   40.0380   27.2010 C.3   141  THR141      0.1770
     76  OG1       12.5270   40.6940   27.3080 O.3   141  THR141     -0.2211
     77  CG2       11.1130   39.4120   25.8130 C.3   141  THR141      0.0375
     78  N          6.7080   42.7170   29.6470 N.3   144  ASN144     -0.1240
     79  CA         5.7940   41.5980   29.8610 C.3   144  ASN144      0.1653
     80  C          6.0110   40.9690   31.2360 C.2   144  ASN144      0.2266
     81  O          5.0490   40.7120   31.9770 O.2   144  ASN144     -0.2867
     82  CB         5.9750   40.5640   28.7490 C.3   144  ASN144      0.1155
     83  CG         5.5300   41.0840   27.3950 C.2   144  ASN144      0.2627
     84  OD1        5.1740   42.2510   27.2540 O.2   144  ASN144     -0.2716
     85  ND2        5.5520   40.2200   26.3920 N.am  144  ASN144     -0.0877
@<TRIPOS>BOND
     1    35    33   ar
     2    63    64    1
     3    67    64    1
     4    67    68    1
     5     7     8    1
     6     7     6    1
     7     8     9    2
     8    69    68   ar
     9    33    34   ar
    10    33    32    1
    11    18    16    1
    12    64    65    1
    13    68    70   ar
    14    11     9    1
    15     9    10    1
    16    32    31    1
    17    17    16    1
    18    16    13    1
    19     6     5    1
    20     5     2    1
    21    65    66    2
    22     3     4    2
    23     3     2    1
    24    31    28    1
    25     2     1    1
    26    13    14    1
    27    13    12    1
    28    14    15    2
    29    28    27    1
    30    28    29    1
    31    77    75    1
    32    62    60    1
    33    30    29    2
    34    27    21   am
    35    39    38    2
    36    85    83   am
    37    71    72    1
    38    38    37    1
    39    61    60    1
    40    40    37    1
    41    40    41    1
    42    52    54   ar
    43    52    50   ar
    44    21    22    2
    45    21    20    1
    46    54    53   ar
    47    75    76    1
    48    75    72    1
    49    84    83    2
    50    60    59    1
    51    83    82    1
    52    72    73    1
    53    23    20    1
    54    23    24    1
    55    25    24    1
    56    58    57    2
    57    59    56    1
    58    37    36    1
    59    41    43   ar
    60    41    42   ar
    61    20    19    1
    62    50    49   ar
    63    24    26    1
    64    53    51   ar
    65    56    57    1
    66    56    55    1
    67    82    79    1
    68    73    74    2
    69    49    51   ar
    70    49    48    1
    71    78    79    1
    72    79    80    1
    73    47    46    2
    74    48    45    1
    75    45    46    1
    76    45    44    1
    77    80    81    2
