@<TRIPOS>MOLECULE
tmp/6bqtA00.pdb
 143 130 0 0 0
SMALL
GASTEIGER

@<TRIPOS>ATOM
      1  N        -12.4270  -12.4250   11.2540 N.3    95  THR95      -0.1218
      2  CA       -13.5500  -12.6210   12.1630 C.3    95  THR95       0.1862
      3  C        -14.5710  -11.5030   12.0160 C.2    95  THR95       0.2287
      4  O        -15.7790  -11.7550   12.0540 O.2    95  THR95      -0.2866
      5  CB       -13.0480  -12.7080   13.6040 C.3    95  THR95       0.1770
      6  OG1      -12.1990  -13.8530   13.7440 O.3    95  THR95      -0.2211
      7  CG2      -14.2100  -12.8300   14.5810 C.3    95  THR95       0.0375
      8  N        -16.4620  -12.3020    8.7450 N.3    98  LEU98      -0.1231
      9  CA       -17.3280  -13.4620    8.9050 C.3    98  LEU98       0.1693
     10  C        -18.4970  -13.1680    9.8360 C.2    98  LEU98       0.2591
     11  O        -19.5880  -13.7090    9.6400 O.2    98  LEU98      -0.2718
     12  CB       -16.5120  -14.6460    9.4200 C.3    98  LEU98       0.0284
     13  CG       -15.4220  -15.1260    8.4590 C.3    98  LEU98       0.0019
     14  CD1      -14.4580  -16.0750    9.1570 C.3    98  LEU98       0.0001
     15  CD2      -16.0360  -15.7880    7.2320 C.3    98  LEU98       0.0001
     16  N        -18.3020  -12.3160   10.8460 N.am   99  GLU99      -0.1979
     17  CA       -19.4230  -11.9200   11.6880 C.3    99  GLU99       0.1602
     18  C        -20.4350  -11.1070   10.8940 C.2    99  GLU99       0.2287
     19  O        -21.6480  -11.3180   11.0210 O.2    99  GLU99      -0.2864
     20  CB       -18.9280  -11.1290   12.8970 C.3    99  GLU99       0.0415
     21  CG       -20.0530  -10.5890   13.7810 C.3    99  GLU99       0.1163
     22  CD       -19.5420   -9.7990   14.9720 C.2    99  GLU99       0.3649
     23  OE1      -18.3190   -9.8390   15.2370 O.co2  99  GLU99      -0.2457
     24  OE2      -20.3640   -9.1330   15.6420 O.co2  99  GLU99      -0.2457
     25  N        -22.3720  -13.6100    8.9250 N.3   102  ASP102     -0.1239
     26  CA       -23.2390  -14.5280    9.6500 C.3   102  ASP102      0.1674
     27  C        -24.4250  -13.8130   10.2800 C.2   102  ASP102      0.2266
     28  O        -25.4940  -14.4140   10.4310 O.2   102  ASP102     -0.2867
     29  CB       -22.4370  -15.2650   10.7240 C.3   102  ASP102      0.1410
     30  CG       -23.1870  -16.4480   11.3060 C.2   102  ASP102      0.3668
     31  OD1      -23.3850  -17.4420   10.5770 O.co2 102  ASP102     -0.2456
     32  OD2      -23.5700  -16.3890   12.4930 O.co2 102  ASP102     -0.2456
     33  N        -25.7150  -12.7400    4.6830 N.3   106  ILE106     -0.1245
     34  CA       -26.2580  -14.0010    4.1790 C.3   106  ILE106      0.1561
     35  C        -27.6910  -14.1960    4.6580 C.2   106  ILE106      0.2260
     36  O        -28.5840  -14.5470    3.8790 O.2   106  ILE106     -0.2867
     37  CB       -25.3700  -15.1850    4.6050 C.3   106  ILE106      0.0252
     38  CG1      -23.9570  -15.0480    4.0350 C.3   106  ILE106      0.0019
     39  CG2      -25.9800  -16.4990    4.1270 C.3   106  ILE106      0.0019
     40  CD1      -22.9730  -16.0440    4.5910 C.3   106  ILE106      0.0001
     41  N        -26.7410  -14.2610   -2.4540 N.3   115  LYS115     -0.1245
     42  CA       -26.4030  -15.4710   -1.7100 C.3   115  LYS115      0.1561
     43  C        -25.0760  -16.0540   -2.1870 C.2   115  LYS115      0.2260
     44  O        -24.1870  -16.3480   -1.3800 O.2   115  LYS115     -0.2867
     45  CB       -27.5280  -16.4990   -1.8460 C.3   115  LYS115      0.0271
     46  CG       -28.6430  -16.3450   -0.8240 C.3   115  LYS115      0.0035
     47  CD       -28.4180  -17.2370    0.3930 C.3   115  LYS115      0.0206
     48  CE       -29.4580  -16.9720    1.4790 C.3   115  LYS115      0.1093
     49  NZ       -29.6150  -18.1210    2.4150 N.3   115  LYS115     -0.1314
     50  N        -21.7290  -16.1560    0.1630 N.3   119  LEU119     -0.1245
     51  CA       -21.1540  -17.4620    0.4630 C.3   119  LEU119      0.1561
     52  C        -19.7460  -17.5790   -0.1030 C.2   119  LEU119      0.2260
     53  O        -18.8780  -18.2210    0.5010 O.2   119  LEU119     -0.2867
     54  CB       -22.0590  -18.5620   -0.0890 C.3   119  LEU119      0.0270
     55  CG       -23.4390  -18.6480    0.5690 C.3   119  LEU119      0.0019
     56  CD1      -24.4060  -19.4440   -0.2910 C.3   119  LEU119      0.0001
     57  CD2      -23.3260  -19.2580    1.9460 C.3   119  LEU119      0.0001
     58  N        -17.6540  -15.7520    2.3860 N.3   122  LYS122     -0.1245
     59  CA       -17.4550  -16.6290    3.5340 C.3   122  LYS122      0.1561
     60  C        -16.3450  -17.6320    3.2590 C.2   122  LYS122      0.2260
     61  O        -15.4320  -17.8060    4.0750 O.2   122  LYS122     -0.2867
     62  CB       -18.7560  -17.3620    3.8670 C.3   122  LYS122      0.0271
     63  CG       -18.8630  -17.8070    5.3290 C.3   122  LYS122      0.0035
     64  CD       -19.8660  -18.9400    5.5220 C.3   122  LYS122      0.0206
     65  CE       -19.9920  -19.3360    6.9860 C.3   122  LYS122      0.1093
     66  NZ       -21.3920  -19.2690    7.4720 N.3   122  LYS122     -0.1314
     67  N        -12.7860  -17.6970    5.3240 N.3   126  PHE126     -0.1241
     68  CA       -12.4350  -18.9060    6.0600 C.3   126  PHE126      0.1605
     69  C        -11.1920  -19.5640    5.4700 C.2   126  PHE126      0.2264
     70  O        -10.3930  -20.1490    6.2060 O.2   126  PHE126     -0.2867
     71  CB       -13.6190  -19.8770    6.0900 C.3   126  PHE126      0.0534
     72  CG       -14.5070  -19.7050    7.2930 C.ar  126  PHE126     -0.0203
     73  CD1      -14.0030  -19.8920    8.5730 C.ar  126  PHE126     -0.0042
     74  CD2      -15.8390  -19.3560    7.1530 C.ar  126  PHE126     -0.0042
     75  CE1      -14.8070  -19.7290    9.6850 C.ar  126  PHE126     -0.0003
     76  CE2      -16.6480  -19.1960    8.2760 C.ar  126  PHE126     -0.0003
     77  CZ       -16.1260  -19.3850    9.5360 C.ar  126  PHE126     -0.0000
     78  N         -8.3570  -17.7260    6.9360 N.3   129  LEU129     -0.1245
     79  CA        -8.0610  -18.2540    8.2660 C.3   129  LEU129      0.1561
     80  C         -7.3280  -19.5890    8.1820 C.2   129  LEU129      0.2260
     81  O         -6.4170  -19.8560    8.9750 O.2   129  LEU129     -0.2867
     82  CB        -9.3450  -18.4110    9.0760 C.3   129  LEU129      0.0270
     83  CG       -10.0020  -17.1280    9.5660 C.3   129  LEU129      0.0019
     84  CD1      -11.3290  -17.4570   10.2290 C.3   129  LEU129      0.0001
     85  CD2       -9.0940  -16.3960   10.5280 C.3   129  LEU129      0.0001
     86  N         -8.0110  -26.1110   14.7170 N.3   137  ASP137     -0.1239
     87  CA        -8.4950  -24.8540   14.1600 C.3   137  ASP137      0.1674
     88  C         -8.3940  -24.8700   12.6400 C.2   137  ASP137      0.2266
     89  O         -9.2800  -24.3610   11.9420 O.2   137  ASP137     -0.2867
     90  CB        -7.7050  -23.6880   14.7580 C.3   137  ASP137      0.1410
     91  CG        -8.1540  -22.3420   14.2270 C.2   137  ASP137      0.3668
     92  OD1       -9.3600  -22.0290   14.3320 O.co2 137  ASP137     -0.2456
     93  OD2       -7.2940  -21.5920   13.7170 O.co2 137  ASP137     -0.2456
     94  N        -11.2850  -27.0250   11.3380 N.3   140  GLN140     -0.1231
     95  CA       -12.5170  -26.2480   11.4390 C.3   140  GLN140      0.1698
     96  C        -12.6210  -25.2320   10.3060 C.2   140  GLN140      0.2592
     97  O        -13.6390  -25.1640    9.6000 O.2   140  GLN140     -0.2718
     98  CB       -12.5600  -25.5530   12.8050 C.3   140  GLN140      0.0381
     99  CG       -13.6630  -24.5180   12.9970 C.3   140  GLN140      0.0905
    100  CD       -15.0420  -25.1350   13.0760 C.2   140  GLN140      0.2608
    101  OE1      -15.2120  -26.3390   12.8710 O.2   140  GLN140     -0.2717
    102  NE2      -16.0390  -24.3090   13.3830 N.am  140  GLN140     -0.0878
    103  N        -11.5760  -24.4200   10.1270 N.am  141  THR141     -0.1953
    104  CA       -11.6310  -23.3620    9.1270 C.3   141  THR141      0.1897
    105  C        -11.7590  -23.9400    7.7240 C.2   141  THR141      0.2313
    106  O        -12.5060  -23.4090    6.8930 O.2   141  THR141     -0.2863
    107  CB       -10.3920  -22.4700    9.2400 C.3   141  THR141      0.1794
    108  OG1       -9.2050  -23.2670    9.1500 O.3   141  THR141     -0.2208
    109  CG2      -10.3940  -21.7190   10.5600 C.3   141  THR141      0.0378
    110  N        -13.1250  -26.8510    6.8740 N.3   143  ASP143     -0.1225
    111  CA       -14.4680  -27.3880    6.6940 C.3   143  ASP143      0.1805
    112  C        -15.4630  -26.2680    6.4200 C.2   143  ASP143      0.2597
    113  O        -16.3050  -26.3740    5.5190 O.2   143  ASP143     -0.2718
    114  CB       -14.8850  -28.1940    7.9250 C.3   143  ASP143      0.1424
    115  CG       -16.2540  -28.8250    7.7690 C.2   143  ASP143      0.3668
    116  OD1      -16.3930  -29.7360    6.9270 O.co2 143  ASP143     -0.2456
    117  OD2      -17.1890  -28.4080    8.4840 O.co2 143  ASP143     -0.2456
    118  N        -15.3750  -25.1780    7.1840 N.am  144  ASN144     -0.1974
    119  CA       -16.3100  -24.0740    6.9890 C.3   144  ASN144      0.1688
    120  C        -16.1330  -23.4450    5.6090 C.2   144  ASN144      0.2292
    121  O        -17.1130  -23.1920    4.8920 O.2   144  ASN144     -0.2864
    122  CB       -16.1200  -23.0350    8.0920 C.3   144  ASN144      0.1181
    123  CG       -16.3050  -23.6210    9.4790 C.2   144  ASN144      0.2629
    124  OD1      -16.2410  -24.8370    9.6660 O.2   144  ASN144     -0.2716
    125  ND2      -16.5320  -22.7560   10.4600 N.am  144  ASN144     -0.0877
    126  N        -17.5170  -25.8040    2.9280 N.3   147  GLY147     -0.1210
    127  CA       -18.9680  -25.8400    2.9530 C.3   147  GLY147      0.1956
    128  C        -19.5800  -24.6200    2.3010 C.2   147  GLY147      0.2611
    129  O        -20.5260  -24.7240    1.5130 O.2   147  GLY147     -0.2717
    130  N        -19.0460  -23.4400    2.6240 N.am  148  ALA148     -0.1979
    131  CA       -19.5670  -22.2140    2.0330 C.3   148  ALA148      0.1597
    132  C        -19.3780  -22.2240    0.5240 C.2   148  ALA148      0.2287
    133  O        -20.3110  -21.9430   -0.2400 O.2   148  ALA148     -0.2864
    134  CB       -18.8740  -21.0080    2.6610 C.3   148  ALA148      0.0319
    135  N        -21.8880  -24.6890   -1.1130 N.3   151  GLU151     -0.1245
    136  CA       -23.2440  -24.1600   -1.1970 C.3   151  GLU151      0.1567
    137  C        -23.3470  -23.1150   -2.3020 C.2   151  GLU151      0.2260
    138  O        -24.3070  -23.1210   -3.0860 O.2   151  GLU151     -0.2867
    139  CB       -23.6740  -23.5700    0.1470 C.3   151  GLU151      0.0388
    140  CG       -25.1340  -23.1290    0.1710 C.3   151  GLU151      0.1160
    141  CD       -25.6220  -22.7730    1.5620 C.2   151  GLU151      0.3649
    142  OE1      -24.8630  -22.9780    2.5330 O.co2 151  GLU151     -0.2457
    143  OE2      -26.7680  -22.2910    1.6840 O.co2 151  GLU151     -0.2457
@<TRIPOS>BOND
     1   138   137    2
     2    41    42    1
     3   137   136    1
     4    43    42    1
     5    43    44    2
     6    45    42    1
     7    45    46    1
     8   136   135    1
     9   136   139    1
    10    46    47    1
    11    56    55    1
    12   133   132    2
    13    52    51    1
    14    52    53    2
    15    54    51    1
    16    54    55    1
    17   139   140    1
    18    50    51    1
    19   140   141    1
    20    47    48    1
    21   132   131    1
    22    55    57    1
    23    48    49    1
    24   129   128    2
    25   141   143   ar
    26   141   142   ar
    27   131   130    1
    28   131   134    1
    29   128   130   am
    30   128   127    1
    31    58    59    1
    32   126   127    1
    33    60    59    1
    34    60    61    2
    35    59    62    1
    36    62    63    1
    37    36    35    2
    38    38    40    1
    39    38    37    1
    40    39    37    1
    41    34    37    1
    42    34    35    1
    43    34    33    1
    44   121   120    2
    45    67    68    1
    46    63    64    1
    47    69    68    1
    48    69    70    2
    49   113   112    2
    50    64    65    1
    51   120   119    1
    52    68    71    1
    53    71    72    1
    54   112   111    1
    55   112   118   am
    56   111   110    1
    57   111   114    1
    58   106   105    2
    59   116   115   ar
    60    78    79    1
    61    65    66    1
    62   119   118    1
    63   119   122    1
    64    74    72   ar
    65    74    76   ar
    66    15    13    1
    67    72    73   ar
    68   105   104    1
    69   115   114    1
    70   115   117   ar
    71   122   123    1
    72    80    79    1
    73    80    81    2
    74    79    82    1
    75    76    77   ar
    76    13    14    1
    77    13    12    1
    78    73    75   ar
    79     8     9    1
    80     9    12    1
    81     9    10    1
    82    25    26    1
    83    82    83    1
    84   104   107    1
    85   104   103    1
    86   108   107    1
    87   107   109    1
    88   123   124    2
    89   123   125   am
    90    77    75   ar
    91    83    84    1
    92    83    85    1
    93    97    96    2
    94    11    10    2
    95    26    27    1
    96    26    29    1
    97    10    16   am
    98   103    96   am
    99    27    28    2
   100    96    95    1
   101    31    30   ar
   102    29    30    1
   103    16    17    1
   104    18    19    2
   105    18    17    1
   106     1     2    1
   107    30    32   ar
   108    94    95    1
   109    95    98    1
   110    17    20    1
   111    89    88    2
   112     3     4    2
   113     3     2    1
   114     2     5    1
   115    88    87    1
   116    98    99    1
   117   101   100    2
   118    20    21    1
   119    99   100    1
   120   100   102   am
   121     5     6    1
   122     5     7    1
   123    93    91   ar
   124    21    22    1
   125    87    86    1
   126    87    90    1
   127    91    92   ar
   128    91    90    1
   129    22    23   ar
   130    22    24   ar
