@<TRIPOS>MOLECULE
tmp/6bqtG01.pdb
 99 91 0 0 0
SMALL
GASTEIGER

@<TRIPOS>ATOM
      1  N         31.7470    1.7050  -44.8910 N.3    98  LEU98      -0.1245
      2  CA        31.4230    0.3240  -44.9290 C.3    98  LEU98       0.1561
      3  C         32.5000   -0.4760  -45.5880 C.2    98  LEU98       0.2260
      4  O         32.7040   -1.5710  -45.2210 O.2    98  LEU98      -0.2867
      5  CB        30.1360    0.1250  -45.6140 C.3    98  LEU98       0.0270
      6  CG        28.9090    0.6170  -44.9380 C.3    98  LEU98       0.0019
      7  CD1       27.8290    0.6140  -45.9220 C.3    98  LEU98       0.0001
      8  CD2       28.4990   -0.1680  -43.7590 C.3    98  LEU98       0.0001
      9  N         35.2690   -1.2020  -43.2000 N.3   101  LEU101     -0.1231
     10  CA        34.8830   -2.2730  -42.3820 C.3   101  LEU101      0.1693
     11  C         34.9830   -3.5990  -43.0760 C.2   101  LEU101      0.2592
     12  O         35.6600   -4.4500  -42.6180 O.2   101  LEU101     -0.2718
     13  CB        33.4560   -2.0080  -41.9380 C.3   101  LEU101      0.0284
     14  CG        33.1330   -0.8250  -41.0390 C.3   101  LEU101      0.0019
     15  CD1       31.6910   -0.5560  -40.8210 C.3   101  LEU101      0.0001
     16  CD2       33.8040   -0.9590  -39.7270 C.3   101  LEU101      0.0001
     17  N         34.4570   -3.7370  -44.2720 N.am  102  ASP102     -0.1974
     18  CA        34.5120   -4.9930  -44.9690 C.3   102  ASP102      0.1709
     19  C         35.8840   -5.4650  -45.3450 C.2   102  ASP102      0.2293
     20  O         36.2220   -6.6070  -45.1470 O.2   102  ASP102     -0.2864
     21  CB        33.6740   -4.9080  -46.2160 C.3   102  ASP102      0.1436
     22  CG        33.4490   -6.2390  -46.8510 C.2   102  ASP102      0.3671
     23  OD1       34.1630   -7.1640  -46.5350 O.co2 102  ASP102     -0.2456
     24  OD2       32.5660   -6.3830  -47.6810 O.co2 102  ASP102     -0.2456
     25  N         36.3740   -5.4270  -39.8030 N.3   106  ILE106     -0.1231
     26  CA        35.5770   -6.5960  -39.4350 C.3   106  ILE106      0.1692
     27  C         36.3150   -7.8730  -39.8090 C.2   106  ILE106      0.2591
     28  O         36.4040   -8.8150  -39.0090 O.2   106  ILE106     -0.2718
     29  CB        34.1870   -6.5290  -40.0960 C.3   106  ILE106      0.0266
     30  CG1       33.3850   -5.3760  -39.4920 C.3   106  ILE106      0.0019
     31  CG2       33.4400   -7.8530  -39.9150 C.3   106  ILE106      0.0020
     32  CD1       31.9970   -5.1860  -40.0780 C.3   106  ILE106      0.0001
     33  N         36.8560   -7.9290  -41.0280 N.am  107  ALA107     -0.1980
     34  CA        37.5740   -9.1100  -41.4880 C.3   107  ALA107      0.1597
     35  C         38.6330   -9.5400  -40.4730 C.2   107  ALA107      0.2287
     36  O         38.5770  -10.6430  -39.9280 O.2   107  ALA107     -0.2864
     37  CB        38.2100   -8.8350  -42.8520 C.3   107  ALA107      0.0319
     38  N         30.7380   -4.0570  -36.0000 N.3   119  LEU119     -0.1245
     39  CA        29.4140   -4.4300  -36.4840 C.3   119  LEU119      0.1561
     40  C         28.3870   -3.3510  -36.1670 C.2   119  LEU119      0.2260
     41  O         27.5360   -3.0260  -37.0030 O.2   119  LEU119     -0.2867
     42  CB        29.0010   -5.7690  -35.8770 C.3   119  LEU119      0.0270
     43  CG        29.7940   -6.9840  -36.3620 C.3   119  LEU119      0.0019
     44  CD1       29.5390   -8.1680  -35.4530 C.3   119  LEU119      0.0001
     45  CD2       29.4300   -7.3230  -37.7980 C.3   119  LEU119      0.0001
     46  N         28.9420   -0.6930  -38.7010 N.3   122  LYS122     -0.1245
     47  CA        28.3480   -1.0860  -39.9730 C.3   122  LYS122      0.1561
     48  C         26.8430   -0.8640  -39.9570 C.2   122  LYS122      0.2260
     49  O         26.2690   -0.3520  -40.9260 O.2   122  LYS122     -0.2867
     50  CB        28.6760   -2.5510  -40.2580 C.3   122  LYS122      0.0271
     51  CG        27.9720   -3.1410  -41.4630 C.3   122  LYS122      0.0035
     52  CD        28.4510   -4.5630  -41.7280 C.3   122  LYS122      0.0206
     53  CE        27.6720   -5.2090  -42.8620 C.3   122  LYS122      0.1093
     54  NZ        28.2240   -6.5300  -43.2660 N.3   122  LYS122     -0.1314
     55  N         24.9450    1.6830  -42.5690 N.3   126  PHE126     -0.1241
     56  CA        23.8560    1.1660  -43.3860 C.3   126  PHE126      0.1605
     57  C         22.5320    1.8340  -43.0260 C.2   126  PHE126      0.2264
     58  O         21.6800    2.0300  -43.8970 O.2   126  PHE126     -0.2867
     59  CB        23.7630   -0.3530  -43.2420 C.3   126  PHE126      0.0534
     60  CG        24.4890   -1.1100  -44.3250 C.ar  126  PHE126     -0.0203
     61  CD1       24.2330   -0.8510  -45.6640 C.ar  126  PHE126     -0.0042
     62  CD2       25.4270   -2.0790  -44.0070 C.ar  126  PHE126     -0.0042
     63  CE1       24.8940   -1.5420  -46.6600 C.ar  126  PHE126     -0.0003
     64  CE2       26.0920   -2.7710  -45.0070 C.ar  126  PHE126     -0.0003
     65  CZ        25.8240   -2.5000  -46.3320 C.ar  126  PHE126     -0.0000
     66  N         17.7880   -4.2460  -44.1750 N.3   143  ASP143     -0.1225
     67  CA        18.1290   -5.5930  -43.7300 C.3   143  ASP143      0.1805
     68  C         19.6210   -5.7310  -43.4630 C.2   143  ASP143      0.2597
     69  O         20.0170   -6.4840  -42.5680 O.2   143  ASP143     -0.2718
     70  CB        17.6620   -6.6260  -44.7580 C.3   143  ASP143      0.1424
     71  CG        16.2000   -7.0170  -44.5720 C.2   143  ASP143      0.3668
     72  OD1       15.3300   -6.1190  -44.6040 O.co2 143  ASP143     -0.2456
     73  OD2       15.9210   -8.2240  -44.3910 O.co2 143  ASP143     -0.2456
     74  N         20.4610   -4.9970  -44.1960 N.am  144  ASN144     -0.1974
     75  CA        21.8900   -5.0180  -43.8970 C.3   144  ASN144      0.1688
     76  C         22.1600   -4.4350  -42.5120 C.2   144  ASN144      0.2292
     77  O         22.8600   -5.0430  -41.6870 O.2   144  ASN144     -0.2864
     78  CB        22.6670   -4.2500  -44.9700 C.3   144  ASN144      0.1181
     79  CG        22.7070   -4.9790  -46.3030 C.2   144  ASN144      0.2629
     80  OD1       22.3040   -4.4370  -47.3310 O.2   144  ASN144     -0.2716
     81  ND2       23.2050   -6.2130  -46.2910 N.am  144  ASN144     -0.0877
     82  N         20.9650   -6.8420  -39.8650 N.3   147  GLY147     -0.1210
     83  CA        21.8340   -7.9960  -39.7000 C.3   147  GLY147      0.1956
     84  C         23.0800   -7.6680  -38.9000 C.2   147  GLY147      0.2611
     85  O         23.4580   -8.4010  -37.9780 O.2   147  GLY147     -0.2717
     86  N         23.7440   -6.5640  -39.2520 N.am  148  ALA148     -0.1979
     87  CA        24.9280   -6.1560  -38.5010 C.3   148  ALA148      0.1597
     88  C         24.5850   -5.9240  -37.0320 C.2   148  ALA148      0.2287
     89  O         25.2950   -6.3930  -36.1290 O.2   148  ALA148     -0.2864
     90  CB        25.5420   -4.9000  -39.1240 C.3   148  ALA148      0.0319
     91  N         23.9470   -9.3220  -35.1960 N.3   151  GLU151     -0.1245
     92  CA        25.1780  -10.0470  -34.8950 C.3   151  GLU151      0.1567
     93  C         25.9150   -9.3950  -33.7310 C.2   151  GLU151      0.2260
     94  O         26.3780  -10.0800  -32.8070 O.2   151  GLU151     -0.2867
     95  CB        26.0730  -10.1150  -36.1310 C.3   151  GLU151      0.0388
     96  CG        27.2780  -11.0220  -35.9410 C.3   151  GLU151      0.1160
     97  CD        27.8970  -11.4580  -37.2540 C.2   151  GLU151      0.3649
     98  OE1       27.7550  -10.7220  -38.2540 O.co2 151  GLU151     -0.2457
     99  OE2       28.5170  -12.5430  -37.2870 O.co2 151  GLU151     -0.2457
@<TRIPOS>BOND
     1    24    22   ar
     2    80    79    2
     3    22    23   ar
     4    22    21    1
     5    63    65   ar
     6    63    61   ar
     7    65    64   ar
     8    79    81   am
     9    79    78    1
    10    21    18    1
    11     7     6    1
    12    61    60   ar
    13     5     6    1
    14     5     2    1
    15     3     4    2
    16     3     2    1
    17    19    20    2
    18    19    18    1
    19    64    62   ar
    20    78    75    1
    21    18    17    1
    22     6     8    1
    23     2     1    1
    24    70    71    1
    25    70    67    1
    26    72    71   ar
    27    71    73   ar
    28    60    62   ar
    29    60    59    1
    30    17    11   am
    31    74    75    1
    32    74    68   am
    33    66    67    1
    34    58    57    2
    35    75    76    1
    36    67    68    1
    37    68    69    2
    38    56    59    1
    39    56    57    1
    40    56    55    1
    41    54    53    1
    42     9    10    1
    43    11    12    2
    44    11    10    1
    45    53    52    1
    46    37    34    1
    47    76    77    2
    48    10    13    1
    49    13    14    1
    50    52    51    1
    51    34    33    1
    52    34    35    1
    53    51    50    1
    54    14    15    1
    55    14    16    1
    56    33    27   am
    57    49    48    2
    58    35    36    2
    59    50    47    1
    60    29    31    1
    61    29    30    1
    62    29    26    1
    63    32    30    1
    64    47    48    1
    65    47    46    1
    66    82    83    1
    67    27    26    1
    68    27    28    2
    69    25    26    1
    70    83    84    1
    71    86    84   am
    72    86    87    1
    73    90    87    1
    74    84    85    2
    75    87    88    1
    76    98    97   ar
    77    45    43    1
    78    99    97   ar
    79    97    96    1
    80    88    89    2
    81    41    40    2
    82    39    40    1
    83    39    38    1
    84    39    42    1
    85    43    42    1
    86    43    44    1
    87    95    96    1
    88    95    92    1
    89    91    92    1
    90    92    93    1
    91    93    94    2
