@<TRIPOS>MOLECULE
tmp/6bqtJ02.pdb
 108 98 0 0 0
SMALL
GASTEIGER

@<TRIPOS>ATOM
      1  N         -4.6190   38.8830  -60.8910 N.3    91  ARG91      -0.1245
      2  CA        -4.4020   40.2550  -60.4570 C.3    91  ARG91       0.1563
      3  C         -2.9130   40.5510  -60.3650 C.2    91  ARG91       0.2260
      4  O         -2.4190   41.5120  -60.9690 O.2    91  ARG91      -0.2867
      5  CB        -5.0920   40.5020  -59.1190 C.3    91  ARG91       0.0307
      6  CG        -6.6100   40.4000  -59.1910 C.3    91  ARG91       0.0489
      7  CD        -7.2610   40.7290  -57.8520 C.3    91  ARG91       0.2205
      8  NE        -8.6540   40.2860  -57.7780 N.pl3  91  ARG91      -0.0865
      9  CZ        -9.7020   41.0000  -58.1860 C.cat  91  ARG91       0.5346
     10  NH1       -9.5370   42.2080  -58.7140 N.pl3  91  ARG91       0.1354
     11  NH2      -10.9250   40.5000  -58.0660 N.pl3  91  ARG91       0.1354
     12  N         -1.0790   43.5350  -62.2190 N.3    95  THR95      -0.1218
     13  CA        -0.3500   44.5430  -61.4620 C.3    95  THR95       0.1862
     14  C          1.0680   44.6720  -61.9940 C.2    95  THR95       0.2287
     15  O          1.4860   45.7490  -62.4380 O.2    95  THR95      -0.2866
     16  CB        -0.3440   44.1830  -59.9750 C.3    95  THR95       0.1770
     17  OG1       -1.6780   44.2550  -59.4580 O.3    95  THR95      -0.2211
     18  CG2        0.5480   45.1300  -59.1800 C.3    95  THR95       0.0375
     19  N          1.2520   46.4130  -65.3180 N.3    98  LEU98      -0.1231
     20  CA         0.9350   47.8290  -65.2070 C.3    98  LEU98       0.1693
     21  C          2.0920   48.5960  -64.5830 C.2    98  LEU98       0.2591
     22  O          2.4680   49.6690  -65.0740 O.2    98  LEU98      -0.2718
     23  CB        -0.3500   48.0170  -64.4020 C.3    98  LEU98       0.0284
     24  CG        -1.5880   47.4140  -65.0750 C.3    98  LEU98       0.0019
     25  CD1       -2.7840   47.4480  -64.1450 C.3    98  LEU98       0.0001
     26  CD2       -1.9130   48.1260  -66.3870 C.3    98  LEU98       0.0001
     27  N          2.6960   48.0490  -63.5240 N.am   99  GLU99      -0.1979
     28  CA         3.8640   48.7010  -62.9420 C.3    99  GLU99       0.1602
     29  C          4.9350   48.9070  -64.0020 C.2    99  GLU99       0.2287
     30  O          5.3890   50.0330  -64.2340 O.2    99  GLU99      -0.2864
     31  CB         4.4110   47.8770  -61.7760 C.3    99  GLU99       0.0415
     32  CG         5.5310   48.5700  -61.0010 C.3    99  GLU99       0.1163
     33  CD         6.1230   47.6950  -59.9080 C.2    99  GLU99       0.3649
     34  OE1        5.7670   46.4980  -59.8400 O.co2  99  GLU99      -0.2457
     35  OE2        6.9450   48.2050  -59.1160 O.co2  99  GLU99      -0.2457
     36  N          3.9780   51.7580  -66.1330 N.3   102  ASP102     -0.1239
     37  CA         3.8610   53.0890  -65.5540 C.3   102  ASP102      0.1674
     38  C          5.2160   53.6330  -65.1150 C.2   102  ASP102      0.2266
     39  O          5.5760   54.7610  -65.4620 O.2   102  ASP102     -0.2867
     40  CB         2.8870   53.0600  -64.3730 C.3   102  ASP102      0.1410
     41  CG         2.5360   54.4440  -63.8730 C.2   102  ASP102      0.3668
     42  OD1        3.4620   55.2150  -63.5440 O.co2 102  ASP102     -0.2456
     43  OD2        1.3310   54.7640  -63.8190 O.co2 102  ASP102     -0.2456
     44  N         -1.6990   48.9110  -71.4600 N.3   122  LYS122     -0.1245
     45  CA        -2.3090   49.3760  -70.2210 C.3   122  LYS122      0.1561
     46  C         -3.8090   49.1160  -70.2320 C.2   122  LYS122      0.2260
     47  O         -4.3690   48.5740  -69.2700 O.2   122  LYS122     -0.2867
     48  CB        -2.0100   50.8620  -70.0260 C.3   122  LYS122      0.0271
     49  CG        -2.7800   51.5200  -68.8900 C.3   122  LYS122      0.0035
     50  CD        -2.0190   52.7150  -68.3080 C.3   122  LYS122      0.0206
     51  CE        -2.9170   53.6030  -67.4510 C.3   122  LYS122      0.1093
     52  NZ        -2.1390   54.4780  -66.5400 N.3   122  LYS122     -0.1314
     53  N         -5.7560   46.5070  -67.6870 N.3   126  PHE126     -0.1241
     54  CA        -6.8480   47.0070  -66.8600 C.3   126  PHE126      0.1605
     55  C         -8.1660   46.3300  -67.2260 C.2   126  PHE126      0.2264
     56  O         -9.0220   46.1360  -66.3590 O.2   126  PHE126     -0.2867
     57  CB        -6.9670   48.5270  -66.9860 C.3   126  PHE126      0.0534
     58  CG        -6.1010   49.2820  -66.0190 C.ar  126  PHE126     -0.0203
     59  CD1       -6.3580   49.2310  -64.6570 C.ar  126  PHE126     -0.0042
     60  CD2       -5.0370   50.0470  -66.4670 C.ar  126  PHE126     -0.0042
     61  CE1       -5.5700   49.9220  -63.7590 C.ar  126  PHE126     -0.0003
     62  CE2       -4.2440   50.7410  -65.5700 C.ar  126  PHE126     -0.0003
     63  CZ        -4.5140   50.6780  -64.2130 C.ar  126  PHE126     -0.0000
     64  N         -8.1880   42.9750  -65.6210 N.3   129  LEU129     -0.1245
     65  CA        -8.6080   43.2060  -64.2410 C.3   129  LEU129      0.1561
     66  C        -10.1150   43.4250  -64.1530 C.2   129  LEU129      0.2260
     67  O        -10.7760   42.8960  -63.2510 O.2   129  LEU129     -0.2867
     68  CB        -7.8610   44.4060  -63.6580 C.3   129  LEU129      0.0270
     69  CG        -6.4050   44.1740  -63.2470 C.3   129  LEU129      0.0019
     70  CD1       -5.7180   45.4890  -62.8940 C.3   129  LEU129      0.0001
     71  CD2       -6.3230   43.2050  -62.0730 C.3   129  LEU129      0.0001
     72  N        -13.6970   41.8780  -61.5220 N.3   133  ALA133     -0.1245
     73  CA       -13.8980   42.9480  -60.5550 C.3   133  ALA133      0.1562
     74  C        -15.3820   43.2380  -60.3620 C.2   133  ALA133      0.2260
     75  O        -16.2160   42.9740  -61.2340 O.2   133  ALA133     -0.2867
     76  CB       -13.1750   44.2360  -60.9780 C.3   133  ALA133      0.0290
     77  N        -13.9840   48.9800  -57.3300 N.3   137  ASP137     -0.1239
     78  CA       -12.8080   48.5290  -58.0640 C.3   137  ASP137      0.1674
     79  C        -13.1520   48.2650  -59.5240 C.2   137  ASP137      0.2266
     80  O        -12.3600   48.5690  -60.4260 O.2   137  ASP137     -0.2867
     81  CB       -12.2390   47.2740  -57.4020 C.3   137  ASP137      0.1410
     82  CG       -10.8580   46.9120  -57.9160 C.2   137  ASP137      0.3668
     83  OD1      -10.6630   46.8920  -59.1500 O.co2 137  ASP137     -0.2456
     84  OD2       -9.9650   46.6510  -57.0830 O.co2 137  ASP137     -0.2456
     85  N        -13.4870   51.5910  -61.3580 N.3   140  GLN140     -0.1231
     86  CA       -12.1760   52.2180  -61.4960 C.3   140  GLN140      0.1698
     87  C        -11.3540   51.5500  -62.5940 C.2   140  GLN140      0.2592
     88  O        -10.7600   52.2330  -63.4380 O.2   140  GLN140     -0.2718
     89  CB       -11.4300   52.1790  -60.1610 C.3   140  GLN140      0.0381
     90  CG       -10.0070   52.7250  -60.2240 C.3   140  GLN140      0.0905
     91  CD        -9.9380   54.1470  -60.7540 C.2   140  GLN140      0.2608
     92  OE1      -10.9430   54.8560  -60.8040 O.2   140  GLN140     -0.2717
     93  NE2       -8.7440   54.5710  -61.1500 N.am  140  GLN140     -0.0878
     94  N        -11.2960   50.2130  -62.6000 N.am  141  THR141     -0.1953
     95  CA       -10.5200   49.5260  -63.6290 C.3   141  THR141      0.1897
     96  C        -11.1060   49.7770  -65.0130 C.2   141  THR141      0.2313
     97  O        -10.3620   49.9880  -65.9800 O.2   141  THR141     -0.2863
     98  CB       -10.4490   48.0220  -63.3480 C.3   141  THR141      0.1794
     99  OG1      -11.7710   47.4700  -63.3020 O.3   141  THR141     -0.2208
    100  CG2       -9.7260   47.7460  -62.0340 C.3   141  THR141      0.0378
    101  N        -10.1850   53.3030  -66.0800 N.3   144  ASN144     -0.1240
    102  CA        -8.7560   53.4020  -66.3600 C.3   144  ASN144      0.1653
    103  C         -8.4190   52.7860  -67.7140 C.2   144  ASN144      0.2266
    104  O         -7.6960   53.3870  -68.5230 O.2   144  ASN144     -0.2867
    105  CB        -7.9600   52.7240  -65.2440 C.3   144  ASN144      0.1155
    106  CG        -7.1600   53.7090  -64.4150 C.2   144  ASN144      0.2627
    107  OD1       -6.6880   54.7260  -64.9210 O.2   144  ASN144     -0.2716
    108  ND2       -6.9950   53.4050  -63.1350 N.am  144  ASN144     -0.0877
@<TRIPOS>BOND
     1    44    45    1
     2    46    45    1
     3    46    47    2
     4    45    48    1
     5    48    49    1
     6    49    50    1
     7   104   103    2
     8    50    51    1
     9   103   102    1
    10    53    54    1
    11    51    52    1
    12    55    54    1
    13    55    56    2
    14    57    54    1
    15    57    58    1
    16    60    58   ar
    17    60    62   ar
    18    26    24    1
    19   102   101    1
    20   102   105    1
    21    36    37    1
    22    58    59   ar
    23    97    96    2
    24    64    65    1
    25    62    63   ar
    26    37    38    1
    27    37    40    1
    28    39    38    2
    29    19    20    1
    30   105   106    1
    31    20    21    1
    32    20    23    1
    33    24    23    1
    34    24    25    1
    35    22    21    2
    36    96    95    1
    37   107   106    2
    38    59    61   ar
    39    21    27   am
    40   106   108   am
    41    40    41    1
    42    65    66    1
    43    65    68    1
    44    30    29    2
    45    63    61   ar
    46    66    67    2
    47    29    28    1
    48    41    43   ar
    49    41    42   ar
    50    68    69    1
    51    95    98    1
    52    95    94    1
    53    27    28    1
    54    88    87    2
    55    98    99    1
    56    98   100    1
    57    69    70    1
    58    69    71    1
    59    28    31    1
    60    94    87   am
    61    87    86    1
    62    15    14    2
    63    12    13    1
    64    14    13    1
    65    31    32    1
    66    72    73    1
    67    86    85    1
    68    86    89    1
    69    13    16    1
    70    75    74    2
    71    93    91   am
    72    32    33    1
    73    76    73    1
    74     4     3    2
    75     1     2    1
    76    92    91    2
    77    91    90    1
    78    73    74    1
    79     2     3    1
    80     2     5    1
    81    80    79    2
    82    90    89    1
    83    16    17    1
    84    16    18    1
    85    33    34   ar
    86    33    35   ar
    87    79    78    1
    88     6     5    1
    89     6     7    1
    90    83    82   ar
    91    10     9    1
    92     9    11    1
    93     9     8    2
    94    78    81    1
    95    78    77    1
    96    82    81    1
    97    82    84   ar
    98     7     8    1
