@<TRIPOS>MOLECULE
tmp/6bqtJ01.pdb
 89 81 0 0 0
SMALL
GASTEIGER

@<TRIPOS>ATOM
      1  N          7.0060   31.7540  -68.8480 N.3    20  ASP20      -0.1239
      2  CA         7.4340   32.3360  -67.5790 C.3    20  ASP20       0.1674
      3  C          8.8610   32.8640  -67.6840 C.2    20  ASP20       0.2266
      4  O          9.1600   33.9820  -67.2450 O.2    20  ASP20      -0.2867
      5  CB         7.3210   31.2960  -66.4650 C.3    20  ASP20       0.1410
      6  CG         5.9150   30.7570  -66.3120 C.2    20  ASP20       0.3668
      7  OD1        4.9580   31.5560  -66.3930 O.co2  20  ASP20      -0.2456
      8  OD2        5.7680   29.5310  -66.1160 O.co2  20  ASP20      -0.2456
      9  N          8.7240   36.0180  -69.7750 N.3    23  ALA23      -0.1231
     10  CA         8.2460   37.1600  -69.0060 C.3    23  ALA23       0.1694
     11  C          9.3230   37.6780  -68.0650 C.2    23  ALA23       0.2592
     12  O          9.5070   38.8930  -67.9360 O.2    23  ALA23      -0.2718
     13  CB         6.9930   36.7750  -68.2220 C.3    23  ALA23       0.0304
     14  N         10.0430   36.7770  -67.3900 N.am   24  THR24      -0.1953
     15  CA        11.1210   37.2180  -66.5090 C.3    24  THR24       0.1897
     16  C         12.2130   37.9430  -67.2900 C.2    24  THR24       0.2313
     17  O         12.7110   38.9880  -66.8520 O.2    24  THR24      -0.2863
     18  CB        11.7110   36.0320  -65.7460 C.3    24  THR24       0.1794
     19  OG1       11.9330   34.9400  -66.6460 O.3    24  THR24      -0.2208
     20  CG2       10.7770   35.6000  -64.6370 C.3    24  THR24       0.0378
     21  N         10.8600   41.3960  -68.3110 N.3    27  LYS27      -0.1245
     22  CA        10.7860   42.2620  -67.1400 C.3    27  LYS27       0.1561
     23  C         12.1670   42.7680  -66.7550 C.2    27  LYS27       0.2260
     24  O         12.3410   43.9560  -66.4580 O.2    27  LYS27      -0.2867
     25  CB        10.1430   41.5250  -65.9640 C.3    27  LYS27       0.0271
     26  CG        10.1030   42.3490  -64.6770 C.3    27  LYS27       0.0035
     27  CD         9.2640   41.6960  -63.5970 C.3    27  LYS27       0.0206
     28  CE         9.9810   40.5060  -62.9930 C.3    27  LYS27       0.1093
     29  NZ         9.2000   39.8870  -61.8870 N.3    27  LYS27      -0.1314
     30  N          3.8430   38.0470  -71.6980 N.3    48  TYR48      -0.1241
     31  CA         2.8920   38.3760  -70.6470 C.3    48  TYR48       0.1605
     32  C          1.4720   37.9980  -71.0380 C.2    48  TYR48       0.2264
     33  O          0.6870   37.6000  -70.1730 O.2    48  TYR48      -0.2867
     34  CB         3.0000   39.8510  -70.2750 C.3    48  TYR48       0.0534
     35  CG         4.0180   40.0560  -69.1760 C.ar   48  TYR48      -0.0201
     36  CD1        3.7000   39.7760  -67.8530 C.ar   48  TYR48      -0.0009
     37  CD2        5.3030   40.4940  -69.4620 C.ar   48  TYR48      -0.0009
     38  CE1        4.6250   39.9470  -66.8450 C.ar   48  TYR48       0.0417
     39  CE2        6.2370   40.6680  -68.4570 C.ar   48  TYR48       0.0417
     40  CZ         5.8920   40.3920  -67.1510 C.ar   48  TYR48       0.1957
     41  OH         6.8170   40.5630  -66.1470 O.3    48  TYR48      -0.2866
     42  N          1.2880   34.1960  -70.1640 N.3    51  VAL51      -0.1245
     43  CA         1.1560   33.9430  -68.7300 C.3    51  VAL51       0.1561
     44  C         -0.2070   34.4030  -68.2280 C.2    51  VAL51       0.2260
     45  O         -0.8010   33.7610  -67.3530 O.2    51  VAL51      -0.2867
     46  CB         2.3010   34.6060  -67.9350 C.3    51  VAL51       0.0252
     47  CG1        3.6490   34.0290  -68.3410 C.3    51  VAL51       0.0019
     48  CG2        2.2860   36.0940  -68.1270 C.3    51  VAL51       0.0019
     49  N         -4.1230   31.7080  -67.0100 N.3    55  ARG55      -0.1245
     50  CA        -4.9570   31.8850  -65.8230 C.3    55  ARG55       0.1563
     51  C         -6.2930   32.5220  -66.1640 C.2    55  ARG55       0.2260
     52  O         -7.2750   32.3090  -65.4510 O.2    55  ARG55      -0.2867
     53  CB        -4.2000   32.7260  -64.7990 C.3    55  ARG55       0.0307
     54  CG        -2.8150   32.1700  -64.5340 C.3    55  ARG55       0.0489
     55  CD        -2.0190   33.0130  -63.5800 C.3    55  ARG55       0.2205
     56  NE        -0.6090   32.6440  -63.6330 N.pl3  55  ARG55      -0.0865
     57  CZ        -0.1140   31.5230  -63.1220 C.cat  55  ARG55       0.5346
     58  NH1       -0.9140   30.6480  -62.5190 N.pl3  55  ARG55       0.1354
     59  NH2        1.1830   31.2700  -63.2190 N.pl3  55  ARG55       0.1354
     60  N         -3.5020   35.2320  -58.5430 N.3    89  GLU89      -0.1245
     61  CA        -2.4450   35.1660  -59.5440 C.3    89  GLU89       0.1567
     62  C         -2.7220   36.1540  -60.6650 C.2    89  GLU89       0.2260
     63  O         -1.8980   37.0300  -60.9550 O.2    89  GLU89      -0.2867
     64  CB        -2.3190   33.7450  -60.0950 C.3    89  GLU89       0.0388
     65  CG        -2.0870   32.6950  -59.0210 C.3    89  GLU89       0.1160
     66  CD        -1.8060   31.3100  -59.5800 C.2    89  GLU89       0.3649
     67  OE1       -0.7860   31.1410  -60.2800 O.co2  89  GLU89      -0.2457
     68  OE2       -2.6060   30.3870  -59.3150 O.co2  89  GLU89      -0.2457
     69  N         -2.1730   39.6910  -59.6610 N.3    92  SER92      -0.1202
     70  CA        -0.7360   39.8890  -59.5190 C.3    92  SER92       0.2020
     71  C         -0.1090   40.1990  -60.8680 C.2    92  SER92       0.2618
     72  O          0.4630   41.2760  -61.0750 O.2    92  SER92      -0.2717
     73  CB        -0.0930   38.6460  -58.8980 C.3    92  SER92       0.2103
     74  OG         1.3160   38.7740  -58.8310 O.3    92  SER92      -0.2182
     75  N         -0.2620   39.2780  -61.8210 N.am   93  ILE93      -0.1979
     76  CA         0.3500   39.4670  -63.1330 C.3    93  ILE93       0.1595
     77  C         -0.0390   40.8240  -63.6930 C.2    93  ILE93       0.2287
     78  O          0.8230   41.6410  -64.0440 O.2    93  ILE93      -0.2864
     79  CB        -0.0480   38.3270  -64.0860 C.3    93  ILE93       0.0276
     80  CG1        0.4490   36.9930  -63.5320 C.3    93  ILE93       0.0022
     81  CG2        0.5420   38.5630  -65.4750 C.3    93  ILE93       0.0022
     82  CD1       -0.0150   35.7890  -64.2990 C.3    93  ILE93       0.0001
     83  N          1.8050   43.5590  -62.0000 N.3    96  THR96      -0.1218
     84  CA         3.1770   43.5790  -62.4910 C.3    96  THR96       0.1862
     85  C          3.2530   44.3540  -63.7970 C.2    96  THR96       0.2287
     86  O          3.9310   45.3850  -63.8910 O.2    96  THR96      -0.2866
     87  CB         3.6900   42.1460  -62.6760 C.3    96  THR96       0.1770
     88  OG1        3.7160   41.4730  -61.4120 O.3    96  THR96      -0.2211
     89  CG2        5.0960   42.1310  -63.2860 C.3    96  THR96       0.0375
@<TRIPOS>BOND
     1    30    31    1
     2    32    31    1
     3    32    33    2
     4    31    34    1
     5    34    35    1
     6    42    43    1
     7     9    10    1
     8    37    35   ar
     9    37    39   ar
    10    35    36   ar
    11    10    13    1
    12    10    11    1
    13     1     2    1
    14    43    44    1
    15    43    46    1
    16    39    40   ar
    17    47    46    1
    18    21    22    1
    19    44    45    2
    20    48    46    1
    21    11    12    2
    22    11    14   am
    23    36    38   ar
    24     3     2    1
    25     3     4    2
    26     2     5    1
    27    14    15    1
    28    16    17    2
    29    16    15    1
    30    40    38   ar
    31    40    41    1
    32    22    23    1
    33    22    25    1
    34    49    50    1
    35    23    24    2
    36    19    18    1
    37    15    18    1
    38     5     6    1
    39     7     6   ar
    40     6     8   ar
    41    51    50    1
    42    51    52    2
    43    25    26    1
    44    50    53    1
    45    18    20    1
    46    81    79    1
    47    53    54    1
    48    26    27    1
    49    54    55    1
    50    82    80    1
    51    79    80    1
    52    79    76    1
    53    78    77    2
    54    86    85    2
    55    85    84    1
    56    77    76    1
    57    56    55    1
    58    56    57    2
    59    27    28    1
    60    89    87    1
    61    59    57    1
    62    76    75    1
    63    57    58    1
    64    28    29    1
    65    87    84    1
    66    87    88    1
    67    84    83    1
    68    75    71   am
    69    72    71    2
    70    63    62    2
    71    71    70    1
    72    62    61    1
    73    67    66   ar
    74    64    61    1
    75    64    65    1
    76    69    70    1
    77    66    68   ar
    78    66    65    1
    79    61    60    1
    80    70    73    1
    81    73    74    1
