@<TRIPOS>MOLECULE
tmp/6bqvD04.pdb
 136 130 0 0 0
SMALL
GASTEIGER

@<TRIPOS>ATOM
      1  N        143.4510  148.0070  152.2860 N.3   632  SER632     -0.1202
      2  CA       143.7700  148.7950  151.1030 C.3   632  SER632      0.2020
      3  C        144.3840  147.9370  150.0100 C.2   632  SER632      0.2618
      4  O        144.4370  148.3550  148.8500 O.2   632  SER632     -0.2717
      5  CB       144.7130  149.9360  151.4770 C.3   632  SER632      0.2103
      6  OG       144.0910  150.8230  152.3820 O.3   632  SER632     -0.2182
      7  N        144.8590  146.7400  150.3570 N.am  633  TRP633     -0.1975
      8  CA       145.4510  145.8660  149.3570 C.3   633  TRP633      0.1640
      9  C        144.3900  145.0930  148.6160 C.2   633  TRP633      0.2290
     10  O        144.5000  144.9020  147.4050 O.2   633  TRP633     -0.2864
     11  CB       146.3910  144.8670  149.9930 C.3   633  TRP633      0.0576
     12  CG       147.5300  145.4320  150.7100 C.ar  633  TRP633      0.0006
     13  CD1      147.9010  146.7310  150.8070 C.ar  633  TRP633      0.0946
     14  CD2      148.4830  144.6820  151.4410 C.ar  633  TRP633      0.0152
     15  NE1      149.0310  146.8370  151.5720 N.ar  633  TRP633     -0.2442
     16  CE2      149.4040  145.5870  151.9700 C.ar  633  TRP633      0.0810
     17  CE3      148.6370  143.3230  151.7040 C.ar  633  TRP633      0.0012
     18  CZ2      150.4540  145.1800  152.7440 C.ar  633  TRP633      0.0191
     19  CZ3      149.6810  142.9240  152.4670 C.ar  633  TRP633      0.0001
     20  CH2      150.5750  143.8440  152.9850 C.ar  633  TRP633      0.0015
     21  N        149.4860  147.3980  134.9780 N.3   669  MET669     -0.1245
     22  CA       149.9010  148.4350  135.9070 C.3   669  MET669      0.1570
     23  C        149.4280  148.1610  137.3250 C.2   669  MET669      0.2261
     24  O        150.1760  148.3730  138.2770 O.2   669  MET669     -0.2867
     25  CB       149.3410  149.7610  135.4030 C.3   669  MET669      0.0387
     26  CG       149.5520  150.9740  136.2470 C.3   669  MET669      0.0595
     27  SD       151.2210  151.5660  136.1640 S.3   669  MET669     -0.1393
     28  CE       151.2230  151.9780  134.4510 C.3   669  MET669      0.0692
     29  N        151.7700  146.9760  140.6230 N.3   673  VAL673     -0.1245
     30  CA       151.8150  147.7220  141.8710 C.3   673  VAL673      0.1561
     31  C        151.4870  146.8270  143.0590 C.2   673  VAL673      0.2260
     32  O        152.0110  147.0450  144.1520 O.2   673  VAL673     -0.2867
     33  CB       150.9030  148.9560  141.7200 C.3   673  VAL673      0.0252
     34  CG1      150.6370  149.6630  143.0330 C.3   673  VAL673      0.0019
     35  CG2      151.5690  149.9340  140.7850 C.3   673  VAL673      0.0019
     36  N        154.3810  145.7120  145.2830 N.3   676  LEU676     -0.1231
     37  CA       154.7420  146.4990  146.4530 C.3   676  LEU676      0.1693
     38  C        154.1100  145.9650  147.7220 C.2   676  LEU676      0.2592
     39  O        154.7300  146.0110  148.7830 O.2   676  LEU676     -0.2718
     40  CB       154.2970  147.9420  146.2850 C.3   676  LEU676      0.0284
     41  CG       155.1420  149.0650  145.7310 C.3   676  LEU676      0.0019
     42  CD1      155.5290  148.8290  144.3410 C.3   676  LEU676      0.0001
     43  CD2      154.2180  150.2280  145.7740 C.3   676  LEU676      0.0001
     44  N        152.8660  145.4940  147.6350 N.am  677  HIS677     -0.1976
     45  CA       152.1870  144.9880  148.8160 C.3   677  HIS677      0.1656
     46  C        152.7750  143.6580  149.2450 C.2   677  HIS677      0.2291
     47  O        152.6510  143.2510  150.4010 O.2   677  HIS677     -0.2864
     48  CB       150.6960  144.8230  148.5490 C.3   677  HIS677      0.0771
     49  CG       150.0360  146.0330  147.9740 C.ar  677  HIS677      0.0820
     50  ND1      150.0540  147.2580  148.5970 N.ar  677  HIS677     -0.2267
     51  CD2      149.2530  146.1780  146.8790 C.ar  677  HIS677      0.1154
     52  CE1      149.3600  148.1210  147.8760 C.ar  677  HIS677      0.1986
     53  NE2      148.8610  147.4900  146.8300 N.ar  677  HIS677     -0.2212
     54  N        158.4070  150.8240  152.0500 N.3   689  ILE689     -0.1231
     55  CA       157.1700  150.8400  151.2730 C.3   689  ILE689      0.1692
     56  C        156.0640  151.5270  152.0600 C.2   689  ILE689      0.2591
     57  O        155.2700  152.2930  151.5060 O.2   689  ILE689     -0.2718
     58  CB       156.7710  149.4110  150.8390 C.3   689  ILE689      0.0266
     59  CG1      157.6060  148.9230  149.6650 C.3   689  ILE689      0.0019
     60  CG2      155.3200  149.2940  150.4460 C.3   689  ILE689      0.0020
     61  CD1      158.6840  148.0280  150.0170 C.3   689  ILE689      0.0001
     62  N        156.0310  151.3220  153.3750 N.am  690  VAL690     -0.1980
     63  CA       154.9970  151.9300  154.1980 C.3   690  VAL690      0.1595
     64  C        155.2240  153.4340  154.3420 C.2   690  VAL690      0.2287
     65  O        154.2790  154.1850  154.6030 O.2   690  VAL690     -0.2864
     66  CB       154.9580  151.1530  155.5320 C.3   690  VAL690      0.0276
     67  CG1      153.8920  151.6540  156.4800 C.3   690  VAL690      0.0022
     68  CG2      154.6850  149.7070  155.2470 C.3   690  VAL690      0.0022
     69  N        156.1850  155.4780  151.7320 N.3   692  VAL692     -0.1231
     70  CA       155.8780  156.2280  150.5150 C.3   692  VAL692      0.1692
     71  C        154.4050  156.5450  150.3420 C.2   692  VAL692      0.2592
     72  O        154.0540  157.2880  149.4260 O.2   692  VAL692     -0.2718
     73  CB       156.3430  155.4980  149.2400 C.3   692  VAL692      0.0266
     74  CG1      157.7840  155.1210  149.3510 C.3   692  VAL692      0.0020
     75  CG2      155.4910  154.3090  148.9590 C.3   692  VAL692      0.0020
     76  N        153.5370  156.0110  151.1890 N.am  693  SER693     -0.1952
     77  CA       152.1610  156.4610  151.2470 C.3   693  SER693      0.1924
     78  C        151.9620  157.6050  152.2260 C.2   693  SER693      0.2314
     79  O        150.9800  158.3370  152.1010 O.2   693  SER693     -0.2863
     80  CB       151.2480  155.2960  151.6160 C.3   693  SER693      0.2116
     81  OG       151.5500  154.8070  152.9070 O.3   693  SER693     -0.2180
     82  N        152.2780  161.0850  150.3230 N.3   696  MET696     -0.1245
     83  CA       151.2540  161.5400  149.3980 C.3   696  MET696      0.1570
     84  C        150.6440  162.8630  149.7930 C.2   696  MET696      0.2261
     85  O        150.1510  163.5790  148.9240 O.2   696  MET696     -0.2867
     86  CB       150.1560  160.4990  149.2830 C.3   696  MET696      0.0387
     87  CG       150.5820  159.2530  148.5710 C.3   696  MET696      0.0595
     88  SD       151.0980  159.6270  146.8970 S.3   696  MET696     -0.1393
     89  CE       152.8530  159.3350  146.9890 C.3   696  MET696      0.0692
     90  N        153.0390  165.2280  148.0320 N.3   699  VAL699     -0.1231
     91  CA       152.8630  165.1630  146.5880 C.3   699  VAL699      0.1692
     92  C        151.6300  165.9400  146.1800 C.2   699  VAL699      0.2592
     93  O        151.6690  166.7360  145.2420 O.2   699  VAL699     -0.2718
     94  CB       152.7860  163.7000  146.1230 C.3   699  VAL699      0.0266
     95  CG1      152.3750  163.6150  144.6750 C.3   699  VAL699      0.0020
     96  CG2      154.1110  163.0410  146.2960 C.3   699  VAL699      0.0020
     97  N        150.5450  165.7850  146.9310 N.am  700  PHE700     -0.1976
     98  CA       149.2970  166.4640  146.6230 C.3   700  PHE700      0.1639
     99  C        149.3700  167.9600  146.8580 C.2   700  PHE700      0.2290
    100  O        148.6320  168.7010  146.2120 O.2   700  PHE700     -0.2864
    101  CB       148.1650  165.8590  147.4420 C.3   700  PHE700      0.0560
    102  CG       147.7950  164.4640  147.0290 C.ar  700  PHE700     -0.0200
    103  CD1      148.1090  163.9870  145.7670 C.ar  700  PHE700     -0.0042
    104  CD2      147.1500  163.6210  147.9120 C.ar  700  PHE700     -0.0042
    105  CE1      147.7770  162.7060  145.3930 C.ar  700  PHE700     -0.0003
    106  CE2      146.8190  162.3380  147.5450 C.ar  700  PHE700     -0.0003
    107  CZ       147.1310  161.8820  146.2830 C.ar  700  PHE700     -0.0000
    108  N        151.3550  168.8870  143.7720 N.3   703  LEU703     -0.1245
    109  CA       150.5110  168.7230  142.6050 C.3   703  LEU703      0.1561
    110  C        149.4300  169.7930  142.5690 C.2   703  LEU703      0.2260
    111  O        148.9920  170.1960  141.4910 O.2   703  LEU703     -0.2867
    112  CB       149.9240  167.3220  142.6440 C.3   703  LEU703      0.0270
    113  CG       149.6090  166.5780  141.3810 C.3   703  LEU703      0.0019
    114  CD1      150.9110  166.4960  140.6520 C.3   703  LEU703      0.0001
    115  CD2      149.1540  165.1970  141.7520 C.3   703  LEU703      0.0001
    116  N        154.2120  170.9970  131.6380 N.3   740  TYR740     -0.1241
    117  CA       154.5520  169.9530  132.5970 C.3   740  TYR740      0.1605
    118  C        155.8690  169.2930  132.2590 C.2   740  TYR740      0.2264
    119  O        156.6070  168.8830  133.1530 O.2   740  TYR740     -0.2867
    120  CB       153.4490  168.9080  132.6290 C.3   740  TYR740      0.0534
    121  CG       153.6830  167.7610  133.5570 C.ar  740  TYR740     -0.0201
    122  CD1      153.5220  167.9040  134.9170 C.ar  740  TYR740     -0.0009
    123  CD2      154.0400  166.5230  133.0670 C.ar  740  TYR740     -0.0009
    124  CE1      153.7260  166.8530  135.7620 C.ar  740  TYR740      0.0417
    125  CE2      154.2490  165.4720  133.9030 C.ar  740  TYR740      0.0417
    126  CZ       154.0860  165.6380  135.2460 C.ar  740  TYR740      0.1957
    127  OH       154.2890  164.5780  136.0870 O.3   740  TYR740     -0.2866
    128  N        152.3520  145.6030  162.0470 N.3   830  GLN830     -0.1245
    129  CA       151.7910  145.0600  160.8200 C.3   830  GLN830      0.1566
    130  C        152.4690  143.7640  160.4210 C.2   830  GLN830      0.2260
    131  O        151.8750  142.9640  159.6940 O.2   830  GLN830     -0.2867
    132  CB       151.9310  146.1020  159.7060 C.3   830  GLN830      0.0367
    133  CG       151.2760  145.7760  158.3770 C.3   830  GLN830      0.0905
    134  CD       151.4900  146.8490  157.3410 C.2   830  GLN830      0.2608
    135  OE1      152.1530  147.8500  157.5970 O.2   830  GLN830     -0.2717
    136  NE2      150.9280  146.6480  156.1570 N.am  830  GLN830     -0.0878
@<TRIPOS>BOND
     1   116   117    1
     2   118   117    1
     3   118   119    2
     4   117   120    1
     5   120   121    1
     6   123   121   ar
     7   123   125   ar
     8   121   122   ar
     9   125   126   ar
    10    28    27    1
    11   122   124   ar
    12    21    22    1
    13   126   124   ar
    14   126   127    1
    15    25    22    1
    16    25    26    1
    17    22    23    1
    18    27    26    1
    19    23    24    2
    20    29    30    1
    21   114   113    1
    22    35    33    1
    23   113   115    1
    24   113   112    1
    25   111   110    2
    26    33    30    1
    27    33    34    1
    28    30    31    1
    29   110   109    1
    30   109   112    1
    31   109   108    1
    32    31    32    2
    33    42    41    1
    34    95    94    1
    35    93    92    2
    36    36    37    1
    37   105   103   ar
    38   105   107   ar
    39    41    43    1
    40    41    40    1
    41   103   102   ar
    42    94    96    1
    43    94    91    1
    44    92    91    1
    45    92    97   am
    46   100    99    2
    47   107   106   ar
    48    40    37    1
    49    37    38    1
    50    91    90    1
    51    98    99    1
    52    98    97    1
    53    98   101    1
    54    53    51   ar
    55    53    52   ar
    56    51    49   ar
    57    88    89    1
    58    88    87    1
    59   102   101    1
    60   102   104   ar
    61    10     9    2
    62   106   104   ar
    63    44    38   am
    64    44    45    1
    65    38    39    2
    66    52    50   ar
    67    49    48    1
    68    49    50   ar
    69    48    45    1
    70    87    86    1
    71     9     8    1
    72    45    46    1
    73     4     3    2
    74    85    84    2
    75    75    73    1
    76    73    74    1
    77    73    70    1
    78    46    47    2
    79    86    83    1
    80     8    11    1
    81     8     7    1
    82    83    84    1
    83    83    82    1
    84    72    71    2
    85    59    61    1
    86    59    58    1
    87    11    12    1
    88     3     7   am
    89     3     2    1
    90    71    70    1
    91    71    76   am
    92    60    58    1
    93    70    69    1
    94    12    13   ar
    95    12    14   ar
    96    13    15   ar
    97    58    55    1
    98     2     5    1
    99     2     1    1
   100    76    77    1
   101    77    80    1
   102    77    78    1
   103    55    54    1
   104    55    56    1
   105    14    17   ar
   106    14    16   ar
   107     5     6    1
   108    57    56    2
   109    15    16   ar
   110    80    81    1
   111    17    19   ar
   112    16    18   ar
   113    56    62   am
   114    79    78    2
   115    19    20   ar
   116    18    20   ar
   117    62    63    1
   118    63    64    1
   119    63    66    1
   120    64    65    2
   121    68    66    1
   122    66    67    1
   123   136   134   am
   124   134   135    2
   125   134   133    1
   126   133   132    1
   127   131   130    2
   128   132   129    1
   129   130   129    1
   130   129   128    1
