@<TRIPOS>MOLECULE
tmp/6bqvD02.pdb
 169 165 0 0 0
SMALL
GASTEIGER

@<TRIPOS>ATOM
      1  N        158.7790  133.3990  161.0130 N.3   510  TRP510     -0.1227
      2  CA       158.8360  133.5830  159.5680 C.3   510  TRP510      0.1737
      3  C        159.5940  132.4610  158.8960 C.2   510  TRP510      0.2595
      4  O        159.0880  131.8690  157.9460 O.2   510  TRP510     -0.2718
      5  CB       159.4670  134.9430  159.2780 C.3   510  TRP510      0.0564
      6  CG       159.6680  135.3740  157.8890 C.ar  510  TRP510      0.0003
      7  CD1      160.8410  135.6860  157.3110 C.ar  510  TRP510      0.0946
      8  CD2      158.6600  135.5660  156.8960 C.ar  510  TRP510      0.0152
      9  NE1      160.6370  136.0690  156.0090 N.ar  510  TRP510     -0.2442
     10  CE2      159.3000  135.9970  155.7330 C.ar  510  TRP510      0.0810
     11  CE3      157.2730  135.3990  156.8760 C.ar  510  TRP510      0.0012
     12  CZ2      158.6160  136.2730  154.5750 C.ar  510  TRP510      0.0191
     13  CZ3      156.5970  135.6790  155.7310 C.ar  510  TRP510      0.0001
     14  CH2      157.2670  136.1080  154.5940 C.ar  510  TRP510      0.0015
     15  N        160.7270  132.0690  159.4540 N.am  511  TRP511     -0.1976
     16  CA       161.5680  131.0230  158.8990 C.3   511  TRP511      0.1640
     17  C        161.2470  129.6830  159.5270 C.2   511  TRP511      0.2290
     18  O        162.1760  128.9650  159.8990 O.2   511  TRP511     -0.2864
     19  CB       163.0340  131.3130  159.1540 C.3   511  TRP511      0.0576
     20  CG       163.6400  132.3670  158.3670 C.ar  511  TRP511      0.0006
     21  CD1      163.7040  133.6790  158.6800 C.ar  511  TRP511      0.0946
     22  CD2      164.3830  132.2020  157.1660 C.ar  511  TRP511      0.0152
     23  NE1      164.3990  134.3620  157.7220 N.ar  511  TRP511     -0.2442
     24  CE2      164.8300  133.4720  156.7790 C.ar  511  TRP511      0.0810
     25  CE3      164.6910  131.1060  156.3630 C.ar  511  TRP511      0.0012
     26  CZ2      165.5710  133.6780  155.6270 C.ar  511  TRP511      0.0191
     27  CZ3      165.4220  131.3100  155.2240 C.ar  511  TRP511      0.0001
     28  CH2      165.8560  132.5850  154.8630 C.ar  511  TRP511      0.0015
     29  N        169.7920  134.5630  152.5540 N.3   520  ILE520     -0.1245
     30  CA       168.7070  134.6370  151.5890 C.3   520  ILE520      0.1561
     31  C        169.0590  133.8930  150.3180 C.2   520  ILE520      0.2260
     32  O        168.1930  133.2520  149.7190 O.2   520  ILE520     -0.2867
     33  CB       168.3630  136.1020  151.2930 C.3   520  ILE520      0.0252
     34  CG1      166.8640  136.2900  151.2780 C.3   520  ILE520      0.0019
     35  CG2      169.0380  136.6060  150.0450 C.3   520  ILE520      0.0019
     36  CD1      166.2820  136.1520  152.6430 C.3   520  ILE520      0.0001
     37  N        168.3670  130.2400  150.4050 N.3   523  LEU523     -0.1231
     38  CA       166.9620  129.9320  150.1770 C.3   523  LEU523      0.1693
     39  C        166.6220  129.9690  148.6970 C.2   523  LEU523      0.2591
     40  O        165.8660  129.1230  148.2130 O.2   523  LEU523     -0.2718
     41  CB       166.0880  130.9090  150.9440 C.3   523  LEU523      0.0284
     42  CG       164.6030  130.6400  150.7830 C.3   523  LEU523      0.0019
     43  CD1      164.2460  129.3060  151.3790 C.3   523  LEU523      0.0001
     44  CD2      163.8530  131.7340  151.4210 C.3   523  LEU523      0.0001
     45  N        167.1840  130.9300  147.9670 N.am  524  VAL524     -0.1980
     46  CA       167.0180  130.9760  146.5210 C.3   524  VAL524      0.1595
     47  C        167.6690  129.7620  145.8710 C.2   524  VAL524      0.2287
     48  O        167.1050  129.1530  144.9560 O.2   524  VAL524     -0.2864
     49  CB       167.5930  132.2960  145.9820 C.3   524  VAL524      0.0276
     50  CG1      167.4690  132.3720  144.4770 C.3   524  VAL524      0.0022
     51  CG2      166.9000  133.4590  146.6360 C.3   524  VAL524      0.0022
     52  N        165.1190  126.7790  143.9200 N.3   528  PHE528     -0.1241
     53  CA       165.2990  126.3400  142.5470 C.3   528  PHE528      0.1605
     54  C        166.1680  125.0960  142.4390 C.2   528  PHE528      0.2264
     55  O        166.4450  124.6480  141.3230 O.2   528  PHE528     -0.2867
     56  CB       165.8920  127.4710  141.7100 C.3   528  PHE528      0.0534
     57  CG       165.0310  128.6960  141.6740 C.ar  528  PHE528     -0.0203
     58  CD1      163.8510  128.7110  140.9510 C.ar  528  PHE528     -0.0042
     59  CD2      165.4060  129.8370  142.3580 C.ar  528  PHE528     -0.0042
     60  CE1      163.0580  129.8350  140.9250 C.ar  528  PHE528     -0.0003
     61  CE2      164.6200  130.9630  142.3310 C.ar  528  PHE528     -0.0003
     62  CZ       163.4480  130.9650  141.6140 C.ar  528  PHE528     -0.0000
     63  N        158.6030  131.6950  154.7910 N.3   555  VAL555     -0.1245
     64  CA       159.4310  132.4060  153.8220 C.3   555  VAL555      0.1561
     65  C        159.3510  131.7260  152.4720 C.2   555  VAL555      0.2260
     66  O        159.4190  132.3920  151.4340 O.2   555  VAL555     -0.2867
     67  CB       160.9180  132.4950  154.1860 C.3   555  VAL555      0.0252
     68  CG1      161.5630  133.6510  153.4640 C.3   555  VAL555      0.0019
     69  CG2      161.1080  132.6510  155.6070 C.3   555  VAL555      0.0019
     70  N        156.0550  132.5020  150.9880 N.3   558  PHE558     -0.1227
     71  CA       156.2400  133.8400  150.4350 C.3   558  PHE558      0.1736
     72  C        156.9620  133.7980  149.1070 C.2   558  PHE558      0.2595
     73  O        156.4650  134.3210  148.1100 O.2   558  PHE558     -0.2718
     74  CB       157.0230  134.6950  151.4130 C.3   558  PHE558      0.0547
     75  CG       157.3870  136.0420  150.8980 C.ar  558  PHE558     -0.0202
     76  CD1      156.4430  137.0270  150.7800 C.ar  558  PHE558     -0.0042
     77  CD2      158.6940  136.3370  150.5790 C.ar  558  PHE558     -0.0042
     78  CE1      156.7900  138.2690  150.3260 C.ar  558  PHE558     -0.0003
     79  CE2      159.0470  137.5780  150.1200 C.ar  558  PHE558     -0.0003
     80  CZ       158.0940  138.5450  149.9970 C.ar  558  PHE558     -0.0000
     81  N        158.1360  133.1720  149.0780 N.am  559  MET559     -0.1979
     82  CA       158.9260  133.1000  147.8580 C.3   559  MET559      0.1605
     83  C        158.2180  132.2910  146.7810 C.2   559  MET559      0.2287
     84  O        158.3840  132.5690  145.5940 O.2   559  MET559     -0.2864
     85  CB       160.2940  132.5040  148.1670 C.3   559  MET559      0.0413
     86  CG       161.2410  132.5520  147.0120 C.3   559  MET559      0.0598
     87  SD       162.8660  131.8980  147.3280 S.3   559  MET559     -0.1393
     88  CE       163.5510  132.0830  145.6910 C.3   559  MET559      0.0692
     89  N        155.9500  134.8160  145.4590 N.3   562  VAL562     -0.1231
     90  CA       156.6540  135.8550  144.7190 C.3   562  VAL562      0.1692
     91  C        157.0940  135.3470  143.3610 C.2   562  VAL562      0.2591
     92  O        156.9150  136.0310  142.3540 O.2   562  VAL562     -0.2718
     93  CB       157.8510  136.3900  145.5320 C.3   562  VAL562      0.0266
     94  CG1      158.6790  137.3320  144.7140 C.3   562  VAL562      0.0020
     95  CG2      157.3690  137.1230  146.7120 C.3   562  VAL562      0.0020
     96  N        157.6520  134.1360  143.3130 N.am  563  VAL563     -0.1980
     97  CA       158.0870  133.5530  142.0460 C.3   563  VAL563      0.1595
     98  C        156.9010  133.3240  141.1260 C.2   563  VAL563      0.2287
     99  O        156.9390  133.6860  139.9490 O.2   563  VAL563     -0.2864
    100  CB       158.8780  132.2570  142.2950 C.3   563  VAL563      0.0276
    101  CG1      159.1120  131.5240  141.0120 C.3   563  VAL563      0.0022
    102  CG2      160.2040  132.5800  142.9040 C.3   563  VAL563      0.0022
    103  N        155.8040  136.8510  139.8660 N.3   566  LEU566     -0.1231
    104  CA       156.6670  137.3790  138.8200 C.3   566  LEU566      0.1693
    105  C        156.4870  136.6150  137.5220 C.2   566  LEU566      0.2591
    106  O        156.6850  137.1720  136.4420 O.2   566  LEU566     -0.2718
    107  CB       158.1310  137.3360  139.2450 C.3   566  LEU566      0.0284
    108  CG       158.7780  138.5320  139.9390 C.3   566  LEU566      0.0019
    109  CD1      158.6620  139.7500  139.0710 C.3   566  LEU566      0.0001
    110  CD2      158.1920  138.8080  141.2600 C.3   566  LEU566      0.0001
    111  N        156.1180  135.3430  137.5990 N.am  567  LEU567     -0.1980
    112  CA       155.7860  134.5960  136.4000 C.3   567  LEU567      0.1596
    113  C        154.3860  134.8900  135.9060 C.2   567  LEU567      0.2287
    114  O        154.1130  134.6810  134.7250 O.2   567  LEU567     -0.2864
    115  CB       155.9260  133.0980  136.6430 C.3   567  LEU567      0.0297
    116  CG       157.3160  132.5500  136.9210 C.3   567  LEU567      0.0022
    117  CD1      157.1930  131.0950  137.2630 C.3   567  LEU567      0.0001
    118  CD2      158.2310  132.7610  135.7550 C.3   567  LEU567      0.0001
    119  N        153.2190  138.0190  136.0230 N.3   569  LEU569     -0.1231
    120  CA       153.4410  139.2830  135.3400 C.3   569  LEU569      0.1693
    121  C        154.3250  139.0930  134.1210 C.2   569  LEU569      0.2591
    122  O        154.2800  139.9000  133.1940 O.2   569  LEU569     -0.2718
    123  CB       154.0580  140.3070  136.2950 C.3   569  LEU569      0.0284
    124  CG       153.2030  141.1610  137.2460 C.3   569  LEU569      0.0019
    125  CD1      152.2190  141.9850  136.5200 C.3   569  LEU569      0.0001
    126  CD2      152.4350  140.3790  138.1780 C.3   569  LEU569      0.0001
    127  N        155.1280  138.0380  134.0930 N.am  570  LEU570     -0.1980
    128  CA       155.8430  137.7240  132.8670 C.3   570  LEU570      0.1596
    129  C        154.9340  137.0600  131.8480 C.2   570  LEU570      0.2287
    130  O        155.1020  137.2690  130.6460 O.2   570  LEU570     -0.2864
    131  CB       157.0570  136.8550  133.1780 C.3   570  LEU570      0.0297
    132  CG       157.9920  136.4950  132.0350 C.3   570  LEU570      0.0022
    133  CD1      159.3970  136.6010  132.4850 C.3   570  LEU570      0.0001
    134  CD2      157.7520  135.0640  131.6110 C.3   570  LEU570      0.0001
    135  N        156.1160  142.7170  148.8890 N.3   679  PHE679     -0.1241
    136  CA       157.4170  142.9120  149.5120 C.3   679  PHE679      0.1605
    137  C        157.4150  143.8590  150.6920 C.2   679  PHE679      0.2264
    138  O        158.4720  144.3580  151.0690 O.2   679  PHE679     -0.2867
    139  CB       158.4190  143.4260  148.4970 C.3   679  PHE679      0.0534
    140  CG       159.0070  142.3670  147.6590 C.ar  679  PHE679     -0.0203
    141  CD1      160.1130  141.6800  148.0990 C.ar  679  PHE679     -0.0042
    142  CD2      158.4470  142.0310  146.4520 C.ar  679  PHE679     -0.0042
    143  CE1      160.6630  140.7020  147.3370 C.ar  679  PHE679     -0.0003
    144  CE2      158.9950  141.0550  145.6890 C.ar  679  PHE679     -0.0003
    145  CZ       160.1080  140.3870  146.1290 C.ar  679  PHE679     -0.0000
    146  N        156.5380  142.6800  153.5400 N.3   681  VAL681     -0.1231
    147  CA       156.8760  141.7770  154.6230 C.3   681  VAL681      0.1692
    148  C        158.3840  141.7390  154.8280 C.2   681  VAL681      0.2592
    149  O        158.8460  141.3730  155.9170 O.2   681  VAL681     -0.2718
    150  CB       156.3020  140.3860  154.3030 C.3   681  VAL681      0.0266
    151  CG1      156.3000  139.4730  155.5220 C.3   681  VAL681      0.0020
    152  CG2      154.9220  140.5110  153.6930 C.3   681  VAL681      0.0020
    153  N        159.1530  142.1270  153.8130 N.am  682  ASN682     -0.1960
    154  CA       160.6050  142.1800  153.8920 C.3   682  ASN682      0.1819
    155  C        161.0500  143.1840  154.9470 C.2   682  ASN682      0.2621
    156  O        160.4850  144.2640  155.0670 O.2   682  ASN682     -0.2715
    157  CB       161.1660  142.5850  152.5330 C.3   682  ASN682      0.1195
    158  CG       162.6560  142.3930  152.4260 C.2   682  ASN682      0.2630
    159  OD1      163.2100  141.5000  153.0470 O.2   682  ASN682     -0.2716
    160  ND2      163.3220  143.2580  151.6860 N.am  682  ASN682     -0.0877
    161  N        162.0590  142.8180  155.7290 N.am  683  LYS683     -0.1977
    162  CA       162.5580  143.7370  156.7410 C.3   683  LYS683      0.1596
    163  C        163.3540  144.8740  156.1220 C.2   683  LYS683      0.2287
    164  O        163.3880  145.9770  156.6710 O.2   683  LYS683     -0.2864
    165  CB       163.4190  142.9890  157.7520 C.3   683  LYS683      0.0298
    166  CG       163.7650  143.7960  158.9910 C.3   683  LYS683      0.0038
    167  CD       164.7710  143.0980  159.8740 C.3   683  LYS683      0.0206
    168  CE       164.0930  142.3250  160.9740 C.3   683  LYS683      0.1093
    169  NZ       163.5550  141.0520  160.4480 N.3   683  LYS683     -0.1314
@<TRIPOS>BOND
     1   130   129    2
     2   134   132    1
     3   129   128    1
     4   132   133    1
     5   132   131    1
     6   128   131    1
     7   128   127    1
     8   122   121    2
     9   127   121   am
    10   121   120    1
    11   114   113    2
    12   120   119    1
    13   120   123    1
    14   118   116    1
    15   113   112    1
    16   123   124    1
    17   112   115    1
    18   112   111    1
    19   106   105    2
    20   125   124    1
    21   115   116    1
    22   116   117    1
    23   124   126    1
    24   105   111   am
    25   105   104    1
    26   104   107    1
    27   104   103    1
    28   109   108    1
    29   107   108    1
    30   108   110    1
    31    99    98    2
    32    60    58   ar
    33    60    62   ar
    34    58    57   ar
    35   101   100    1
    36    98    97    1
    37    55    54    2
    38    62    61   ar
    39    57    56    1
    40    57    59   ar
    41    56    53    1
    42    97   100    1
    43    97    96    1
    44   100   102    1
    45    61    59   ar
    46    92    91    2
    47    54    53    1
    48    53    52    1
    49    96    91   am
    50    91    90    1
    51    50    49    1
    52    94    93    1
    53    90    89    1
    54    90    93    1
    55    48    47    2
    56    93    95    1
    57    84    83    2
    58   144   145   ar
    59   144   142   ar
    60    88    87    1
    61    47    46    1
    62    49    46    1
    63    49    51    1
    64   145   143   ar
    65   142   140   ar
    66    46    45    1
    67    83    82    1
    68    86    87    1
    69    86    85    1
    70   143   141   ar
    71   140   141   ar
    72   140   139    1
    73    82    85    1
    74    82    81    1
    75    45    39   am
    76    73    72    2
    77    40    39    2
    78   139   136    1
    79    39    38    1
    80   135   136    1
    81    81    72   am
    82    72    71    1
    83   136   137    1
    84    32    31    2
    85    80    79   ar
    86    80    78   ar
    87    35    33    1
    88    79    77   ar
    89    38    37    1
    90    38    41    1
    91    31    30    1
    92    78    76   ar
    93    71    70    1
    94    71    74    1
    95    77    75   ar
    96   137   138    2
    97    76    75   ar
    98    42    41    1
    99    42    43    1
   100    42    44    1
   101    75    74    1
   102    34    33    1
   103    34    36    1
   104    33    30    1
   105    66    65    2
   106    30    29    1
   107   160   158   am
   108   158   157    1
   109   158   159    2
   110    65    64    1
   111   157   154    1
   112    68    67    1
   113   146   147    1
   114   152   150    1
   115   153   154    1
   116   153   148   am
   117    64    67    1
   118    64    63    1
   119   154   155    1
   120    67    69    1
   121   150   147    1
   122   150   151    1
   123    12    14   ar
   124    12    10   ar
   125    14    13   ar
   126   147   148    1
   127   148   149    2
   128    28    27   ar
   129    28    26   ar
   130   155   156    2
   131   155   161   am
   132    27    25   ar
   133    26    24   ar
   134   161   162    1
   135    13    11   ar
   136    10     9   ar
   137    10     8   ar
   138     9     7   ar
   139   163   164    2
   140   163   162    1
   141    25    22   ar
   142   162   165    1
   143    24    22   ar
   144    24    23   ar
   145    11     8   ar
   146     8     6   ar
   147    22    20   ar
   148     7     6   ar
   149    23    21   ar
   150   165   166    1
   151     6     5    1
   152     4     3    2
   153    20    21   ar
   154    20    19    1
   155     3    15   am
   156     3     2    1
   157    16    19    1
   158    16    15    1
   159    16    17    1
   160   166   167    1
   161     5     2    1
   162    17    18    2
   163     2     1    1
   164   167   168    1
   165   169   168    1
