@<TRIPOS>MOLECULE
tmp/6bqvD03.pdb
 98 94 0 0 0
SMALL
GASTEIGER

@<TRIPOS>ATOM
      1  N        151.3550  168.8870  143.7720 N.3   703  LEU703     -0.1245
      2  CA       150.5110  168.7230  142.6050 C.3   703  LEU703      0.1561
      3  C        149.4300  169.7930  142.5690 C.2   703  LEU703      0.2260
      4  O        148.9920  170.1960  141.4910 O.2   703  LEU703     -0.2867
      5  CB       149.9240  167.3220  142.6440 C.3   703  LEU703      0.0270
      6  CG       149.6090  166.5780  141.3810 C.3   703  LEU703      0.0019
      7  CD1      150.9110  166.4960  140.6520 C.3   703  LEU703      0.0001
      8  CD2      149.1540  165.1970  141.7520 C.3   703  LEU703      0.0001
      9  N        151.7790  173.1250  141.7910 N.3   706  LEU706     -0.1231
     10  CA       152.1950  173.0670  140.4040 C.3   706  LEU706      0.1693
     11  C        151.0430  173.2640  139.4500 C.2   706  LEU706      0.2592
     12  O        151.1670  174.0750  138.5380 O.2   706  LEU706     -0.2718
     13  CB       152.8520  171.7360  140.0850 C.3   706  LEU706      0.0284
     14  CG       153.3960  171.5890  138.6870 C.3   706  LEU706      0.0019
     15  CD1      154.5120  172.5740  138.5380 C.3   706  LEU706      0.0001
     16  CD2      153.8600  170.1790  138.5300 C.3   706  LEU706      0.0001
     17  N        149.9410  172.5540  139.6470 N.am  707  GLY707     -0.1957
     18  CA       148.7800  172.6540  138.7940 C.3   707  GLY707      0.1869
     19  C        148.1550  174.0260  138.7330 C.2   707  GLY707      0.2309
     20  O        147.6460  174.4170  137.6880 O.2   707  GLY707     -0.2863
     21  N        150.6370  175.8060  136.7340 N.3   710  LEU710     -0.1245
     22  CA       150.6610  175.2880  135.3760 C.3   710  LEU710      0.1561
     23  C        149.4990  175.8470  134.5720 C.2   710  LEU710      0.2260
     24  O        149.6010  176.0410  133.3600 O.2   710  LEU710     -0.2867
     25  CB       150.5930  173.7720  135.4270 C.3   710  LEU710      0.0270
     26  CG       151.1960  172.9350  134.3390 C.3   710  LEU710      0.0019
     27  CD1      152.6550  173.1540  134.4660 C.3   710  LEU710      0.0001
     28  CD2      150.8720  171.5180  134.6380 C.3   710  LEU710      0.0001
     29  N        141.7920  169.7820  122.1830 N.3   729  PRO729     -0.2116
     30  CA       142.8560  168.8590  122.6080 C.3   729  PRO729      0.1372
     31  C        144.2380  169.4560  122.5340 C.2   729  PRO729      0.2244
     32  O        145.0530  169.1840  123.4170 O.2   729  PRO729     -0.2868
     33  CB       142.7160  167.6880  121.6370 C.3   729  PRO729      0.0268
     34  CG       141.3450  167.7150  121.2420 C.3   729  PRO729      0.0207
     35  CD       140.9620  169.1320  121.1500 C.3   729  PRO729      0.0892
     36  N        144.5290  172.3890  125.3310 N.3   732  LEU732     -0.1231
     37  CA       144.7370  171.7740  126.6400 C.3   732  LEU732      0.1693
     38  C        146.0330  170.9900  126.7380 C.2   732  LEU732      0.2591
     39  O        146.3400  170.4520  127.8010 O.2   732  LEU732     -0.2718
     40  CB       143.5580  170.8580  126.9780 C.3   732  LEU732      0.0284
     41  CG       142.1960  171.5390  127.1420 C.3   732  LEU732      0.0019
     42  CD1      141.0990  170.5020  127.3290 C.3   732  LEU732      0.0001
     43  CD2      142.2200  172.5170  128.3070 C.3   732  LEU732      0.0001
     44  N        146.7780  170.8970  125.6590 N.am  733  ARG733     -0.1980
     45  CA       148.0810  170.2780  125.6150 C.3   733  ARG733      0.1597
     46  C        149.2180  171.2690  125.7420 C.2   733  ARG733      0.2287
     47  O        150.1490  171.0280  126.5120 O.2   733  ARG733     -0.2864
     48  CB       148.1910  169.5290  124.3140 C.3   733  ARG733      0.0334
     49  CG       149.5050  169.0390  123.9880 C.3   733  ARG733      0.0492
     50  CD       149.2630  168.0230  122.9760 C.3   733  ARG733      0.2205
     51  NE       150.4950  167.4650  122.4990 N.pl3 733  ARG733     -0.0865
     52  CZ       150.5520  166.2990  121.9010 C.cat 733  ARG733      0.5346
     53  NH1      149.4600  165.5680  121.7880 N.pl3 733  ARG733      0.1354
     54  NH2      151.7070  165.8470  121.4830 N.pl3 733  ARG733      0.1354
     55  N        148.8050  172.4890  129.4390 N.3   736  PHE736     -0.1227
     56  CA       149.1560  171.6050  130.5370 C.3   736  PHE736      0.1736
     57  C        150.3310  170.6970  130.2330 C.2   736  PHE736      0.2595
     58  O        151.2620  170.6310  131.0270 O.2   736  PHE736     -0.2718
     59  CB       147.9600  170.7540  130.9290 C.3   736  PHE736      0.0547
     60  CG       146.8250  171.5350  131.4430 C.ar  736  PHE736     -0.0202
     61  CD1      146.8450  172.0220  132.7260 C.ar  736  PHE736     -0.0042
     62  CD2      145.7320  171.7870  130.6450 C.ar  736  PHE736     -0.0042
     63  CE1      145.8020  172.7420  133.2000 C.ar  736  PHE736     -0.0003
     64  CE2      144.6830  172.5110  131.1180 C.ar  736  PHE736     -0.0003
     65  CZ       144.7170  172.9930  132.3960 C.ar  736  PHE736     -0.0000
     66  N        150.3020  169.9850  129.1100 N.am  737  TYR737     -0.1976
     67  CA       151.2740  168.9250  128.8760 C.3   737  TYR737      0.1639
     68  C        152.6450  169.4810  128.5480 C.2   737  TYR737      0.2290
     69  O        153.6540  169.0240  129.0890 O.2   737  TYR737     -0.2864
     70  CB       150.7860  168.0200  127.7560 C.3   737  TYR737      0.0560
     71  CG       151.7380  166.9350  127.3820 C.ar  737  TYR737     -0.0198
     72  CD1      152.0460  165.9290  128.2720 C.ar  737  TYR737     -0.0009
     73  CD2      152.2850  166.8870  126.1220 C.ar  737  TYR737     -0.0009
     74  CE1      152.9090  164.9330  127.9300 C.ar  737  TYR737      0.0417
     75  CE2      153.1390  165.8940  125.7680 C.ar  737  TYR737      0.0417
     76  CZ       153.4460  164.9150  126.6730 C.ar  737  TYR737      0.1957
     77  OH       154.3070  163.9170  126.3040 O.3   737  TYR737     -0.2866
     78  N        154.2120  170.9970  131.6380 N.3   740  TYR740     -0.1241
     79  CA       154.5520  169.9530  132.5970 C.3   740  TYR740      0.1605
     80  C        155.8690  169.2930  132.2590 C.2   740  TYR740      0.2264
     81  O        156.6070  168.8830  133.1530 O.2   740  TYR740     -0.2867
     82  CB       153.4490  168.9080  132.6290 C.3   740  TYR740      0.0534
     83  CG       153.6830  167.7610  133.5570 C.ar  740  TYR740     -0.0201
     84  CD1      153.5220  167.9040  134.9170 C.ar  740  TYR740     -0.0009
     85  CD2      154.0400  166.5230  133.0670 C.ar  740  TYR740     -0.0009
     86  CE1      153.7260  166.8530  135.7620 C.ar  740  TYR740      0.0417
     87  CE2      154.2490  165.4720  133.9030 C.ar  740  TYR740      0.0417
     88  CZ       154.0860  165.6380  135.2460 C.ar  740  TYR740      0.1957
     89  OH       154.2890  164.5780  136.0870 O.3   740  TYR740     -0.2866
     90  N        152.5920  169.9630  117.2630 N.3   776  GLN776     -0.1245
     91  CA       151.4630  170.4580  118.0350 C.3   776  GLN776      0.1566
     92  C        151.7400  171.8250  118.6430 C.2   776  GLN776      0.2260
     93  O        151.1720  172.1770  119.6780 O.2   776  GLN776     -0.2867
     94  CB       151.0840  169.4690  119.1330 C.3   776  GLN776      0.0367
     95  CG       150.5360  168.1650  118.6340 C.3   776  GLN776      0.0905
     96  CD       149.2430  168.3290  117.8890 C.2   776  GLN776      0.2608
     97  OE1      149.1820  168.1280  116.6790 O.2   776  GLN776     -0.2717
     98  NE2      148.1970  168.7030  118.6030 N.am  776  GLN776     -0.0878
@<TRIPOS>BOND
     1    97    96    2
     2    90    91    1
     3    96    98   am
     4    96    95    1
     5    91    92    1
     6    91    94    1
     7    95    94    1
     8    92    93    2
     9    35    34    1
    10    35    29    1
    11    34    33    1
    12    54    52    1
    13    33    30    1
    14    53    52    1
    15    52    51    2
    16    29    30    1
    17    51    50    1
    18    31    30    1
    19    31    32    2
    20    50    49    1
    21    49    48    1
    22    48    45    1
    23    36    37    1
    24    45    44    1
    25    45    46    1
    26    44    38   am
    27    46    47    2
    28    75    73   ar
    29    75    76   ar
    30    73    71   ar
    31    77    76    1
    32    37    38    1
    33    37    40    1
    34    76    74   ar
    35    38    39    2
    36    40    41    1
    37    41    42    1
    38    41    43    1
    39    71    70    1
    40    71    72   ar
    41    70    67    1
    42    74    72   ar
    43    68    67    1
    44    68    69    2
    45    67    66    1
    46    66    57   am
    47    55    56    1
    48    57    56    1
    49    57    58    2
    50    56    59    1
    51    62    64   ar
    52    62    60   ar
    53    59    60    1
    54    64    65   ar
    55    60    61   ar
    56    78    79    1
    57    80    79    1
    58    80    81    2
    59    65    63   ar
    60    79    82    1
    61    82    83    1
    62    61    63   ar
    63    85    83   ar
    64    85    87   ar
    65    24    23    2
    66    83    84   ar
    67    87    88   ar
    68    26    27    1
    69    26    28    1
    70    26    25    1
    71    23    22    1
    72    84    86   ar
    73    88    86   ar
    74    88    89    1
    75    22    25    1
    76    22    21    1
    77    20    19    2
    78    16    14    1
    79    12    11    2
    80    15    14    1
    81    14    13    1
    82    19    18    1
    83    18    17    1
    84    11    17   am
    85    11    10    1
    86    13    10    1
    87    10     9    1
    88     7     6    1
    89     6     8    1
    90     6     5    1
    91     4     3    2
    92     3     2    1
    93     2     5    1
    94     2     1    1
