@<TRIPOS>MOLECULE
tmp/6bqwH00.pdb
 181 174 0 0 0
SMALL
GASTEIGER

@<TRIPOS>ATOM
      1  N        176.5510  187.7740   89.6470 N.3     8  ASP8       -0.1239
      2  CA       175.8640  186.5100   89.7760 C.3     8  ASP8        0.1674
      3  C        175.6700  185.8770   88.4160 C.2     8  ASP8        0.2266
      4  O        175.0910  186.4870   87.5210 O.2     8  ASP8       -0.2867
      5  CB       174.5240  186.7170   90.4580 C.3     8  ASP8        0.1410
      6  CG       173.8260  185.4280   90.8380 C.2     8  ASP8        0.3668
      7  OD1      174.0970  184.4210   90.2340 O.co2   8  ASP8       -0.2456
      8  OD2      173.0020  185.4700   91.7210 O.co2   8  ASP8       -0.2456
      9  N        173.7820  183.4850   87.5970 N.3    10  GLY10      -0.1210
     10  CA       172.4950  182.7870   87.6470 C.3    10  GLY10       0.1956
     11  C        172.1030  182.0220   86.3820 C.2    10  GLY10       0.2612
     12  O        172.1260  182.5500   85.2660 O.2    10  GLY10      -0.2717
     13  N        171.6900  180.7810   86.5890 N.am   11  ASN11      -0.1960
     14  CA       171.3370  179.8810   85.5100 C.3    11  ASN11       0.1819
     15  C        170.1050  180.3370   84.7590 C.2    11  ASN11       0.2621
     16  O        169.9510  180.0420   83.5780 O.2    11  ASN11      -0.2715
     17  CB       171.1520  178.4950   86.0500 C.3    11  ASN11       0.1195
     18  CG       172.4460  177.9020   86.4950 C.2    11  ASN11       0.2630
     19  OD1      173.5010  178.2000   85.9280 O.2    11  ASN11      -0.2716
     20  ND2      172.3980  177.0770   87.5050 N.am   11  ASN11      -0.0877
     21  N        169.2480  181.0960   85.4150 N.am   12  PHE12      -0.1960
     22  CA       168.1320  181.7050   84.7180 C.3    12  PHE12       0.1771
     23  C        168.5610  183.0190   84.1260 C.2    12  PHE12       0.2620
     24  O        168.3140  183.2980   82.9560 O.2    12  PHE12      -0.2715
     25  CB       166.9630  181.9330   85.6550 C.3    12  PHE12       0.0574
     26  CG       165.7390  182.4600   84.9840 C.ar   12  PHE12      -0.0200
     27  CD1      164.6880  181.6210   84.6810 C.ar   12  PHE12      -0.0042
     28  CD2      165.6360  183.7920   84.6530 C.ar   12  PHE12      -0.0042
     29  CE1      163.5560  182.1050   84.0660 C.ar   12  PHE12      -0.0003
     30  CE2      164.5120  184.2840   84.0340 C.ar   12  PHE12      -0.0003
     31  CZ       163.4670  183.4390   83.7420 C.ar   12  PHE12      -0.0000
     32  N        169.2150  183.8300   84.9370 N.am   13  SER13      -0.1950
     33  CA       169.6990  185.1150   84.4900 C.3    13  SER13       0.1924
     34  C        170.8120  185.5990   85.3720 C.2    13  SER13       0.2314
     35  O        170.9060  185.2190   86.5350 O.2    13  SER13      -0.2863
     36  CB       168.5880  186.1210   84.4920 C.3    13  SER13       0.2116
     37  OG       168.2370  186.4550   85.8030 O.3    13  SER13      -0.2180
     38  N        173.2960  188.8430   86.9660 N.3    15  LYS15      -0.1245
     39  CA       173.1230  190.1840   87.4730 C.3    15  LYS15       0.1561
     40  C        174.3800  190.7410   88.1000 C.2    15  LYS15       0.2260
     41  O        175.2840  190.0020   88.4810 O.2    15  LYS15      -0.2867
     42  CB       171.9790  190.2050   88.4490 C.3    15  LYS15       0.0271
     43  CG       172.0980  189.1940   89.5570 C.3    15  LYS15       0.0035
     44  CD       170.8450  189.1700   90.3920 C.3    15  LYS15       0.0206
     45  CE       169.7350  188.4190   89.6750 C.3    15  LYS15       0.1093
     46  NZ       169.9620  186.9510   89.6920 N.3    15  LYS15      -0.1314
     47  N        171.6840  193.3060   84.9670 N.3    28  SER28      -0.1202
     48  CA       171.1450  191.9660   84.7530 C.3    28  SER28       0.2020
     49  C        170.7780  191.6910   83.3140 C.2    28  SER28       0.2619
     50  O        170.5180  192.6100   82.5430 O.2    28  SER28      -0.2717
     51  CB       169.9200  191.7610   85.5970 C.3    28  SER28       0.2103
     52  OG       168.8590  192.5450   85.1260 O.3    28  SER28      -0.2182
     53  N        170.7050  190.4080   82.9760 N.am   29  PHE29      -0.1962
     54  CA       170.2180  189.9640   81.6750 C.3    29  PHE29       0.1756
     55  C        170.0460  188.4510   81.6720 C.2    29  PHE29       0.2461
     56  O        170.7200  187.7560   82.4270 O.2    29  PHE29      -0.2730
     57  CB       171.1850  190.3600   80.5750 C.3    29  PHE29       0.0574
     58  CG       172.5460  189.7990   80.7850 C.ar   29  PHE29      -0.0200
     59  CD1      172.8670  188.5400   80.3230 C.ar   29  PHE29      -0.0042
     60  CD2      173.5060  190.5250   81.4520 C.ar   29  PHE29      -0.0042
     61  CE1      174.1220  188.0090   80.5270 C.ar   29  PHE29      -0.0003
     62  CE2      174.7610  190.0050   81.6570 C.ar   29  PHE29      -0.0003
     63  CZ       175.0740  188.7440   81.1950 C.ar   29  PHE29      -0.0000
     64  N        169.1700  187.9260   80.8130 N.am   30  PRO30      -0.2727
     65  CA       168.8740  186.5240   80.5790 C.3    30  PRO30       0.1402
     66  C        170.1360  185.7570   80.3090 C.2    30  PRO30       0.2269
     67  O        170.9220  186.1350   79.4480 O.2    30  PRO30      -0.2865
     68  CB       167.9730  186.5560   79.3520 C.3    30  PRO30       0.0296
     69  CG       167.2830  187.8670   79.4470 C.3    30  PRO30       0.0237
     70  CD       168.3280  188.8030   79.9850 C.3    30  PRO30       0.0939
     71  N        176.7070  181.2920   96.9000 N.3   151  GLU151     -0.1245
     72  CA       175.5210  181.7700   96.2150 C.3   151  GLU151      0.1567
     73  C        174.3670  181.9290   97.1790 C.2   151  GLU151      0.2260
     74  O        173.9960  180.9890   97.8760 O.2   151  GLU151     -0.2867
     75  CB       175.1480  180.8110   95.0840 C.3   151  GLU151      0.0388
     76  CG       174.0380  181.2880   94.1640 C.3   151  GLU151      0.1160
     77  CD       173.8430  180.3670   92.9840 C.2   151  GLU151      0.3649
     78  OE1      174.0500  179.1880   93.1400 O.co2 151  GLU151     -0.2457
     79  OE2      173.4700  180.8310   91.9340 O.co2 151  GLU151     -0.2457
     80  N        167.8500  179.3420   98.9830 N.3   168  ASP168     -0.1225
     81  CA       167.9590  180.0180   97.6920 C.3   168  ASP168      0.1805
     82  C        167.2040  179.2900   96.5880 C.2   168  ASP168      0.2598
     83  O        167.7050  178.3290   96.0090 O.2   168  ASP168     -0.2718
     84  CB       169.4080  180.1410   97.2930 C.3   168  ASP168      0.1424
     85  CG       169.6170  180.9900   96.0660 C.2   168  ASP168      0.3668
     86  OD1      168.7020  181.6730   95.6780 O.co2 168  ASP168     -0.2456
     87  OD2      170.6800  180.9190   95.4980 O.co2 168  ASP168     -0.2456
     88  N        166.0000  179.7510   96.3030 N.am  169  ALA169     -0.1966
     89  CA       165.1390  179.1050   95.3240 C.3   169  ALA169      0.1728
     90  C        165.4050  179.6120   93.9220 C.2   169  ALA169      0.2617
     91  O        164.6800  180.4720   93.4260 O.2   169  ALA169     -0.2715
     92  CB       163.6850  179.3370   95.6830 C.3   169  ALA169      0.0334
     93  N        166.4440  179.0880   93.2760 N.am  170  GLY170     -0.1940
     94  CA       166.8120  179.5690   91.9410 C.3   170  GLY170      0.2014
     95  C        166.4380  178.5960   90.8180 C.2   170  GLY170      0.2639
     96  O        166.2310  177.4110   91.0640 O.2   170  GLY170     -0.2714
     97  N        166.4160  179.1220   89.5800 N.am  171  SER171     -0.1949
     98  CA       166.2570  178.3580   88.3330 C.3   171  SER171      0.1924
     99  C        166.0910  176.8990   88.5860 C.2   171  SER171      0.2314
    100  O        165.0190  176.4380   88.9480 O.2   171  SER171     -0.2863
    101  CB       167.4350  178.5700   87.4210 C.3   171  SER171      0.2116
    102  OG       168.5670  177.9210   87.9170 O.3   171  SER171     -0.2180
    103  N        168.3770  175.3420   90.6780 N.3   173  THR173     -0.1218
    104  CA       169.3240  175.1200   91.7670 C.3   173  THR173      0.1862
    105  C        168.7720  175.6100   93.0920 C.2   173  THR173      0.2287
    106  O        168.2750  176.7310   93.1890 O.2   173  THR173     -0.2866
    107  CB       170.6620  175.8150   91.5020 C.3   173  THR173      0.1770
    108  OG1      171.2370  175.3110   90.2950 O.3   173  THR173     -0.2211
    109  CG2      171.6210  175.5610   92.6540 C.3   173  THR173      0.0375
    110  N        169.9770  176.3560   96.9140 N.3   175  ASN175     -0.1240
    111  CA       171.0810  176.4320   97.8730 C.3   175  ASN175      0.1653
    112  C        170.5810  176.5240   99.3000 C.2   175  ASN175      0.2266
    113  O        169.6750  177.2980   99.6050 O.2   175  ASN175     -0.2867
    114  CB       172.0060  177.5980   97.5800 C.3   175  ASN175      0.1155
    115  CG       172.6890  177.4750   96.2640 C.2   175  ASN175      0.2627
    116  OD1      173.4770  176.5500   96.0630 O.2   175  ASN175     -0.2716
    117  ND2      172.4230  178.3880   95.3690 N.am  175  ASN175     -0.0877
    118  N        163.5350  175.8270   90.7980 N.3   196  THR196     -0.1203
    119  CA       162.2540  176.4380   90.4900 C.3   196  THR196      0.1994
    120  C        161.6390  175.9260   89.2040 C.2   196  THR196      0.2617
    121  O        160.4290  175.7380   89.1230 O.2   196  THR196     -0.2717
    122  CB       162.4100  177.9680   90.4020 C.3   196  THR196      0.1784
    123  OG1      162.8350  178.4720   91.6720 O.3   196  THR196     -0.2211
    124  CG2      161.0970  178.6260   90.0140 C.3   196  THR196      0.0376
    125  N        162.4480  175.7740   88.1790 N.am  197  ILE197     -0.1979
    126  CA       161.9200  175.4980   86.8580 C.3   197  ILE197      0.1595
    127  C        161.4020  174.0790   86.7230 C.2   197  ILE197      0.2287
    128  O        160.3610  173.8530   86.1120 O.2   197  ILE197     -0.2864
    129  CB       162.9760  175.7450   85.7840 C.3   197  ILE197      0.0276
    130  CG1      163.3670  177.2180   85.7540 C.3   197  ILE197      0.0022
    131  CG2      162.4390  175.3170   84.4300 C.3   197  ILE197      0.0022
    132  CD1      164.6070  177.4930   84.9370 C.3   197  ILE197      0.0001
    133  N        165.9080  184.5270   96.2010 N.3   225  GLY225     -0.1210
    134  CA       166.0010  184.0280   94.8440 C.3   225  GLY225      0.1956
    135  C        164.6330  183.7490   94.2500 C.2   225  GLY225      0.2612
    136  O        163.7240  183.2970   94.9450 O.2   225  GLY225     -0.2717
    137  N        164.5130  183.9750   92.9490 N.am  226  GLY226     -0.1942
    138  CA       163.3280  183.5970   92.1920 C.3   226  GLY226      0.2014
    139  C        162.0530  183.8130   92.9690 C.2   226  GLY226      0.2638
    140  O        161.7280  184.9340   93.3580 O.2   226  GLY226     -0.2714
    141  N        161.3270  182.7290   93.2010 N.am  227  LYS227     -0.1977
    142  CA       160.0560  182.7830   93.9000 C.3   227  LYS227      0.1596
    143  C        160.2520  182.7870   95.3970 C.2   227  LYS227      0.2287
    144  O        159.7250  181.9310   96.1010 O.2   227  LYS227     -0.2864
    145  CB       159.1860  181.6000   93.4960 C.3   227  LYS227      0.0298
    146  CG       158.7570  181.6070   92.0400 C.3   227  LYS227      0.0038
    147  CD       157.7340  182.6980   91.7930 C.3   227  LYS227      0.0206
    148  CE       157.2350  182.6970   90.3620 C.3   227  LYS227      0.1093
    149  NZ       156.2450  183.7850   90.1270 N.3   227  LYS227     -0.1314
    150  N        164.6450  187.8290   93.1160 N.3   255  TYR255     -0.1227
    151  CA       165.8020  187.2190   92.4760 C.3   255  TYR255      0.1736
    152  C        167.0250  188.1190   92.3850 C.2   255  TYR255      0.2595
    153  O        168.1400  187.6290   92.2280 O.2   255  TYR255     -0.2718
    154  CB       165.4110  186.7600   91.0840 C.3   255  TYR255      0.0548
    155  CG       165.1040  187.8890   90.1250 C.ar  255  TYR255     -0.0200
    156  CD1      166.0780  188.3550   89.2660 C.ar  255  TYR255     -0.0009
    157  CD2      163.8400  188.4480   90.0980 C.ar  255  TYR255     -0.0009
    158  CE1      165.7900  189.3620   88.3760 C.ar  255  TYR255      0.0417
    159  CE2      163.5540  189.4590   89.2090 C.ar  255  TYR255      0.0417
    160  CZ       164.5220  189.9110   88.3470 C.ar  255  TYR255      0.1957
    161  OH       164.2260  190.9030   87.4440 O.3   255  TYR255     -0.2866
    162  N        166.8360  189.4150   92.5030 N.am  256  TYR256     -0.1976
    163  CA       167.9430  190.3290   92.4470 C.3   256  TYR256      0.1639
    164  C        168.8930  190.2280   93.6360 C.2   256  TYR256      0.2290
    165  O        170.0720  190.5350   93.4950 O.2   256  TYR256     -0.2864
    166  CB       167.4300  191.7480   92.3200 C.3   256  TYR256      0.0560
    167  CG       167.0820  192.1220   90.9110 C.ar  256  TYR256     -0.0198
    168  CD1      165.9070  192.7810   90.6350 C.ar  256  TYR256     -0.0009
    169  CD2      167.9450  191.8050   89.8910 C.ar  256  TYR256     -0.0009
    170  CE1      165.6010  193.1330   89.3410 C.ar  256  TYR256      0.0417
    171  CE2      167.6470  192.1520   88.6000 C.ar  256  TYR256      0.0417
    172  CZ       166.4810  192.8150   88.3210 C.ar  256  TYR256      0.1957
    173  OH       166.1810  193.1590   87.0250 O.3   256  TYR256     -0.2866
    174  N        170.7280  188.1630   96.1050 N.3   258  ASN258     -0.1240
    175  CA       172.0250  187.4990   96.0000 C.3   258  ASN258      0.1653
    176  C        173.1930  188.4680   96.0170 C.2   258  ASN258      0.2266
    177  O        173.6900  188.8470   97.0750 O.2   258  ASN258     -0.2867
    178  CB       172.0740  186.6090   94.7930 C.3   258  ASN258      0.1155
    179  CG       171.2180  185.4000   94.9740 C.2   258  ASN258      0.2627
    180  OD1      170.5880  185.2310   96.0230 O.2   258  ASN258     -0.2716
    181  ND2      171.1890  184.5450   93.9860 N.am  258  ASN258     -0.0877
@<TRIPOS>BOND
     1    68    69    1
     2    68    65    1
     3    69    70    1
     4    67    66    2
     5    70    64    1
     6    66    65    1
     7    59    61   ar
     8    59    58   ar
     9    61    63   ar
    10    57    58    1
    11    57    54    1
    12    65    64    1
    13    58    60   ar
    14    64    55   am
    15    63    62   ar
    16    60    62   ar
    17    55    54    1
    18    55    56    2
    19    54    53    1
    20    50    49    2
    21    24    23    2
    22    53    49   am
    23    49    48    1
    24    16    15    2
    25    31    30   ar
    26    31    29   ar
    27    30    28   ar
    28    29    27   ar
    29    23    22    1
    30    23    32   am
    31   131   129    1
    32    33    36    1
    33    33    32    1
    34    33    34    1
    35    36    37    1
    36    28    26   ar
    37    27    26   ar
    38    22    21    1
    39    22    25    1
    40    48    47    1
    41    48    51    1
    42    15    21   am
    43    15    14    1
    44   132   130    1
    45    26    25    1
    46    52    51    1
    47    12    11    2
    48    34    35    2
    49    14    17    1
    50    14    13    1
    51   130   129    1
    52   129   126    1
    53    19    18    2
    54    17    18    1
    55   128   127    2
    56    11    13   am
    57    11    10    1
    58    18    20   am
    59   127   126    1
    60   126   125    1
    61    38    39    1
    62   173   172    1
    63   101   102    1
    64   101    98    1
    65   161   160    1
    66    39    40    1
    67    39    42    1
    68     4     3    2
    69     9    10    1
    70    40    41    2
    71   125   120   am
    72   172   171   ar
    73   172   170   ar
    74    98    99    1
    75    98    97    1
    76   160   158   ar
    77   160   159   ar
    78   158   156   ar
    79     3     2    1
    80    42    43    1
    81    99   100    2
    82   171   169   ar
    83   121   120    2
    84   120   119    1
    85   159   157   ar
    86   156   155   ar
    87   170   168   ar
    88    43    44    1
    89    97    95   am
    90     1     2    1
    91    45    46    1
    92    45    44    1
    93     2     5    1
    94   169   167   ar
    95   124   122    1
    96   157   155   ar
    97   155   154    1
    98   149   148    1
    99     7     6   ar
   100   108   107    1
   101   148   147    1
   102   122   119    1
   103   122   123    1
   104     5     6    1
   105   119   118    1
   106   168   167   ar
   107   103   104    1
   108    95    96    2
   109    95    94    1
   110     6     8   ar
   111   167   166    1
   112   154   151    1
   113   107   104    1
   114   107   109    1
   115   104   105    1
   116   147   146    1
   117    79    77   ar
   118    94    93    1
   119   146   145    1
   120   138   137    1
   121   138   139    1
   122   153   152    2
   123   166   163    1
   124   152   151    1
   125   152   162   am
   126   163   162    1
   127   163   164    1
   128   151   150    1
   129   137   135   am
   130   139   141   am
   131   139   140    2
   132    77    78   ar
   133    77    76    1
   134   105   106    2
   135   141   142    1
   136    93    90   am
   137    91    90    2
   138   165   164    2
   139   145   142    1
   140   142   143    1
   141    90    89    1
   142   181   179   am
   143    76    75    1
   144   135   134    1
   145   135   136    2
   146   178   179    1
   147   178   175    1
   148   134   133    1
   149   179   180    2
   150    75    72    1
   151    89    92    1
   152    89    88    1
   153   117   115   am
   154   143   144    2
   155    87    85   ar
   156    86    85   ar
   157   175   176    1
   158   175   174    1
   159    83    82    2
   160   176   177    2
   161   116   115    2
   162    85    84    1
   163    72    71    1
   164    72    73    1
   165   115   114    1
   166    88    82   am
   167    82    81    1
   168   110   111    1
   169    73    74    2
   170    84    81    1
   171   114   111    1
   172    81    80    1
   173   111   112    1
   174   112   113    2
