@<TRIPOS>MOLECULE
tmp/6bqxA00.pdb
 105 102 0 0 0
SMALL
GASTEIGER

@<TRIPOS>ATOM
      1  N         20.6620   -5.3470    7.6150 N.3    32  HIS32      -0.1241
      2  CA        20.9730   -6.5230    6.8210 C.3    32  HIS32       0.1621
      3  C         22.3600   -7.0720    7.1460 C.2    32  HIS32       0.2264
      4  O         22.5710   -8.2900    7.0580 O.2    32  HIS32      -0.2867
      5  CB        20.8350   -6.1970    5.3300 C.3    32  HIS32       0.0745
      6  CG        19.4120   -6.1680    4.8470 C.ar   32  HIS32       0.0817
      7  ND1       18.7950   -5.0140    4.4100 N.ar   32  HIS32      -0.2268
      8  CD2       18.4820   -7.1490    4.7470 C.ar   32  HIS32       0.1154
      9  CE1       17.5510   -5.2870    4.0570 C.ar   32  HIS32       0.1986
     10  NE2       17.3360   -6.5750    4.2500 N.ar   32  HIS32      -0.2212
     11  N         21.9550   -9.4280   10.0260 N.3    35  GLN35      -0.1231
     12  CA        21.5100  -10.7360    9.5360 C.3    35  GLN35       0.1698
     13  C         22.6550  -11.4760    8.8290 C.2    35  GLN35       0.2592
     14  O         22.9060  -12.6560    9.1060 O.2    35  GLN35      -0.2718
     15  CB        20.2910  -10.5790    8.6250 C.3    35  GLN35       0.0381
     16  CG        19.1660   -9.7180    9.2260 C.3    35  GLN35       0.0905
     17  CD        18.4650  -10.3630   10.4350 C.2    35  GLN35       0.2608
     18  OE1       18.6910  -11.5330   10.7440 O.2    35  GLN35      -0.2717
     19  NE2       17.6490   -9.5770   11.1480 N.am   35  GLN35      -0.0878
     20  N         23.4110  -10.7730    7.9670 N.am   36  PHE36      -0.1976
     21  CA        24.4620  -11.4330    7.1870 C.3    36  PHE36       0.1639
     22  C         25.4830  -12.1120    8.0910 C.2    36  PHE36       0.2290
     23  O         25.9470  -13.2200    7.8020 O.2    36  PHE36      -0.2864
     24  CB        25.1680  -10.4170    6.2680 C.3    36  PHE36       0.0560
     25  CG        24.6910  -10.4450    4.8360 C.ar   36  PHE36      -0.0200
     26  CD1       23.3560  -10.6650    4.5450 C.ar   36  PHE36      -0.0042
     27  CD2       25.5770  -10.2490    3.7800 C.ar   36  PHE36      -0.0042
     28  CE1       22.9120  -10.6940    3.2390 C.ar   36  PHE36      -0.0003
     29  CE2       25.1260  -10.2750    2.4660 C.ar   36  PHE36      -0.0003
     30  CZ        23.7940  -10.5010    2.2010 C.ar   36  PHE36      -0.0000
     31  N         23.2980  -14.3070   11.7070 N.3    39  VAL39      -0.1231
     32  CA        22.3040  -15.3510   11.4400 C.3    39  VAL39       0.1692
     33  C         22.6750  -16.2140   10.2320 C.2    39  VAL39       0.2591
     34  O         22.5040  -17.4330   10.2700 O.2    39  VAL39      -0.2718
     35  CB        20.9050  -14.7350   11.2590 C.3    39  VAL39       0.0266
     36  CG1       19.8520  -15.8190   10.9250 C.3    39  VAL39       0.0020
     37  CG2       20.5140  -13.9420   12.5030 C.3    39  VAL39       0.0020
     38  N         23.1580  -15.6020    9.1490 N.am   40  LEU40      -0.1980
     39  CA        23.5630  -16.3230    7.9400 C.3    40  LEU40       0.1596
     40  C         25.0280  -16.7420    7.9390 C.2    40  LEU40       0.2287
     41  O         25.3720  -17.7390    7.2970 O.2    40  LEU40      -0.2864
     42  CB        23.3050  -15.4560    6.7040 C.3    40  LEU40       0.0297
     43  CG        21.8810  -14.9330    6.5810 C.3    40  LEU40       0.0022
     44  CD1       21.7020  -14.1830    5.2620 C.3    40  LEU40       0.0001
     45  CD2       20.8820  -16.0750    6.6980 C.3    40  LEU40       0.0001
     46  N         26.0150    1.5370   -0.4640 N.3   149  GLY149     -0.1210
     47  CA        25.1960    0.5950    0.2710 C.3   149  GLY149      0.1956
     48  C         26.0220   -0.5140    0.8870 C.2   149  GLY149      0.2612
     49  O         27.0290   -0.9540    0.3170 O.2   149  GLY149     -0.2717
     50  N         25.6090   -0.9580    2.0690 N.am  150  VAL150     -0.1966
     51  CA        26.1160   -2.1860    2.6670 C.3   150  VAL150      0.1712
     52  C         24.9130   -3.0550    3.0030 C.2   150  VAL150      0.2458
     53  O         23.7910   -2.5500    3.1550 O.2   150  VAL150     -0.2730
     54  CB        26.9710   -1.9020    3.9230 C.3   150  VAL150      0.0289
     55  CG1       28.3740   -1.4300    3.5100 C.3   150  VAL150      0.0023
     56  CG2       26.2550   -0.8870    4.8480 C.3   150  VAL150      0.0023
     57  N         25.1020   -4.3670    3.1110 N.am  151  PRO151     -0.2727
     58  CA        26.3200   -5.1460    2.9130 C.3   151  PRO151      0.1402
     59  C         26.7320   -5.1640    1.4360 C.2   151  PRO151      0.2269
     60  O         25.8680   -4.9890    0.5850 O.2   151  PRO151     -0.2865
     61  CB        25.9210   -6.5440    3.4040 C.3   151  PRO151      0.0296
     62  CG        24.4770   -6.5870    3.2880 C.3   151  PRO151      0.0237
     63  CD        23.9750   -5.2100    3.5550 C.3   151  PRO151      0.0939
     64  N         22.8270  -10.0000   -4.2790 N.3   163  PRO163     -0.2102
     65  CA        21.9630  -10.9860   -3.5970 C.3   163  PRO163      0.1504
     66  C         20.4910  -10.8670   -3.9450 C.2   163  PRO163      0.2575
     67  O         19.7330  -11.7860   -3.6060 O.2   163  PRO163     -0.2718
     68  CB        22.1980  -10.6870   -2.1130 C.3   163  PRO163      0.0282
     69  CG        22.6560   -9.2510   -2.0760 C.3   163  PRO163      0.0208
     70  CD        23.3950   -9.0080   -3.3590 C.3   163  PRO163      0.0893
     71  N         20.0580   -9.7820   -4.5980 N.am  164  GLN164     -0.1980
     72  CA        18.6460   -9.6400   -4.9550 C.3   164  GLN164      0.1601
     73  C         18.1580  -10.7340   -5.8990 C.2   164  GLN164      0.2287
     74  O         16.9450  -10.9430   -6.0080 O.2   164  GLN164     -0.2864
     75  CB        18.3940   -8.2830   -5.6030 C.3   164  GLN164      0.0394
     76  CG        18.5810   -7.0910   -4.6930 C.3   164  GLN164      0.0908
     77  CD        18.0860   -5.8080   -5.3450 C.2   164  GLN164      0.2608
     78  OE1       18.1260   -5.6650   -6.5720 O.2   164  GLN164     -0.2717
     79  NE2       17.6110   -4.8720   -4.5310 N.am  164  GLN164     -0.0878
     80  N         15.1830  -16.6980   -0.9360 N.3   168  THR168     -0.1218
     81  CA        15.3680  -16.5310    0.5090 C.3   168  THR168      0.1862
     82  C         14.3380  -17.3140    1.3290 C.2   168  THR168      0.2287
     83  O         14.1370  -17.0170    2.5150 O.2   168  THR168     -0.2866
     84  CB        15.2870  -15.0550    0.9070 C.3   168  THR168      0.1770
     85  OG1       14.0290  -14.5300    0.4600 O.3   168  THR168     -0.2211
     86  CG2       16.4410  -14.2480    0.3180 C.3   168  THR168      0.0375
     87  N         17.1690  -20.1790    4.4030 N.3   171  MET171     -0.1245
     88  CA        18.3640  -19.3900    4.6480 C.3   171  MET171      0.1570
     89  C         19.6430  -20.1440    4.2810 C.2   171  MET171      0.2261
     90  O         20.6140  -19.5200    3.8360 O.2   171  MET171     -0.2867
     91  CB        18.3680  -18.9410    6.0950 C.3   171  MET171      0.0387
     92  CG        17.2290  -17.9800    6.3640 C.3   171  MET171      0.0595
     93  SD        17.5400  -17.0650    7.8470 S.3   171  MET171     -0.1393
     94  CE        17.7380  -18.4360    8.9830 C.3   171  MET171      0.0692
     95  N         20.1910  -20.0250    0.4940 N.3   174  PHE174     -0.1241
     96  CA        20.6390  -18.6880    0.1060 C.3   174  PHE174      0.1605
     97  C         22.1380  -18.4970    0.3300 C.2   174  PHE174      0.2264
     98  O         22.8430  -17.9360   -0.5210 O.2   174  PHE174     -0.2867
     99  CB        19.8680  -17.6150    0.8900 C.3   174  PHE174      0.0534
    100  CG        20.4310  -16.2220    0.7120 C.ar  174  PHE174     -0.0203
    101  CD1       21.1580  -15.6080    1.7210 C.ar  174  PHE174     -0.0042
    102  CD2       20.2320  -15.5350   -0.4700 C.ar  174  PHE174     -0.0042
    103  CE1       21.6810  -14.3250    1.5430 C.ar  174  PHE174     -0.0003
    104  CE2       20.7480  -14.2590   -0.6500 C.ar  174  PHE174     -0.0003
    105  CZ        21.4750  -13.6550    0.3620 C.ar  174  PHE174     -0.0000
@<TRIPOS>BOND
     1    78    77    2
     2    74    73    2
     3    73    72    1
     4    75    72    1
     5    75    76    1
     6    77    76    1
     7    77    79   am
     8    72    71    1
     9    71    66   am
    10    64    65    1
    11    64    70    1
    12    66    67    2
    13    66    65    1
    14    65    68    1
    15    70    69    1
    16    68    69    1
    17    80    81    1
    18   104   102   ar
    19   104   105   ar
    20    98    97    2
    21   102   100   ar
    22    46    47    1
    23    96    97    1
    24    96    95    1
    25    96    99    1
    26    47    48    1
    27    49    48    2
    28    86    84    1
    29   105   103   ar
    30    85    84    1
    31    81    84    1
    32    81    82    1
    33    60    59    2
    34   100    99    1
    35   100   101   ar
    36    48    50   am
    37    82    83    2
    38    59    58    1
    39   103   101   ar
    40    50    51    1
    41    30    29   ar
    42    30    28   ar
    43    29    27   ar
    44    51    52    1
    45    51    54    1
    46    58    57    1
    47    58    61    1
    48    52    57   am
    49    52    53    2
    50    57    63    1
    51    28    26   ar
    52    62    61    1
    53    62    63    1
    54    55    54    1
    55    27    25   ar
    56    90    89    2
    57    54    56    1
    58     9    10   ar
    59     9     7   ar
    60    10     8   ar
    61    89    88    1
    62    87    88    1
    63     7     6   ar
    64    26    25   ar
    65    88    91    1
    66     8     6   ar
    67    25    24    1
    68     6     5    1
    69    44    43    1
    70     5     2    1
    71    91    92    1
    72    24    21    1
    73    92    93    1
    74    43    45    1
    75    43    42    1
    76    42    39    1
    77     2     3    1
    78     2     1    1
    79     4     3    2
    80    21    20    1
    81    21    22    1
    82    41    40    2
    83    23    22    2
    84    93    94    1
    85    40    39    1
    86    39    38    1
    87    20    13   am
    88    15    16    1
    89    15    12    1
    90    13    14    2
    91    13    12    1
    92    38    33   am
    93    16    17    1
    94    12    11    1
    95    33    34    2
    96    33    32    1
    97    17    18    2
    98    17    19   am
    99    36    35    1
   100    35    32    1
   101    35    37    1
   102    32    31    1
