@<TRIPOS>MOLECULE
tmp/6bqzA00.pdb
 109 99 0 0 0
SMALL
GASTEIGER

@<TRIPOS>ATOM
      1  N         -1.5960   55.1480   18.7230 N.3    39  LYS39      -0.1245
      2  CA        -2.1100   55.3770   17.3750 C.3    39  LYS39       0.1561
      3  C         -1.9150   54.1180   16.5510 C.2    39  LYS39       0.2260
      4  O         -0.8000   53.5860   16.4680 O.2    39  LYS39      -0.2867
      5  CB        -1.3990   56.5500   16.6920 C.3    39  LYS39       0.0271
      6  CG        -1.5990   56.5880   15.1770 C.3    39  LYS39       0.0035
      7  CD        -0.6920   57.6110   14.5240 C.3    39  LYS39       0.0206
      8  CE        -1.0700   57.8290   13.0650 C.3    39  LYS39       0.1093
      9  NZ         0.0580   58.4500   12.3140 N.3    39  LYS39      -0.1314
     10  N         -3.3090   52.9840   12.6250 N.3    41  GLY41      -0.1210
     11  CA        -4.0310   53.4940   11.4770 C.3    41  GLY41       0.1956
     12  C         -4.3520   52.4070   10.4740 C.2    41  GLY41       0.2612
     13  O         -3.5660   51.4790   10.2710 O.2    41  GLY41      -0.2717
     14  N         -5.4970   52.5470    9.8090 N.am   42  PHE42      -0.1962
     15  CA        -5.9170   51.5440    8.8440 C.3    42  PHE42       0.1771
     16  C         -6.4260   52.1970    7.5650 C.2    42  PHE42       0.2619
     17  O         -7.1080   53.2250    7.6000 O.2    42  PHE42      -0.2715
     18  CB        -6.9740   50.6310    9.4680 C.3    42  PHE42       0.0574
     19  CG        -6.4550   49.8600   10.6630 C.ar   42  PHE42      -0.0200
     20  CD1       -6.3430   50.4680   11.9090 C.ar   42  PHE42      -0.0042
     21  CD2       -6.0510   48.5470   10.5290 C.ar   42  PHE42      -0.0042
     22  CE1       -5.8420   49.7820   12.9910 C.ar   42  PHE42      -0.0003
     23  CE2       -5.5550   47.8570   11.6190 C.ar   42  PHE42      -0.0003
     24  CZ        -5.4540   48.4730   12.8450 C.ar   42  PHE42      -0.0000
     25  N         -6.0950   51.5870    6.4370 N.am   43  ASP43      -0.1971
     26  CA        -6.5280   52.0920    5.1440 C.3    43  ASP43       0.1709
     27  C         -7.9160   51.5480    4.8240 C.2    43  ASP43       0.2293
     28  O         -8.1080   50.3280    4.8430 O.2    43  ASP43      -0.2864
     29  CB        -5.5280   51.6990    4.0720 C.3    43  ASP43       0.1436
     30  CG        -6.0730   51.8710    2.6790 C.2    43  ASP43       0.3671
     31  OD1       -6.6520   52.9420    2.3850 O.co2  43  ASP43      -0.2456
     32  OD2       -5.9090   50.9290    1.8740 O.co2  43  ASP43      -0.2456
     33  N         -7.5770   54.6260   14.0050 N.3    73  LEU73      -0.1245
     34  CA        -7.5620   55.7320   13.0510 C.3    73  LEU73       0.1561
     35  C         -7.8370   55.2030   11.6540 C.2    73  LEU73       0.2260
     36  O         -7.1120   54.3310   11.1620 O.2    73  LEU73      -0.2867
     37  CB        -6.2290   56.4700   13.0880 C.3    73  LEU73       0.0270
     38  CG        -6.0560   57.5640   12.0440 C.3    73  LEU73       0.0019
     39  CD1       -7.0690   58.6670   12.2490 C.3    73  LEU73       0.0001
     40  CD2       -4.6560   58.1060   12.1480 C.3    73  LEU73       0.0001
     41  N         -7.7360   56.1190    7.8460 N.3    75  GLY75      -0.1225
     42  CA        -7.1480   57.0800    6.9440 C.3    75  GLY75       0.1811
     43  C         -8.0140   57.3090    5.7240 C.2    75  GLY75       0.2280
     44  O         -7.6520   56.8660    4.6300 O.2    75  GLY75      -0.2866
     45  N         -6.7870   60.5040    2.2440 N.3    78  THR78      -0.1218
     46  CA        -6.1550   60.2580    0.9520 C.3    78  THR78       0.1862
     47  C         -6.9970   59.3410    0.0740 C.2    78  THR78       0.2287
     48  O         -6.9930   59.4820   -1.1540 O.2    78  THR78      -0.2866
     49  CB        -4.7630   59.6700    1.1630 C.3    78  THR78       0.1770
     50  OG1       -4.8360   58.6030    2.1160 O.3    78  THR78      -0.2211
     51  CG2       -3.8150   60.7530    1.7080 C.3    78  THR78       0.0375
     52  N         -8.8320   60.4790    9.6630 N.3   119  ASN119     -0.1240
     53  CA        -7.8990   61.5890    9.5500 C.3   119  ASN119      0.1653
     54  C         -8.4090   62.7150    8.6500 C.2   119  ASN119      0.2266
     55  O         -7.8430   63.8060    8.6800 O.2   119  ASN119     -0.2867
     56  CB        -6.5150   61.0970    9.1090 C.3   119  ASN119      0.1155
     57  CG        -6.4620   60.6600    7.6890 C.2   119  ASN119      0.2627
     58  OD1       -7.4880   60.5100    7.0210 O.2   119  ASN119     -0.2716
     59  ND2       -5.2450   60.4130    7.2100 N.am  119  ASN119     -0.0877
     60  N          1.1810   62.8360    5.1180 N.3   169  VAL169     -0.1231
     61  CA        -0.1390   62.8520    5.7330 C.3   169  VAL169      0.1692
     62  C         -0.1490   61.9560    6.9610 C.2   169  VAL169      0.2591
     63  O         -0.6860   62.3260    8.0110 O.2   169  VAL169     -0.2718
     64  CB        -1.2180   62.4250    4.7230 C.3   169  VAL169      0.0266
     65  CG1       -2.4880   62.0380    5.4610 C.3   169  VAL169      0.0020
     66  CG2       -1.4850   63.5780    3.7520 C.3   169  VAL169      0.0020
     67  N          0.4510   60.7690    6.8460 N.am  170  GLN170     -0.1979
     68  CA         0.4540   59.8280    7.9620 C.3   170  GLN170      0.1601
     69  C          1.2520   60.3810    9.1340 C.2   170  GLN170      0.2287
     70  O          0.7930   60.3350   10.2780 O.2   170  GLN170     -0.2864
     71  CB         1.0100   58.4750    7.5180 C.3   170  GLN170      0.0394
     72  CG         1.1690   57.4970    8.6590 C.3   170  GLN170      0.0908
     73  CD         1.3520   56.0860    8.1650 C.2   170  GLN170      0.2608
     74  OE1        1.3260   55.8400    6.9540 O.2   170  GLN170     -0.2717
     75  NE2        1.5290   55.1410    9.0950 N.am  170  GLN170     -0.0878
     76  N         -0.6240   63.0460   10.9600 N.3   173  ASP173     -0.1239
     77  CA        -1.6670   62.4530   11.7960 C.3   173  ASP173      0.1674
     78  C         -1.1620   62.1940   13.2180 C.2   173  ASP173      0.2266
     79  O         -1.9190   62.3360   14.1810 O.2   173  ASP173     -0.2867
     80  CB        -2.1790   61.1460   11.1780 C.3   173  ASP173      0.1410
     81  CG        -2.9270   61.3550    9.8700 C.2   173  ASP173      0.3668
     82  OD1       -3.4320   62.4670    9.6270 O.co2 173  ASP173     -0.2456
     83  OD2       -3.0210   60.3900    9.0870 O.co2 173  ASP173     -0.2456
     84  N          2.9800   54.6190   17.9870 N.3   182  GLU182     -0.1245
     85  CA         2.2750   54.2020   16.7870 C.3   182  GLU182      0.1567
     86  C          2.6560   52.7640   16.4700 C.2   182  GLU182      0.2260
     87  O          3.8250   52.3770   16.5870 O.2   182  GLU182     -0.2867
     88  CB         2.5540   55.1400   15.5750 C.3   182  GLU182      0.0388
     89  CG         1.6590   54.8050   14.3640 C.3   182  GLU182      0.1160
     90  CD         1.8200   55.7450   13.1570 C.2   182  GLU182      0.3649
     91  OE1        2.6850   56.6530   13.1920 O.co2 182  GLU182     -0.2457
     92  OE2        1.0620   55.5610   12.1660 O.co2 182  GLU182     -0.2457
     93  N          5.3310   48.7470    7.2480 N.3   188  GLN188     -0.1245
     94  CA         5.0370   50.1640    7.4110 C.3   188  GLN188      0.1566
     95  C          6.1150   50.9080    8.1910 C.2   188  GLN188      0.2260
     96  O          5.8620   52.0230    8.6630 O.2   188  GLN188     -0.2867
     97  CB         3.6770   50.3430    8.0930 C.3   188  GLN188      0.0367
     98  CG         2.4820   50.0020    7.2100 C.3   188  GLN188      0.0905
     99  CD         2.2260   51.0410    6.1150 C.2   188  GLN188      0.2608
    100  OE1        2.1280   52.2450    6.3840 O.2   188  GLN188     -0.2717
    101  NE2        2.1050   50.5730    4.8750 N.am  188  GLN188     -0.0878
    102  N          6.9120   54.5300    7.1230 N.3   191  ASN191     -0.1240
    103  CA         5.8270   55.4610    7.3950 C.3   191  ASN191      0.1653
    104  C          5.6970   55.7730    8.8790 C.2   191  ASN191      0.2266
    105  O          5.4170   56.9210    9.2410 O.2   191  ASN191     -0.2867
    106  CB         4.5230   54.9100    6.8190 C.3   191  ASN191      0.1155
    107  CG         4.2940   55.3680    5.3690 C.2   191  ASN191      0.2627
    108  OD1        5.1230   55.1230    4.4970 O.2   191  ASN191     -0.2716
    109  ND2        3.1740   56.0440    5.1210 N.am  191  ASN191     -0.0877
@<TRIPOS>BOND
     1    48    47    2
     2    47    46    1
     3    46    49    1
     4    46    45    1
     5    49    51    1
     6    49    50    1
     7    32    30   ar
     8    31    30   ar
     9    30    29    1
    10    66    64    1
    11    29    26    1
    12   108   107    2
    13    44    43    2
    14    64    65    1
    15    64    61    1
    16    27    28    2
    17    27    26    1
    18   101    99   am
    19    60    61    1
    20   109   107   am
    21    26    25    1
    22   107   106    1
    23    43    42    1
    24    61    62    1
    25    99   100    2
    26    99    98    1
    27    25    16   am
    28   106   103    1
    29    67    62   am
    30    67    68    1
    31    42    41    1
    32    74    73    2
    33    62    63    2
    34    58    57    2
    35   102   103    1
    36    59    57   am
    37    98    97    1
    38    93    94    1
    39   103   104    1
    40    94    97    1
    41    94    95    1
    42    71    68    1
    43    71    72    1
    44    16    17    2
    45    16    15    1
    46    57    56    1
    47    68    69    1
    48    73    72    1
    49    73    75   am
    50    95    96    2
    51    54    55    2
    52    54    53    1
    53    15    18    1
    54    15    14    1
    55   104   105    2
    56    83    81   ar
    57    56    53    1
    58    69    70    2
    59    18    19    1
    60    53    52    1
    61    82    81   ar
    62    14    12   am
    63    81    80    1
    64    13    12    2
    65    12    11    1
    66    21    19   ar
    67    21    23   ar
    68    19    20   ar
    69    76    77    1
    70    36    35    2
    71    80    77    1
    72    11    10    1
    73    23    24   ar
    74    35    34    1
    75    77    78    1
    76    20    22   ar
    77    38    40    1
    78    38    39    1
    79    38    37    1
    80    92    90   ar
    81     9     8    1
    82    24    22   ar
    83    34    37    1
    84    34    33    1
    85     8     7    1
    86    90    91   ar
    87    90    89    1
    88    78    79    2
    89    89    88    1
    90     7     6    1
    91     6     5    1
    92    88    85    1
    93     4     3    2
    94    86    87    2
    95    86    85    1
    96     3     2    1
    97     5     2    1
    98    85    84    1
    99     2     1    1
