@<TRIPOS>MOLECULE
tmp/6br1D01.pdb
 145 134 0 0 0
SMALL
GASTEIGER

@<TRIPOS>ATOM
      1  N         11.0190   -4.0510   30.3450 N.3   236  VAL236     -0.1245
      2  CA        12.0580   -4.2360   29.3370 C.3   236  VAL236      0.1561
      3  C         12.8870   -5.4890   29.5820 C.2   236  VAL236      0.2260
      4  O         13.5810   -5.9480   28.6680 O.2   236  VAL236     -0.2867
      5  CB        12.9720   -2.9980   29.2500 C.3   236  VAL236      0.0252
      6  CG1       12.1540   -1.7500   28.9560 C.3   236  VAL236      0.0019
      7  CG2       13.7710   -2.8280   30.5280 C.3   236  VAL236      0.0019
      8  N         11.4280  -10.3290   28.6260 N.3   239  CYS239     -0.1221
      9  CA        11.8990  -11.3840   27.7380 C.3   239  CYS239      0.1808
     10  C         13.2240  -11.9910   28.1820 C.2   239  CYS239      0.2601
     11  O         13.6000  -13.0520   27.6720 O.2   239  CYS239     -0.2717
     12  CB        12.0040  -10.8440   26.3150 C.3   239  CYS239      0.0970
     13  SG        10.3980  -10.3220   25.6700 S.3   239  CYS239     -0.0800
     14  N         13.9360  -11.3590   29.1150 N.am  240  LEU240     -0.1979
     15  CA        15.1140  -11.9960   29.6930 C.3   240  LEU240      0.1596
     16  C         14.7330  -12.9930   30.7810 C.2   240  LEU240      0.2287
     17  O         15.3820  -14.0360   30.9210 O.2   240  LEU240     -0.2864
     18  CB        16.0610  -10.9360   30.2680 C.3   240  LEU240      0.0297
     19  CG        16.5240   -9.8050   29.3470 C.3   240  LEU240      0.0022
     20  CD1       17.2060   -8.7020   30.1450 C.3   240  LEU240      0.0001
     21  CD2       17.4610  -10.3430   28.2750 C.3   240  LEU240      0.0001
     22  N         10.5750  -16.1540   21.7330 N.3   246  LEU246     -0.1245
     23  CA        11.9410  -15.7200   21.4790 C.3   246  LEU246      0.1561
     24  C         12.7860  -15.9180   22.7330 C.2   246  LEU246      0.2260
     25  O         12.3650  -15.5620   23.8400 O.2   246  LEU246     -0.2867
     26  CB        11.9930  -14.2640   21.0050 C.3   246  LEU246      0.0270
     27  CG        11.2190  -13.1590   21.7130 C.3   246  LEU246      0.0019
     28  CD1       11.8690  -12.8000   23.0430 C.3   246  LEU246      0.0001
     29  CD2       11.1180  -11.9400   20.8010 C.3   246  LEU246      0.0001
     30  N         15.2340  -14.4980   24.2200 N.3   248  ALA248     -0.1231
     31  CA        15.9990  -13.2630   24.2080 C.3   248  ALA248      0.1694
     32  C         17.0510  -13.2410   25.3070 C.2   248  ALA248      0.2592
     33  O         16.8870  -13.8210   26.3850 O.2   248  ALA248     -0.2718
     34  CB        15.0780  -12.0550   24.3690 C.3   248  ALA248      0.0304
     35  N         18.1440  -12.5460   25.0070 N.am  249  ASP249     -0.1974
     36  CA        19.2080  -12.2470   25.9470 C.3   249  ASP249      0.1709
     37  C         19.7700  -10.8800   25.5830 C.2   249  ASP249      0.2293
     38  O         19.3320  -10.2450   24.6200 O.2   249  ASP249     -0.2864
     39  CB        20.2770  -13.3410   25.9230 C.3   249  ASP249      0.1436
     40  CG        20.7850  -13.6180   24.5270 C.2   249  ASP249      0.3671
     41  OD1       21.2490  -12.6650   23.8620 O.co2 249  ASP249     -0.2456
     42  OD2       20.7050  -14.7860   24.0930 O.co2 249  ASP249     -0.2456
     43  N         21.3430  -10.7100   21.8820 N.3   252  LYS252     -0.1231
     44  CA        20.3310  -10.6840   20.8300 C.3   252  LYS252      0.1693
     45  C         19.5800   -9.3590   20.8130 C.2   252  LYS252      0.2591
     46  O         19.2170   -8.8600   19.7410 O.2   252  LYS252     -0.2718
     47  CB        19.3520  -11.8480   20.9830 C.3   252  LYS252      0.0285
     48  CG        19.9020  -13.1830   20.5470 C.3   252  LYS252      0.0035
     49  CD        18.7790  -14.1770   20.2980 C.3   252  LYS252      0.0206
     50  CE        19.0430  -15.5120   20.9680 C.3   252  LYS252      0.1093
     51  NZ        18.0010  -16.5110   20.6000 N.3   252  LYS252     -0.1314
     52  N         19.3110   -8.7870   21.9890 N.am  253  LEU253     -0.1980
     53  CA        18.6920   -7.4660   22.0310 C.3   253  LEU253      0.1596
     54  C         19.5800   -6.4320   21.3550 C.2   253  LEU253      0.2287
     55  O         19.1010   -5.6100   20.5650 O.2   253  LEU253     -0.2864
     56  CB        18.4080   -7.0570   23.4760 C.3   253  LEU253      0.0297
     57  CG        17.7930   -5.6650   23.6720 C.3   253  LEU253      0.0022
     58  CD1       16.3570   -5.6150   23.1570 C.3   253  LEU253      0.0001
     59  CD2       17.8660   -5.2350   25.1320 C.3   253  LEU253      0.0001
     60  N         19.8740   -6.8180   17.4030 N.3   256  ASN256     -0.1225
     61  CA        18.6810   -6.4410   16.6600 C.3   256  ASN256      0.1785
     62  C         18.2700   -4.9900   16.8580 C.2   256  ASN256      0.2597
     63  O         17.6120   -4.4230   15.9780 O.2   256  ASN256     -0.2718
     64  CB        17.5230   -7.3680   17.0410 C.3   256  ASN256      0.1169
     65  CG        17.6850   -8.7530   16.4530 C.2   256  ASN256      0.2627
     66  OD1       17.3680   -8.9720   15.2880 O.2   256  ASN256     -0.2716
     67  ND2       18.2040   -9.6880   17.2440 N.am  256  ASN256     -0.0877
     68  N         18.6450   -4.3700   17.9780 N.am  257  MET257     -0.1979
     69  CA        18.2320   -3.0020   18.2640 C.3   257  MET257      0.1605
     70  C         19.2460   -1.9520   17.8310 C.2   257  MET257      0.2287
     71  O         18.8740   -0.7840   17.6930 O.2   257  MET257     -0.2864
     72  CB        17.9530   -2.8290   19.7630 C.3   257  MET257      0.0413
     73  CG        16.7340   -3.5810   20.2640 C.3   257  MET257      0.0598
     74  SD        15.2170   -3.0070   19.4900 S.3   257  MET257     -0.1393
     75  CE        15.0570   -1.3510   20.1520 C.3   257  MET257      0.0692
     76  N         14.7040    1.0940   15.2170 N.3   302  THR302     -0.1203
     77  CA        14.1970   -0.2030   15.6390 C.3   302  THR302      0.1994
     78  C         13.2560   -0.0150   16.8190 C.2   302  THR302      0.2618
     79  O         13.3210    0.9850   17.5390 O.2   302  THR302     -0.2717
     80  CB        15.3300   -1.1550   16.0250 C.3   302  THR302      0.1784
     81  OG1       16.1000   -0.5640   17.0790 O.3   302  THR302     -0.2211
     82  CG2       16.2270   -1.4290   14.8230 C.3   302  THR302      0.0376
     83  N         12.3850   -1.0000   17.0150 N.am  303  VAL303     -0.1965
     84  CA        11.4290   -0.9760   18.1150 C.3   303  VAL303      0.1727
     85  C         11.2280   -2.3960   18.6240 C.2   303  VAL303      0.2616
     86  O         11.1020   -3.3420   17.8410 O.2   303  VAL303     -0.2715
     87  CB        10.0880   -0.3430   17.6890 C.3   303  VAL303      0.0290
     88  CG1        9.0440   -0.5340   18.7830 C.3   303  VAL303      0.0023
     89  CG2       10.2770    1.1370   17.3890 C.3   303  VAL303      0.0023
     90  N         11.2270   -2.5420   19.9450 N.am  304  ALA304     -0.1963
     91  CA        10.8280   -3.7750   20.6070 C.3   304  ALA304      0.1728
     92  C          9.6540   -3.4640   21.5230 C.2   304  ALA304      0.2616
     93  O          9.7200   -2.5260   22.3230 O.2   304  ALA304     -0.2715
     94  CB        11.9880   -4.3840   21.3960 C.3   304  ALA304      0.0334
     95  N          8.5790   -4.2360   21.3990 N.am  305  ALA305     -0.1963
     96  CA         7.3680   -4.0340   22.1820 C.3   305  ALA305      0.1728
     97  C          7.0380   -5.3080   22.9440 C.2   305  ALA305      0.2616
     98  O          7.1490   -6.4100   22.4000 O.2   305  ALA305     -0.2715
     99  CB         6.1850   -3.6370   21.2900 C.3   305  ALA305      0.0334
    100  N          6.6410   -5.1540   24.2050 N.am  306  ILE306     -0.1977
    101  CA         6.2820   -6.2780   25.0630 C.3   306  ILE306      0.1596
    102  C          4.8650   -6.0510   25.5690 C.2   306  ILE306      0.2287
    103  O          4.5820   -5.0250   26.2020 O.2   306  ILE306     -0.2864
    104  CB         7.2500   -6.4350   26.2470 C.3   306  ILE306      0.0276
    105  CG1        8.6980   -6.5340   25.7620 C.3   306  ILE306      0.0022
    106  CG2        6.8740   -7.6510   27.0870 C.3   306  ILE306      0.0022
    107  CD1        9.4410   -5.2110   25.7970 C.3   306  ILE306      0.0001
    108  N         11.0460   -4.4850    8.4700 N.3   337  ASN337     -0.1225
    109  CA        10.5160   -5.2460    9.5980 C.3   337  ASN337      0.1785
    110  C         11.2790   -4.9260   10.8820 C.2   337  ASN337      0.2597
    111  O         11.7720   -5.8120   11.5830 O.2   337  ASN337     -0.2718
    112  CB        10.5560   -6.7450    9.2970 C.3   337  ASN337      0.1169
    113  CG        10.0140   -7.0740    7.9130 C.2   337  ASN337      0.2627
    114  OD1        8.8160   -6.9400    7.6550 O.2   337  ASN337     -0.2716
    115  ND2       10.8940   -7.5040    7.0160 N.am  337  ASN337     -0.0877
    116  N         11.3960   -3.6350   11.1790 N.am  338  ASN338     -0.1974
    117  CA        12.2090   -3.1850   12.2990 C.3   338  ASN338      0.1688
    118  C         11.4230   -3.0410   13.6000 C.2   338  ASN338      0.2292
    119  O         11.9400   -2.4540   14.5560 O.2   338  ASN338     -0.2864
    120  CB        12.9110   -1.8700   11.9440 C.3   338  ASN338      0.1181
    121  CG        11.9420   -0.7880   11.5260 C.2   338  ASN338      0.2629
    122  OD1       10.7650   -1.0590   11.3130 O.2   338  ASN338     -0.2716
    123  ND2       12.4320    0.4470   11.4030 N.am  338  ASN338     -0.0877
    124  N          9.5690   -5.4820   16.3960 N.3   340  LYS340     -0.1245
    125  CA         9.3000   -6.8340   16.8690 C.3   340  LYS340      0.1561
    126  C          8.4670   -6.7830   18.1430 C.2   340  LYS340      0.2260
    127  O          8.6090   -5.8750   18.9690 O.2   340  LYS340     -0.2867
    128  CB        10.5910   -7.6200   17.1290 C.3   340  LYS340      0.0271
    129  CG        11.4720   -7.8260   15.9070 C.3   340  LYS340      0.0035
    130  CD        10.7730   -8.6200   14.8150 C.3   340  LYS340      0.0206
    131  CE        11.7440   -8.9340   13.6780 C.3   340  LYS340      0.1093
    132  NZ        11.0700   -9.4740   12.4660 N.3   340  LYS340     -0.1314
    133  N          6.7390   -9.0540   21.4870 N.3   342  ALA342     -0.1245
    134  CA         6.6940  -10.2400   22.3250 C.3   342  ALA342      0.1562
    135  C          5.5110  -10.1100   23.2690 C.2   342  ALA342      0.2260
    136  O          5.1200   -9.0030   23.6480 O.2   342  ALA342     -0.2867
    137  CB         7.9940  -10.4370   23.1200 C.3   342  ALA342      0.0290
    138  N         10.3690   -0.2920   23.7630 N.3   358  ILE358     -0.1245
    139  CA        11.8000   -0.0250   23.6590 C.3   358  ILE358      0.1561
    140  C         12.0550    0.5060   22.2570 C.2   358  ILE358      0.2260
    141  O         11.9550   -0.2410   21.2750 O.2   358  ILE358     -0.2867
    142  CB        12.6480   -1.2740   23.9270 C.3   358  ILE358      0.0252
    143  CG1       12.3020   -1.8900   25.2840 C.3   358  ILE358      0.0019
    144  CG2       14.1330   -0.9390   23.8330 C.3   358  ILE358      0.0019
    145  CD1       13.0400   -3.1910   25.5610 C.3   358  ILE358      0.0001
@<TRIPOS>BOND
     1   115   113   am
     2   114   113    2
     3   113   112    1
     4   108   109    1
     5   112   109    1
     6   109   110    1
     7   110   116   am
     8   110   111    2
     9   116   117    1
    10   122   121    2
    11   123   121   am
    12   121   120    1
    13   120   117    1
    14   117   118    1
    15   132   131    1
    16   118   119    2
    17   131   130    1
    18   130   129    1
    19    82    80    1
    20    76    77    1
    21    66    65    2
    22    77    80    1
    23    77    78    1
    24   129   128    1
    25    63    62    2
    26    80    81    1
    27   124   125    1
    28    65    64    1
    29    65    67   am
    30    61    62    1
    31    61    64    1
    32    61    60    1
    33    78    83   am
    34    78    79    2
    35    62    68   am
    36   125   128    1
    37   125   126    1
    38    83    84    1
    39    89    87    1
    40    87    84    1
    41    87    88    1
    42    71    70    2
    43    70    69    1
    44    86    85    2
    45    68    69    1
    46    84    85    1
    47   126   127    2
    48    69    72    1
    49    85    90   am
    50    74    75    1
    51    74    73    1
    52    46    45    2
    53    72    73    1
    54    90    91    1
    55    49    48    1
    56    49    50    1
    57    48    47    1
    58    55    54    2
    59    51    50    1
    60    91    94    1
    61    91    92    1
    62    29    27    1
    63    45    44    1
    64    45    52   am
    65    44    47    1
    66    44    43    1
    67    26    23    1
    68    26    27    1
    69   141   140    2
    70    99    96    1
    71    54    53    1
    72    95    92   am
    73    95    96    1
    74    23    22    1
    75    23    24    1
    76   133   134    1
    77    92    93    2
    78    27    28    1
    79    52    53    1
    80    53    56    1
    81    96    97    1
    82   140   139    1
    83   134   137    1
    84   134   135    1
    85    98    97    2
    86    24    25    2
    87    97   100   am
    88    58    57    1
    89   135   136    2
    90    56    57    1
    91   139   138    1
    92   139   142    1
    93    57    59    1
    94   144   142    1
    95    41    40   ar
    96   142   143    1
    97    42    40   ar
    98   100   101    1
    99    31    30    1
   100    31    34    1
   101    31    32    1
   102    40    39    1
   103    38    37    2
   104    35    32   am
   105    35    36    1
   106   101   102    1
   107   101   104    1
   108   143   145    1
   109    32    33    2
   110   102   103    2
   111    37    36    1
   112    13    12    1
   113   105   107    1
   114   105   104    1
   115    39    36    1
   116   104   106    1
   117    12     9    1
   118    11    10    2
   119     9    10    1
   120     9     8    1
   121    10    14   am
   122    21    19    1
   123     4     3    2
   124     6     5    1
   125    14    15    1
   126     5     2    1
   127     5     7    1
   128     2     3    1
   129     2     1    1
   130    19    20    1
   131    19    18    1
   132    15    18    1
   133    15    16    1
   134    16    17    2
