@<TRIPOS>MOLECULE
tmp/6br2A01.pdb
 199 192 0 0 0
SMALL
GASTEIGER

@<TRIPOS>ATOM
      1  N        -23.0860  -23.5990    0.9500 N.3    21  CYS21      -0.1221
      2  CA       -21.9120  -23.9190    0.1170 C.3    21  CYS21       0.1808
      3  C        -20.5370  -23.6280    0.7500 C.2    21  CYS21       0.2601
      4  O        -19.5050  -23.9520    0.1440 O.2    21  CYS21      -0.2717
      5  CB       -22.0250  -23.2730   -1.2680 C.3    21  CYS21       0.0970
      6  SG       -22.1040  -21.4770   -1.2190 S.3    21  CYS21      -0.0800
      7  N        -20.5370  -23.0390    1.9550 N.am   22  GLN22      -0.1965
      8  CA       -19.3270  -22.7420    2.7690 C.3    22  GLN22       0.1733
      9  C        -18.3560  -21.7360    2.1390 C.2    22  GLN22       0.2616
     10  O        -18.0050  -20.7440    2.7700 O.2    22  GLN22      -0.2715
     11  CB       -18.5860  -24.0250    3.2160 C.3    22  GLN22       0.0408
     12  CG       -17.4270  -23.7980    4.1910 C.3    22  GLN22       0.0908
     13  CD       -16.6880  -25.0710    4.5860 C.2    22  GLN22       0.2608
     14  OE1      -16.7200  -26.0790    3.8740 O.2    22  GLN22      -0.2717
     15  NE2      -16.0040  -25.0230    5.7290 N.am   22  GLN22      -0.0878
     16  N        -17.9120  -22.0100    0.9170 N.am   23  LEU23      -0.1977
     17  CA       -17.0580  -21.0990    0.1650 C.3    23  LEU23       0.1596
     18  C        -17.7460  -20.7080   -1.1510 C.2    23  LEU23       0.2287
     19  O        -18.1290  -21.5770   -1.9450 O.2    23  LEU23      -0.2864
     20  CB       -15.6840  -21.7370   -0.0830 C.3    23  LEU23       0.0297
     21  CG       -14.9280  -22.3630    1.1020 C.3    23  LEU23       0.0022
     22  CD1      -13.7780  -23.2350    0.6110 C.3    23  LEU23       0.0001
     23  CD2      -14.4350  -21.3280    2.1100 C.3    23  LEU23       0.0001
     24  N         -6.1750  -30.7280    8.3140 N.3    56  CYS56      -0.1235
     25  CA        -7.0380  -31.2860    7.2720 C.3    56  CYS56       0.1677
     26  C         -8.3760  -31.7760    7.7950 C.2    56  CYS56       0.2270
     27  O         -9.4240  -31.4430    7.2220 O.2    56  CYS56      -0.2867
     28  CB        -6.3280  -32.3960    6.5190 C.3    56  CYS56       0.0956
     29  SG        -5.1740  -31.7240    5.3210 S.3    56  CYS56      -0.0801
     30  N        -10.8900  -28.8720    8.7920 N.3    59  HIS59      -0.1226
     31  CA       -11.5940  -28.2350    7.6750 C.3    59  HIS59       0.1752
     32  C        -12.5840  -29.1620    7.0070 C.2    59  HIS59       0.2595
     33  O        -13.6500  -28.7220    6.5920 O.2    59  HIS59      -0.2718
     34  CB       -10.6150  -27.7090    6.6210 C.3    59  HIS59       0.0759
     35  CG        -9.4690  -26.9260    7.1820 C.ar   59  HIS59       0.0818
     36  ND1       -9.6080  -26.0370    8.2260 N.ar   59  HIS59      -0.2268
     37  CD2       -8.1660  -26.8810    6.8200 C.ar   59  HIS59       0.1154
     38  CE1       -8.4340  -25.4990    8.5010 C.ar   59  HIS59       0.1986
     39  NE2       -7.5440  -25.9930    7.6610 N.ar   59  HIS59      -0.2212
     40  N        -12.2140  -30.4350    6.9050 N.am   60  LEU60      -0.1980
     41  CA       -13.0690  -31.4580    6.3240 C.3    60  LEU60       0.1596
     42  C        -14.3030  -31.7720    7.1690 C.2    60  LEU60       0.2287
     43  O        -15.3920  -31.9320    6.6160 O.2    60  LEU60      -0.2864
     44  CB       -12.2610  -32.7230    6.0320 C.3    60  LEU60       0.0297
     45  CG       -11.7180  -33.0100    4.6160 C.3    60  LEU60       0.0022
     46  CD1      -11.6100  -31.8010    3.6810 C.3    60  LEU60       0.0001
     47  CD2      -10.3870  -33.7530    4.7220 C.3    60  LEU60       0.0001
     48  N        -15.5760  -29.6310    9.3680 N.3    62  GLU62      -0.1231
     49  CA       -16.2680  -28.3730    9.1550 C.3    62  GLU62       0.1699
     50  C        -17.0950  -28.4270    7.8730 C.2    62  GLU62       0.2592
     51  O        -18.2440  -28.0070    7.8760 O.2    62  GLU62      -0.2718
     52  CB       -15.2600  -27.2420    9.0960 C.3    62  GLU62       0.0402
     53  CG       -15.8150  -25.8670    9.3930 C.3    62  GLU62       0.1161
     54  CD       -14.7240  -24.8160    9.3890 C.2    62  GLU62       0.3649
     55  OE1      -14.7450  -23.9390   10.2800 O.co2  62  GLU62      -0.2457
     56  OE2      -13.8320  -24.8740    8.5060 O.co2  62  GLU62      -0.2457
     57  N        -16.5200  -28.9840    6.8050 N.am   63  ALA63      -0.1980
     58  CA       -17.2120  -29.1510    5.5190 C.3    63  ALA63       0.1597
     59  C        -18.4130  -30.0830    5.6360 C.2    63  ALA63       0.2287
     60  O        -19.4840  -29.7870    5.0920 O.2    63  ALA63      -0.2864
     61  CB       -16.2550  -29.6440    4.4410 C.3    63  ALA63       0.0319
     62  N        -18.6350  -33.8780   -0.0220 N.3    97  VAL97      -0.1231
     63  CA       -17.4810  -33.0040    0.2040 C.3    97  VAL97       0.1692
     64  C        -16.5020  -33.1100   -0.9730 C.2    97  VAL97       0.2591
     65  O        -16.0510  -32.0840   -1.4960 O.2    97  VAL97      -0.2718
     66  CB       -16.8000  -33.2910    1.5750 C.3    97  VAL97       0.0266
     67  CG1      -15.4270  -32.6380    1.6820 C.3    97  VAL97       0.0020
     68  CG2      -17.6620  -32.7900    2.7200 C.3    97  VAL97       0.0020
     69  N        -16.2190  -34.3440   -1.3990 N.am   98  LEU98      -0.1980
     70  CA       -15.2880  -34.6120   -2.5040 C.3    98  LEU98       0.1596
     71  C        -15.7040  -33.9780   -3.8350 C.2    98  LEU98       0.2287
     72  O        -14.8580  -33.4270   -4.5490 O.2    98  LEU98      -0.2864
     73  CB       -15.0370  -36.1190   -2.6530 C.3    98  LEU98       0.0297
     74  CG       -13.7750  -36.7690   -2.0390 C.3    98  LEU98       0.0022
     75  CD1      -13.1160  -36.0000   -0.8850 C.3    98  LEU98       0.0001
     76  CD2      -14.0740  -38.2150   -1.6370 C.3    98  LEU98       0.0001
     77  N        -18.0490  -31.3150   -4.0660 N.3   100  ARG100     -0.1231
     78  CA       -17.9770  -29.8830   -3.7230 C.3   100  ARG100      0.1694
     79  C        -16.5700  -29.2690   -3.7990 C.2   100  ARG100      0.2591
     80  O        -16.4160  -28.0590   -4.0270 O.2   100  ARG100     -0.2718
     81  CB       -18.5130  -29.6670   -2.3140 C.3   100  ARG100      0.0321
     82  CG       -20.0150  -29.6800   -2.1900 C.3   100  ARG100      0.0489
     83  CD       -20.3990  -29.4310   -0.7400 C.3   100  ARG100      0.2205
     84  NE       -21.8290  -29.1740   -0.6070 N.pl3 100  ARG100     -0.0865
     85  CZ       -22.3860  -28.4600    0.3660 C.cat 100  ARG100      0.5346
     86  NH1      -21.6440  -27.9150    1.3250 N.pl3 100  ARG100      0.1354
     87  NH2      -23.6990  -28.2820    0.3710 N.pl3 100  ARG100      0.1354
     88  N        -15.5620  -30.1160   -3.5920 N.am  101  MET101     -0.1979
     89  CA       -14.1620  -29.7170   -3.6100 C.3   101  MET101      0.1605
     90  C        -13.6160  -29.3280   -4.9790 C.2   101  MET101      0.2287
     91  O        -12.6220  -28.5960   -5.0590 O.2   101  MET101     -0.2864
     92  CB       -13.3040  -30.8160   -3.0090 C.3   101  MET101      0.0413
     93  CG       -12.9020  -30.5340   -1.5730 C.3   101  MET101      0.0598
     94  SD       -11.4490  -31.4650   -1.0440 S.3   101  MET101     -0.1393
     95  CE       -10.2330  -30.9880   -2.2730 C.3   101  MET101      0.0692
     96  N        -14.8460  -27.2960   -7.1020 N.3   103  ARG103     -0.1231
     97  CA       -14.9870  -25.8420   -7.2550 C.3   103  ARG103      0.1694
     98  C        -13.7460  -25.1240   -6.7530 C.2   103  ARG103      0.2591
     99  O        -13.4320  -24.0200   -7.2040 O.2   103  ARG103     -0.2718
    100  CB       -16.1820  -25.3320   -6.4580 C.3   103  ARG103      0.0321
    101  CG       -17.4450  -26.1480   -6.6330 C.3   103  ARG103      0.0489
    102  CD       -18.4430  -25.8860   -5.5250 C.3   103  ARG103      0.2205
    103  NE       -18.9010  -24.4950   -5.4590 N.pl3 103  ARG103     -0.0865
    104  CZ       -18.6590  -23.6620   -4.4480 C.cat 103  ARG103      0.5346
    105  NH1      -17.9600  -24.0640   -3.3880 N.pl3 103  ARG103      0.1354
    106  NH2      -19.1290  -22.4240   -4.4960 N.pl3 103  ARG103      0.1354
    107  N        -13.0590  -25.7600   -5.8070 N.am  104  ALA104     -0.1980
    108  CA       -11.8920  -25.1870   -5.1690 C.3   104  ALA104      0.1597
    109  C        -10.6050  -25.6050   -5.8940 C.2   104  ALA104      0.2287
    110  O         -9.4930  -25.3390   -5.4040 O.2   104  ALA104     -0.2864
    111  CB       -11.8580  -25.5790   -3.6950 C.3   104  ALA104      0.0319
    112  N         -5.1420  -26.5900   -5.5580 N.3   112  VAL112     -0.1231
    113  CA        -6.3820  -26.5820   -4.7640 C.3   112  VAL112      0.1692
    114  C         -6.3790  -25.4830   -3.6950 C.2   112  VAL112      0.2592
    115  O         -5.3270  -25.1310   -3.1640 O.2   112  VAL112     -0.2718
    116  CB        -6.6760  -27.9850   -4.1480 C.3   112  VAL112      0.0266
    117  CG1       -5.7520  -28.3150   -2.9700 C.3   112  VAL112      0.0020
    118  CG2       -8.1450  -28.1240   -3.7690 C.3   112  VAL112      0.0020
    119  N         -7.5550  -24.9380   -3.3960 N.am  113  PHE113     -0.1962
    120  CA        -7.6830  -23.9830   -2.3010 C.3   113  PHE113      0.1771
    121  C         -7.5330  -24.6680   -0.9420 C.2   113  PHE113      0.2620
    122  O         -8.2970  -25.5830   -0.5940 O.2   113  PHE113     -0.2715
    123  CB        -9.0010  -23.2010   -2.3740 C.3   113  PHE113      0.0574
    124  CG        -9.1700  -22.2130   -1.2560 C.ar  113  PHE113     -0.0200
    125  CD1       -8.5320  -20.9740   -1.3050 C.ar  113  PHE113     -0.0042
    126  CD2       -9.9410  -22.5300   -0.1360 C.ar  113  PHE113     -0.0042
    127  CE1       -8.6700  -20.0650   -0.2660 C.ar  113  PHE113     -0.0003
    128  CE2      -10.0760  -21.6250    0.9080 C.ar  113  PHE113     -0.0003
    129  CZ        -9.4380  -20.3920    0.8430 C.ar  113  PHE113     -0.0000
    130  N         -6.5380  -24.2070   -0.1880 N.am  114  PHE114     -0.1960
    131  CA        -6.2360  -24.7360    1.1350 C.3   114  PHE114      0.1771
    132  C         -5.7010  -23.6210    2.0000 C.2   114  PHE114      0.2619
    133  O         -4.6920  -23.0020    1.6660 O.2   114  PHE114     -0.2715
    134  CB        -5.2180  -25.8820    1.0480 C.3   114  PHE114      0.0574
    135  CG        -4.8260  -26.4590    2.3820 C.ar  114  PHE114     -0.0200
    136  CD1       -5.7440  -27.1830    3.1540 C.ar  114  PHE114     -0.0042
    137  CD2       -3.5300  -26.3030    2.8640 C.ar  114  PHE114     -0.0042
    138  CE1       -5.3780  -27.7260    4.3860 C.ar  114  PHE114     -0.0003
    139  CE2       -3.1590  -26.8460    4.0940 C.ar  114  PHE114     -0.0003
    140  CZ        -4.0840  -27.5550    4.8560 C.ar  114  PHE114     -0.0000
    141  N         -6.4010  -23.3690    3.1040 N.am  115  GLU115     -0.1963
    142  CA        -6.0140  -22.3750    4.1150 C.3   115  GLU115      0.1733
    143  C         -5.5460  -21.0520    3.4910 C.2   115  GLU115      0.2616
    144  O         -4.3680  -20.6920    3.5870 O.2   115  GLU115     -0.2715
    145  CB        -4.9690  -22.9630    5.0770 C.3   115  GLU115      0.0429
    146  CG        -5.4590  -24.1910    5.8320 C.3   115  GLU115      0.1163
    147  CD        -4.4990  -24.6820    6.9080 C.2   115  GLU115      0.3649
    148  OE1       -3.2740  -24.4720    6.7810 O.co2 115  GLU115     -0.2457
    149  OE2       -4.9650  -25.2970    7.8920 O.co2 115  GLU115     -0.2457
    150  N         -6.4690  -20.3730    2.8100 N.am  116  GLY116     -0.1955
    151  CA        -6.2160  -19.0380    2.2940 C.3   116  GLY116      0.1869
    152  C         -5.6940  -18.9120    0.8720 C.2   116  GLY116      0.2309
    153  O         -6.0910  -17.9900    0.1550 O.2   116  GLY116     -0.2863
    154  N          0.9470  -31.4390    0.4830 N.3   124  PHE124     -0.1241
    155  CA         0.5160  -32.4230    1.4840 C.3   124  PHE124      0.1605
    156  C          1.5000  -33.5960    1.6230 C.2   124  PHE124      0.2264
    157  O          1.1060  -34.7160    2.0150 O.2   124  PHE124     -0.2867
    158  CB        -0.8930  -32.9340    1.1600 C.3   124  PHE124      0.0534
    159  CG        -1.8900  -31.8490    0.8810 C.ar  124  PHE124     -0.0203
    160  CD1       -2.1560  -31.4440   -0.4390 C.ar  124  PHE124     -0.0042
    161  CD2       -2.5830  -31.2300    1.9260 C.ar  124  PHE124     -0.0042
    162  CE1       -3.0860  -30.4370   -0.7050 C.ar  124  PHE124     -0.0003
    163  CE2       -3.5170  -30.2260    1.6640 C.ar  124  PHE124     -0.0003
    164  CZ        -3.7670  -29.8310    0.3500 C.ar  124  PHE124     -0.0000
    165  N          1.8880  -35.8870    4.9620 N.3   127  LEU127     -0.1245
    166  CA         0.9400  -36.9870    5.1880 C.3   127  LEU127      0.1561
    167  C          1.4600  -38.3720    4.7720 C.2   127  LEU127      0.2260
    168  O          1.0730  -39.3860    5.3660 O.2   127  LEU127     -0.2867
    169  CB        -0.3960  -36.7020    4.4890 C.3   127  LEU127      0.0270
    170  CG        -1.2190  -35.5110    4.9860 C.3   127  LEU127      0.0019
    171  CD1       -2.2410  -35.0830    3.9530 C.3   127  LEU127      0.0001
    172  CD2       -1.9170  -35.8040    6.3000 C.3   127  LEU127      0.0001
    173  N         -3.8870  -38.7950   -2.4440 N.3   133  ILE133     -0.1245
    174  CA        -3.9680  -37.3800   -2.7910 C.3   133  ILE133      0.1561
    175  C         -4.0240  -37.1970   -4.3180 C.2   133  ILE133      0.2260
    176  O         -4.8590  -36.4310   -4.8090 O.2   133  ILE133     -0.2867
    177  CB        -2.8630  -36.5700   -2.0720 C.3   133  ILE133      0.0252
    178  CG1       -3.2480  -36.4070   -0.5960 C.3   133  ILE133      0.0019
    179  CG2       -2.6560  -35.1970   -2.7030 C.3   133  ILE133      0.0019
    180  CD1       -2.0920  -36.4950    0.3730 C.3   133  ILE133      0.0001
    181  N         -7.4370  -38.0090   -5.5620 N.3   136  ILE136     -0.1231
    182  CA        -8.3340  -36.8980   -5.2020 C.3   136  ILE136      0.1692
    183  C         -8.1820  -35.7330   -6.1970 C.2   136  ILE136      0.2592
    184  O         -9.1800  -35.1420   -6.6340 O.2   136  ILE136     -0.2718
    185  CB        -8.1540  -36.4660   -3.7160 C.3   136  ILE136      0.0266
    186  CG1       -8.7670  -37.5310   -2.7940 C.3   136  ILE136      0.0019
    187  CG2       -8.7890  -35.1020   -3.4340 C.3   136  ILE136      0.0020
    188  CD1       -8.3460  -37.4620   -1.3410 C.3   136  ILE136      0.0001
    189  N         -6.9370  -35.4360   -6.5640 N.am  137  PHE137     -0.1976
    190  CA        -6.6360  -34.4080   -7.5550 C.3   137  PHE137      0.1639
    191  C         -7.1180  -34.8090   -8.9580 C.2   137  PHE137      0.2290
    192  O         -7.6290  -33.9610   -9.7080 O.2   137  PHE137     -0.2864
    193  CB        -5.1360  -34.1020   -7.5490 C.3   137  PHE137      0.0560
    194  CG        -4.7250  -33.0350   -6.5620 C.ar  137  PHE137     -0.0200
    195  CD1       -4.7030  -33.2870   -5.1900 C.ar  137  PHE137     -0.0042
    196  CD2       -4.3280  -31.7820   -7.0080 C.ar  137  PHE137     -0.0042
    197  CE1       -4.3180  -32.3040   -4.2850 C.ar  137  PHE137     -0.0003
    198  CE2       -3.9310  -30.7960   -6.1100 C.ar  137  PHE137     -0.0003
    199  CZ        -3.9300  -31.0570   -4.7450 C.ar  137  PHE137     -0.0000
@<TRIPOS>BOND
     1   192   191    2
     2   191   190    1
     3   190   193    1
     4   190   189    1
     5   193   194    1
     6    97    96    1
     7    97    98    1
     8    97   100    1
     9    99    98    2
    10   196   194   ar
    11   196   198   ar
    12    98   107   am
    13   184   183    2
    14   101   100    1
    15   101   102    1
    16   189   183   am
    17   194   195   ar
    18   183   182    1
    19   198   199   ar
    20   109   110    2
    21   109   108    1
    22   107   108    1
    23   181   182    1
    24   112   113    1
    25   102   103    1
    26   103   104    2
    27   182   185    1
    28   195   197   ar
    29   108   111    1
    30    91    90    2
    31    90    89    1
    32   176   175    2
    33   113   116    1
    34   113   114    1
    35   199   197   ar
    36    72    71    2
    37   106   104    1
    38   104   105    1
    39   175   174    1
    40   116   118    1
    41   116   117    1
    42    77    78    1
    43    80    79    2
    44    71    70    1
    45    79    78    1
    46    79    88   am
    47    78    81    1
    48   185   187    1
    49   185   186    1
    50   114   119   am
    51   114   115    2
    52    89    88    1
    53    89    92    1
    54   119   120    1
    55    92    93    1
    56   186   188    1
    57   174   173    1
    58   174   177    1
    59   179   177    1
    60    73    70    1
    61    73    74    1
    62    70    69    1
    63   123   120    1
    64   123   124    1
    65    81    82    1
    66   120   121    1
    67    95    94    1
    68    82    83    1
    69   177   178    1
    70    74    76    1
    71    74    75    1
    72    19    18    2
    73    93    94    1
    74    65    64    2
    75    69    64   am
    76   125   124   ar
    77   125   127   ar
    78     5     6    1
    79     5     2    1
    80   124   126   ar
    81    18    17    1
    82    64    63    1
    83   121   122    2
    84   121   130   am
    85    83    84    1
    86   162   160   ar
    87   162   164   ar
    88    84    85    2
    89   178   180    1
    90   160   159   ar
    91   127   129   ar
    92   130   131    1
    93   126   128   ar
    94    20    17    1
    95    20    21    1
    96    62    63    1
    97     2     3    1
    98     2     1    1
    99     4     3    2
   100   153   152    2
   101    17    16    1
   102    63    66    1
   103   164   163   ar
   104    85    87    1
   105    85    86    1
   106   154   155    1
   107    22    21    1
   108     3     7   am
   109   129   128   ar
   110   152   151    1
   111   159   158    1
   112   159   161   ar
   113    16     9   am
   114   134   131    1
   115   134   135    1
   116    21    23    1
   117   131   132    1
   118   158   155    1
   119   155   156    1
   120    66    67    1
   121    66    68    1
   122   156   157    2
   123   163   161   ar
   124   133   132    2
   125     7     8    1
   126   132   141   am
   127     9     8    1
   128     9    10    2
   129   151   150    1
   130   135   137   ar
   131   135   136   ar
   132     8    11    1
   133   150   143   am
   134   137   139   ar
   135   141   142    1
   136   136   138   ar
   137    11    12    1
   138   143   144    2
   139   143   142    1
   140    46    45    1
   141    14    13    2
   142   171   170    1
   143   139   140   ar
   144   142   145    1
   145    12    13    1
   146   138   140   ar
   147    61    58    1
   148   169   170    1
   149   169   166    1
   150    13    15   am
   151    45    47    1
   152    45    44    1
   153   167   166    1
   154   167   168    2
   155   165   166    1
   156   170   172    1
   157   145   146    1
   158    60    59    2
   159    29    28    1
   160    58    59    1
   161    58    57    1
   162   146   147    1
   163    44    41    1
   164    41    40    1
   165    41    42    1
   166    28    25    1
   167    33    32    2
   168    43    42    2
   169    34    35    1
   170    34    31    1
   171   148   147   ar
   172    57    50   am
   173    37    35   ar
   174    37    39   ar
   175    40    32   am
   176   147   149   ar
   177    32    31    1
   178    35    36   ar
   179    27    26    2
   180    25    26    1
   181    25    24    1
   182    39    38   ar
   183    31    30    1
   184    50    51    2
   185    50    49    1
   186    36    38   ar
   187    56    54   ar
   188    52    49    1
   189    52    53    1
   190    49    48    1
   191    54    53    1
   192    54    55   ar
