@<TRIPOS>MOLECULE
tmp/6br3A01.pdb
 203 196 0 0 0
SMALL
GASTEIGER

@<TRIPOS>ATOM
      1  N         19.0560   88.2720    3.2810 N.3    22  GLN22      -0.1231
      2  CA        20.1290   87.5670    4.0130 C.3    22  GLN22       0.1698
      3  C         21.4190   87.4490    3.2120 C.2    22  GLN22       0.2592
      4  O         22.4260   88.0140    3.6100 O.2    22  GLN22      -0.2718
      5  CB        19.6830   86.1970    4.5290 C.3    22  GLN22       0.0381
      6  CG        20.7030   85.4950    5.4160 C.3    22  GLN22       0.0905
      7  CD        20.2250   84.1650    5.9620 C.2    22  GLN22       0.2608
      8  OE1       19.4460   83.4510    5.3240 O.2    22  GLN22      -0.2717
      9  NE2       20.7020   83.8170    7.1510 N.am   22  GLN22      -0.0878
     10  N         21.3900   86.7030    2.1060 N.am   23  LEU23      -0.1980
     11  CA        22.5410   86.5570    1.2130 C.3    23  LEU23       0.1596
     12  C         22.4240   87.4810    0.0020 C.2    23  LEU23       0.2287
     13  O         21.4720   87.3910   -0.7640 O.2    23  LEU23      -0.2864
     14  CB        22.6920   85.1070    0.7560 C.3    23  LEU23       0.0297
     15  CG        22.6440   84.0700    1.8690 C.3    23  LEU23       0.0022
     16  CD1       22.6940   82.6540    1.3120 C.3    23  LEU23       0.0001
     17  CD2       23.7540   84.3120    2.8720 C.3    23  LEU23       0.0001
     18  N         21.7630   72.5290    9.7610 N.3    56  CYS56      -0.1235
     19  CA        20.7440   72.8120    8.7550 C.3    56  CYS56       0.1677
     20  C         19.5080   73.4640    9.3690 C.2    56  CYS56       0.2270
     21  O         19.0200   74.4730    8.8410 O.2    56  CYS56      -0.2867
     22  CB        20.3590   71.5390    8.0190 C.3    56  CYS56       0.0956
     23  SG        21.6800   70.9380    6.9450 S.3    56  CYS56      -0.0801
     24  N         20.4290   77.1130   10.2890 N.3    59  HIS59      -0.1226
     25  CA        20.5800   78.0120    9.1440 C.3    59  HIS59       0.1752
     26  C         19.2570   78.3090    8.4730 C.2    59  HIS59       0.2595
     27  O         19.0290   79.4490    8.0580 O.2    59  HIS59      -0.2718
     28  CB        21.5680   77.4520    8.1090 C.3    59  HIS59       0.0759
     29  CG        22.9500   77.2190    8.6480 C.ar   59  HIS59       0.0818
     30  ND1       23.5560   78.0680    9.5490 N.ar   59  HIS59      -0.2268
     31  CD2       23.8380   76.2270    8.4110 C.ar   59  HIS59       0.1154
     32  CE1       24.7480   77.5980    9.8560 C.ar   59  HIS59       0.1986
     33  NE2       24.9470   76.4850    9.1740 N.ar   59  HIS59      -0.2212
     34  N         18.3950   77.2960    8.3850 N.am   60  LEU60      -0.1980
     35  CA        17.0680   77.4450    7.7790 C.3    60  LEU60       0.1596
     36  C         16.0540   78.1470    8.6660 C.2    60  LEU60       0.2287
     37  O         15.1000   78.7450    8.1680 O.2    60  LEU60      -0.2864
     38  CB        16.5060   76.0810    7.3390 C.3    60  LEU60       0.0297
     39  CG        17.2500   75.4010    6.1710 C.3    60  LEU60       0.0022
     40  CD1       16.6680   74.0200    5.9300 C.3    60  LEU60       0.0001
     41  CD2       17.2550   76.2260    4.8850 C.3    60  LEU60       0.0001
     42  N         16.9960   80.6330   10.6660 N.3    62  GLU62      -0.1231
     43  CA        17.4500   81.9850   10.3800 C.3    62  GLU62       0.1699
     44  C         16.8340   82.4470    9.0640 C.2    62  GLU62       0.2592
     45  O         16.2580   83.5300    8.9760 O.2    62  GLU62      -0.2718
     46  CB        18.9690   81.9920   10.2880 C.3    62  GLU62       0.0402
     47  CG        19.6520   83.3050   10.5840 C.3    62  GLU62       0.1161
     48  CD        21.1140   83.0940   11.0110 C.2    62  GLU62       0.3649
     49  OE1       21.7070   82.0250   10.7000 O.co2  62  GLU62      -0.2457
     50  OE2       21.6810   83.9780   11.6910 O.co2  62  GLU62      -0.2457
     51  N         16.9100   81.5850    8.0540 N.am   63  ALA63      -0.1980
     52  CA        16.3310   81.8730    6.7510 C.3    63  ALA63       0.1597
     53  C         14.8450   82.2360    6.8530 C.2    63  ALA63       0.2287
     54  O         14.3850   83.1870    6.2160 O.2    63  ALA63      -0.2864
     55  CB        16.5400   80.6900    5.8160 C.3    63  ALA63       0.0319
     56  N         11.4000   80.2600    1.2900 N.3    97  VAL97      -0.1245
     57  CA        12.7870   79.8400    1.5190 C.3    97  VAL97       0.1561
     58  C         13.2490   78.9320    0.3730 C.2    97  VAL97       0.2260
     59  O         14.3480   79.0920   -0.1450 O.2    97  VAL97      -0.2867
     60  CB        12.9830   79.1570    2.9020 C.3    97  VAL97       0.0252
     61  CG1       14.4190   78.6820    3.0980 C.3    97  VAL97       0.0019
     62  CG2       12.6440   80.1120    4.0560 C.3    97  VAL97       0.0019
     63  N         13.7330   81.2010   -2.7130 N.3   100  ARG100     -0.1231
     64  CA        14.9620   81.9710   -2.4770 C.3   100  ARG100      0.1694
     65  C         16.2470   81.1650   -2.6470 C.2   100  ARG100      0.2591
     66  O         17.2980   81.7300   -2.9480 O.2   100  ARG100     -0.2718
     67  CB        14.9670   82.5580   -1.0800 C.3   100  ARG100      0.0321
     68  CG        14.0730   83.7550   -0.8940 C.3   100  ARG100      0.0489
     69  CD        14.1940   84.2380    0.5500 C.3   100  ARG100      0.2205
     70  NE        13.5110   85.5100    0.7410 N.pl3 100  ARG100     -0.0865
     71  CZ        13.8380   86.4370    1.6390 C.cat 100  ARG100      0.5346
     72  NH1       14.8380   86.2600    2.4890 N.pl3 100  ARG100      0.1354
     73  NH2       13.1370   87.5660    1.6940 N.pl3 100  ARG100      0.1354
     74  N         16.1660   79.8570   -2.4160 N.am  101  MET101     -0.1979
     75  CA        17.3340   78.9890   -2.4440 C.3   101  MET101      0.1605
     76  C         17.9610   78.8770   -3.8200 C.2   101  MET101      0.2287
     77  O         19.1740   78.6430   -3.9120 O.2   101  MET101     -0.2864
     78  CB        16.9900   77.5960   -1.9090 C.3   101  MET101      0.0413
     79  CG        18.2110   76.7270   -1.6860 C.3   101  MET101      0.0598
     80  SD        17.9400   75.3920   -0.5070 S.3   101  MET101     -0.1393
     81  CE        17.9190   76.2890    1.0310 C.3   101  MET101      0.0692
     82  N         18.8840   81.1080   -5.7680 N.3   103  ARG103     -0.1231
     83  CA        19.9650   82.0910   -5.8790 C.3   103  ARG103      0.1694
     84  C         21.2730   81.5480   -5.3540 C.2   103  ARG103      0.2591
     85  O         22.3330   82.0410   -5.7370 O.2   103  ARG103     -0.2718
     86  CB        19.6630   83.3490   -5.0770 C.3   103  ARG103      0.0321
     87  CG        18.3680   84.0250   -5.4330 C.3   103  ARG103      0.0489
     88  CD        17.8480   84.8840   -4.3020 C.3   103  ARG103      0.2205
     89  NE        18.6200   86.1180   -4.1800 N.pl3 103  ARG103     -0.0865
     90  CZ        19.4650   86.4110   -3.1980 C.cat 103  ARG103      0.5346
     91  NH1       19.6980   85.5680   -2.2020 N.pl3 103  ARG103      0.1354
     92  NH2       20.0990   87.5690   -3.2160 N.pl3 103  ARG103      0.1354
     93  N         21.2070   80.5820   -4.4410 N.am  104  ALA104     -0.1980
     94  CA        22.4000   79.9920   -3.8590 C.3   104  ALA104      0.1597
     95  C         22.8410   78.7140   -4.5900 C.2   104  ALA104      0.2287
     96  O         23.7630   78.0340   -4.1250 O.2   104  ALA104     -0.2864
     97  CB        22.1410   79.7000   -2.4000 C.3   104  ALA104      0.0319
     98  N         25.3590   74.0360   -4.1110 N.3   112  VAL112     -0.1231
     99  CA        24.5830   74.9910   -3.3370 C.3   112  VAL112      0.1692
    100  C         25.4460   75.5730   -2.2280 C.2   112  VAL112      0.2592
    101  O         26.3380   74.9020   -1.7080 O.2   112  VAL112     -0.2718
    102  CB        23.3210   74.3410   -2.7250 C.3   112  VAL112      0.0266
    103  CG1       23.6800   73.3090   -1.6530 C.3   112  VAL112      0.0020
    104  CG2       22.3770   75.4000   -2.1690 C.3   112  VAL112      0.0020
    105  N         25.1580   76.8180   -1.8620 N.am  113  PHE113     -0.1962
    106  CA        25.8960   77.5030   -0.8120 C.3   113  PHE113      0.1771
    107  C         25.4920   76.9920    0.5810 C.2   113  PHE113      0.2620
    108  O         24.2960   76.9170    0.9240 O.2   113  PHE113     -0.2715
    109  CB        25.6830   79.0140   -0.9330 C.3   113  PHE113      0.0574
    110  CG        26.4190   79.8250    0.0970 C.ar  113  PHE113     -0.0200
    111  CD1       27.7850   80.0680   -0.0340 C.ar  113  PHE113     -0.0042
    112  CD2       25.7390   80.3600    1.1830 C.ar  113  PHE113     -0.0042
    113  CE1       28.4580   80.8040    0.9180 C.ar  113  PHE113     -0.0003
    114  CE2       26.4040   81.1020    2.1340 C.ar  113  PHE113     -0.0003
    115  CZ        27.7650   81.3240    2.0070 C.ar  113  PHE113     -0.0000
    116  N         26.5120   76.6460    1.3650 N.am  114  PHE114     -0.1960
    117  CA        26.3390   76.0700    2.6880 C.3   114  PHE114      0.1771
    118  C         27.5900   76.2940    3.5210 C.2   114  PHE114      0.2619
    119  O         28.6210   75.7120    3.2400 O.2   114  PHE114     -0.2715
    120  CB        26.0520   74.5740    2.5960 C.3   114  PHE114      0.0574
    121  CG        25.8230   73.9210    3.9340 C.ar  114  PHE114     -0.0200
    122  CD1       24.6490   74.1570    4.6450 C.ar  114  PHE114     -0.0042
    123  CD2       26.7720   73.0760    4.4840 C.ar  114  PHE114     -0.0042
    124  CE1       24.4280   73.5680    5.8720 C.ar  114  PHE114     -0.0003
    125  CE2       26.5510   72.4620    5.7060 C.ar  114  PHE114     -0.0003
    126  CZ        25.3770   72.7040    6.4030 C.ar  114  PHE114     -0.0000
    127  N         27.4840   77.1560    4.5280 N.am  115  GLU115     -0.1963
    128  CA        28.5650   77.4200    5.4820 C.3   115  GLU115      0.1733
    129  C         29.8560   77.8820    4.8050 C.2   115  GLU115      0.2616
    130  O         30.9220   77.3210    5.0190 O.2   115  GLU115     -0.2715
    131  CB        28.7940   76.2000    6.3880 C.3   115  GLU115      0.0429
    132  CG        27.5270   75.7760    7.1170 C.3   115  GLU115      0.1163
    133  CD        27.7820   74.8340    8.2760 C.2   115  GLU115      0.3649
    134  OE1       28.6440   73.9340    8.1530 O.co2 115  GLU115     -0.2457
    135  OE2       27.1010   74.9840    9.3160 O.co2 115  GLU115     -0.2457
    136  N         29.7230   78.9010    3.9680 N.am  116  GLY116     -0.1955
    137  CA        30.8560   79.6220    3.4010 C.3   116  GLY116      0.1869
    138  C         31.2870   79.2030    2.0160 C.2   116  GLY116      0.2309
    139  O         31.9660   79.9740    1.3450 O.2   116  GLY116     -0.2863
    140  N         25.4210   66.4330    2.1570 N.3   124  PHE124     -0.1241
    141  CA        24.3730   66.1910    3.1650 C.3   124  PHE124      0.1605
    142  C         24.0630   64.6990    3.3130 C.2   124  PHE124      0.2264
    143  O         22.9320   64.3160    3.6880 O.2   124  PHE124     -0.2867
    144  CB        23.0970   66.9600    2.8020 C.3   124  PHE124      0.0534
    145  CG        23.3190   68.4140    2.5620 C.ar  124  PHE124     -0.0203
    146  CD1       23.2250   69.3210    3.5990 C.ar  124  PHE124     -0.0042
    147  CD2       23.6480   68.8800    1.2960 C.ar  124  PHE124     -0.0042
    148  CE1       23.4430   70.6710    3.3770 C.ar  124  PHE124     -0.0003
    149  CE2       23.8770   70.2240    1.0710 C.ar  124  PHE124     -0.0003
    150  CZ        23.7700   71.1210    2.1120 C.ar  124  PHE124     -0.0000
    151  N         22.5240   63.1070    6.6890 N.3   127  LEU127     -0.1245
    152  CA        21.1120   63.2820    7.0270 C.3   127  LEU127      0.1561
    153  C         20.2460   62.0910    6.6760 C.2   127  LEU127      0.2260
    154  O         19.1800   61.9210    7.2520 O.2   127  LEU127     -0.2867
    155  CB        20.5370   64.5120    6.3280 C.3   127  LEU127      0.0270
    156  CG        21.1360   65.8460    6.7320 C.3   127  LEU127      0.0019
    157  CD1       20.5890   66.9790    5.8910 C.3   127  LEU127      0.0001
    158  CD2       20.8540   66.1130    8.2000 C.3   127  LEU127      0.0001
    159  N         14.5690   63.9220   -0.3410 N.3   132  LEU132     -0.1231
    160  CA        14.2850   65.3350   -0.0780 C.3   132  LEU132      0.1693
    161  C         15.3270   66.2490   -0.7020 C.2   132  LEU132      0.2591
    162  O         15.0090   67.3320   -1.1740 O.2   132  LEU132     -0.2718
    163  CB        14.2400   65.6020    1.4420 C.3   132  LEU132      0.0284
    164  CG        13.8910   67.0490    1.8790 C.3   132  LEU132      0.0019
    165  CD1       12.3630   67.2580    1.8760 C.3   132  LEU132      0.0001
    166  CD2       14.5680   67.4940    3.1880 C.3   132  LEU132      0.0001
    167  N         16.5800   65.8210   -0.6690 N.am  133  ILE133     -0.1980
    168  CA        17.6870   66.6840   -1.0360 C.3   133  ILE133      0.1595
    169  C         17.8210   66.8110   -2.5530 C.2   133  ILE133      0.2287
    170  O         17.9960   67.9360   -3.0400 O.2   133  ILE133     -0.2864
    171  CB        18.9930   66.2740   -0.2980 C.3   133  ILE133      0.0276
    172  CG1       18.9220   66.8130    1.1300 C.3   133  ILE133      0.0022
    173  CG2       20.2260   66.8630   -0.9580 C.3   133  ILE133      0.0022
    174  CD1       19.8730   66.1870    2.1020 C.3   133  ILE133      0.0001
    175  N         14.9870   68.9080   -3.7490 N.3   136  ILE136     -0.1231
    176  CA        15.3230   70.3230   -3.5110 C.3   136  ILE136      0.1692
    177  C         16.3460   70.8250   -4.5300 C.2   136  ILE136      0.2592
    178  O         16.2050   71.9360   -5.0350 O.2   136  ILE136     -0.2718
    179  CB        15.7890   70.5770   -2.0460 C.3   136  ILE136      0.0266
    180  CG1       14.5580   70.5650   -1.1490 C.3   136  ILE136      0.0019
    181  CG2       16.5240   71.9190   -1.8700 C.3   136  ILE136      0.0020
    182  CD1       14.8610   70.3480    0.3050 C.3   136  ILE136      0.0001
    183  N         17.3590   70.0150   -4.8290 N.am  137  PHE137     -0.1976
    184  CA        18.3160   70.3640   -5.8760 C.3   137  PHE137      0.1639
    185  C         17.6690   70.4350   -7.2690 C.2   137  PHE137      0.2290
    186  O         18.0570   71.2930   -8.0650 O.2   137  PHE137     -0.2864
    187  CB        19.5160   69.4150   -5.8900 C.3   137  PHE137      0.0560
    188  CG        20.6320   69.8150   -4.9500 C.ar  137  PHE137     -0.0200
    189  CD1       20.4020   69.9740   -3.5840 C.ar  137  PHE137     -0.0042
    190  CD2       21.9170   69.9800   -5.4100 C.ar  137  PHE137     -0.0042
    191  CE1       21.4320   70.2990   -2.7110 C.ar  137  PHE137     -0.0003
    192  CE2       22.9400   70.3120   -4.5400 C.ar  137  PHE137     -0.0003
    193  CZ        22.6990   70.4720   -3.1890 C.ar  137  PHE137     -0.0000
    194  N          8.2890   67.5590    2.6930 N.3   215  HIS215     -0.1241
    195  CA         9.2830   68.1740    3.6320 C.3   215  HIS215      0.1621
    196  C          8.9480   67.8010    5.0910 C.2   215  HIS215      0.2264
    197  O          9.7520   67.1850    5.7750 O.2   215  HIS215     -0.2867
    198  CB         9.2720   69.7180    3.4590 C.3   215  HIS215      0.0745
    199  CG        10.6040   70.4150    3.5980 C.ar  215  HIS215      0.0817
    200  ND1       11.3320   70.4350    4.7710 N.ar  215  HIS215     -0.2268
    201  CD2       11.2770   71.2160    2.7320 C.ar  215  HIS215      0.1154
    202  CE1       12.4250   71.1600    4.6010 C.ar  215  HIS215      0.1986
    203  NE2       12.4130   71.6500    3.3730 N.ar  215  HIS215     -0.2212
@<TRIPOS>BOND
     1   186   185    2
     2   185   184    1
     3   187   184    1
     4   187   188    1
     5    83    82    1
     6    83    84    1
     7    83    86    1
     8   184   183    1
     9    85    84    2
    10    87    86    1
    11    87    88    1
    12   190   188   ar
    13   190   192   ar
    14    84    93   am
    15   178   177    2
    16   188   189   ar
    17   183   177   am
    18    95    96    2
    19    95    94    1
    20   192   193   ar
    21   177   176    1
    22    93    94    1
    23    88    89    1
    24    89    90    2
    25    98    99    1
    26    77    76    2
    27    94    97    1
    28    76    75    1
    29   175   176    1
    30   189   191   ar
    31   176   179    1
    32    99   102    1
    33    99   100    1
    34    92    90    1
    35    90    91    1
    36   193   191   ar
    37   170   169    2
    38    66    65    2
    39   102   104    1
    40   102   103    1
    41    63    64    1
    42    65    64    1
    43    65    74   am
    44   169   168    1
    45    64    67    1
    46    75    74    1
    47    75    78    1
    48   100   105   am
    49   100   101    2
    50   179   181    1
    51   179   180    1
    52    78    79    1
    53   105   106    1
    54    79    80    1
    55   162   161    2
    56   180   182    1
    57    67    68    1
    58   168   167    1
    59   168   171    1
    60   173   171    1
    61   109   106    1
    62   109   110    1
    63    68    69    1
    64   106   107    1
    65    13    12    2
    66   161   167   am
    67   161   160    1
    68    80    81    1
    69   159   160    1
    70   171   172    1
    71    59    58    2
    72   160   163    1
    73   111   110   ar
    74   111   113   ar
    75    12    11    1
    76   110   112   ar
    77    58    57    1
    78    69    70    1
    79   107   108    2
    80   107   116   am
    81    70    71    2
    82    14    11    1
    83    14    15    1
    84   113   115   ar
    85   149   147   ar
    86   149   150   ar
    87   172   174    1
    88   112   114   ar
    89    11    10    1
    90    56    57    1
    91   147   145   ar
    92    16    15    1
    93   139   138    2
    94   116   117    1
    95   163   164    1
    96    57    60    1
    97    71    73    1
    98    71    72    1
    99    15    17    1
   100   165   164    1
   101   164   166    1
   102   115   114   ar
   103   138   137    1
   104    10     3   am
   105   150   148   ar
   106   140   141    1
   107   145   144    1
   108   145   146   ar
   109   120   117    1
   110   120   121    1
   111   117   118    1
   112   194   195    1
   113   201   203   ar
   114   201   199   ar
   115   144   141    1
   116    60    61    1
   117    60    62    1
   118   141   142    1
   119     3     4    2
   120     3     2    1
   121   119   118    2
   122     1     2    1
   123   142   143    2
   124   203   202   ar
   125   148   146   ar
   126   137   136    1
   127   198   199    1
   128   198   195    1
   129   118   127   am
   130   199   200   ar
   131   195   196    1
   132   121   123   ar
   133   121   122   ar
   134   136   129   am
   135     2     5    1
   136   123   125   ar
   137   127   128    1
   138     5     6    1
   139   202   200   ar
   140   122   124   ar
   141   129   130    2
   142   129   128    1
   143    41    39    1
   144   196   197    2
   145     8     7    2
   146     6     7    1
   147   128   131    1
   148   125   126   ar
   149    55    52    1
   150   124   126   ar
   151   157   156    1
   152    40    39    1
   153     7     9   am
   154    39    38    1
   155    54    53    2
   156   155   156    1
   157   155   152    1
   158   131   132    1
   159   153   152    1
   160   153   154    2
   161   151   152    1
   162   156   158    1
   163    52    53    1
   164    52    51    1
   165    23    22    1
   166   132   133    1
   167    38    35    1
   168    35    34    1
   169    35    36    1
   170    22    19    1
   171    51    44   am
   172    27    26    2
   173    28    29    1
   174    28    25    1
   175   134   133   ar
   176    37    36    2
   177   133   135   ar
   178    34    26   am
   179    31    29   ar
   180    31    33   ar
   181    26    25    1
   182    29    30   ar
   183    19    20    1
   184    19    18    1
   185    21    20    2
   186    45    44    2
   187    44    43    1
   188    25    24    1
   189    33    32   ar
   190    30    32   ar
   191    46    43    1
   192    46    47    1
   193    43    42    1
   194    47    48    1
   195    49    48   ar
   196    48    50   ar
