@<TRIPOS>MOLECULE
tmp/6br4A00.pdb
 94 91 0 0 0
SMALL
GASTEIGER

@<TRIPOS>ATOM
      1  N         20.5210   -5.1390    7.7570 N.3    32  HIS32      -0.1241
      2  CA        20.7670   -6.2900    6.8870 C.3    32  HIS32       0.1621
      3  C         22.1420   -6.9060    7.1440 C.2    32  HIS32       0.2264
      4  O         22.3090   -8.1250    6.9900 O.2    32  HIS32      -0.2867
      5  CB        20.6080   -5.8970    5.4150 C.3    32  HIS32       0.0745
      6  CG        19.1810   -5.7730    4.9700 C.ar   32  HIS32       0.0817
      7  ND1       18.8240   -5.2220    3.7570 N.ar   32  HIS32      -0.2268
      8  CD2       18.0220   -6.1280    5.5750 C.ar   32  HIS32       0.1154
      9  CE1       17.5080   -5.2470    3.6340 C.ar   32  HIS32       0.1986
     10  NE2       16.9980   -5.7880    4.7250 N.ar   32  HIS32      -0.2212
     11  N         21.8930   -9.3740    9.9030 N.3    35  GLN35      -0.1231
     12  CA        21.3970  -10.6510    9.3870 C.3    35  GLN35       0.1698
     13  C         22.5040  -11.4090    8.6570 C.2    35  GLN35       0.2592
     14  O         22.7460  -12.5910    8.9250 O.2    35  GLN35      -0.2718
     15  CB        20.1970  -10.4110    8.4660 C.3    35  GLN35       0.0381
     16  CG        19.0090   -9.7190    9.1630 C.3    35  GLN35       0.0905
     17  CD        18.3800  -10.6130   10.2250 C.2    35  GLN35       0.2608
     18  OE1       18.2710  -11.8230   10.0260 O.2    35  GLN35      -0.2717
     19  NE2       17.9680  -10.0240   11.3570 N.am   35  GLN35      -0.0878
     20  N         23.2130  -10.7250    7.7520 N.am   36  PHE36      -0.1976
     21  CA        24.2370  -11.3840    6.9470 C.3    36  PHE36       0.1639
     22  C         25.2630  -12.0660    7.8260 C.2    36  PHE36       0.2290
     23  O         25.7010  -13.1830    7.5420 O.2    36  PHE36      -0.2864
     24  CB        24.9360  -10.3570    6.0500 C.3    36  PHE36       0.0560
     25  CG        24.4180  -10.3210    4.6500 C.ar   36  PHE36      -0.0200
     26  CD1       23.0590  -10.4020    4.4020 C.ar   36  PHE36      -0.0042
     27  CD2       25.2930  -10.1830    3.5820 C.ar   36  PHE36      -0.0042
     28  CE1       22.5740  -10.3520    3.1090 C.ar   36  PHE36      -0.0003
     29  CE2       24.8180  -10.1330    2.2870 C.ar   36  PHE36      -0.0003
     30  CZ        23.4630  -10.2230    2.0480 C.ar   36  PHE36      -0.0000
     31  N         22.9050  -15.4510    8.8820 N.3    40  LEU40      -0.1245
     32  CA        23.2790  -16.1480    7.6560 C.3    40  LEU40       0.1561
     33  C         24.7530  -16.5360    7.6050 C.2    40  LEU40       0.2260
     34  O         25.1000  -17.5040    6.9210 O.2    40  LEU40      -0.2867
     35  CB        22.9620  -15.2700    6.4390 C.3    40  LEU40       0.0270
     36  CG        21.5010  -14.8450    6.2830 C.3    40  LEU40       0.0019
     37  CD1       21.3050  -13.9100    5.0990 C.3    40  LEU40       0.0001
     38  CD2       20.6240  -16.0580    6.1360 C.3    40  LEU40       0.0001
     39  N         25.2390   -0.8300    2.2960 N.3   150  VAL150     -0.1231
     40  CA        25.7710   -2.0890    2.8120 C.3   150  VAL150      0.1678
     41  C         24.5800   -2.9830    3.1180 C.2   150  VAL150      0.2434
     42  O         23.4330   -2.5100    3.1850 O.2   150  VAL150     -0.2733
     43  CB        26.6450   -1.8650    4.0700 C.3   150  VAL150      0.0265
     44  CG1       28.0490   -1.3660    3.6700 C.3   150  VAL150      0.0020
     45  CG2       25.9500   -0.8950    5.0350 C.3   150  VAL150      0.0020
     46  N         24.8000   -4.2910    3.2600 N.am  151  PRO151     -0.2729
     47  CA        26.0340   -5.0190    2.9900 C.3   151  PRO151      0.1401
     48  C         26.3770   -4.9740    1.5020 C.2   151  PRO151      0.2269
     49  O         25.4910   -4.7670    0.6670 O.2   151  PRO151     -0.2865
     50  CB        25.7070   -6.4470    3.4330 C.3   151  PRO151      0.0296
     51  CG        24.2350   -6.5480    3.2990 C.3   151  PRO151      0.0237
     52  CD        23.7120   -5.1930    3.6880 C.3   151  PRO151      0.0939
     53  N         22.5150   -9.7560   -4.2780 N.3   163  PRO163     -0.2102
     54  CA        21.6680  -10.7380   -3.5800 C.3   163  PRO163      0.1504
     55  C         20.2050  -10.6240   -3.9280 C.2   163  PRO163      0.2575
     56  O         19.4550  -11.5800   -3.6910 O.2   163  PRO163     -0.2718
     57  CB        21.9030  -10.4190   -2.0950 C.3   163  PRO163      0.0282
     58  CG        22.4340   -9.0060   -2.0850 C.3   163  PRO163      0.0208
     59  CD        23.2720   -8.9180   -3.3340 C.3   163  PRO163      0.0893
     60  N         19.7720   -9.4800   -4.4650 N.am  164  GLN164     -0.1980
     61  CA        18.3620   -9.2900   -4.7790 C.3   164  GLN164      0.1601
     62  C         17.8770  -10.2810   -5.8340 C.2   164  GLN164      0.2287
     63  O         16.6790  -10.5790   -5.8990 O.2   164  GLN164     -0.2864
     64  CB        18.1340   -7.8500   -5.2310 C.3   164  GLN164      0.0394
     65  CG        18.6100   -6.8250   -4.2150 C.3   164  GLN164      0.0908
     66  CD        17.9730   -7.0110   -2.8430 C.2   164  GLN164      0.2608
     67  OE1       16.7510   -7.1240   -2.7230 O.2   164  GLN164     -0.2717
     68  NE2       18.8030   -7.0350   -1.8010 N.am  164  GLN164     -0.0878
     69  N         14.9700  -16.2840   -1.0430 N.3   168  THR168     -0.1218
     70  CA        15.2020  -16.2370    0.3990 C.3   168  THR168      0.1862
     71  C         14.1280  -16.9770    1.1930 C.2   168  THR168      0.2287
     72  O         13.9770  -16.7350    2.3980 O.2   168  THR168     -0.2866
     73  CB        15.2860  -14.7910    0.8820 C.3   168  THR168      0.1770
     74  OG1       13.9900  -14.1880    0.7540 O.3   168  THR168     -0.2211
     75  CG2       16.3160  -14.0110    0.0590 C.3   168  THR168      0.0375
     76  N         16.9280  -19.9000    4.0780 N.3   171  MET171     -0.1245
     77  CA        18.1240  -19.1100    4.3380 C.3   171  MET171      0.1570
     78  C         19.3780  -19.8190    3.8440 C.2   171  MET171      0.2261
     79  O         20.2870  -19.1820    3.2970 O.2   171  MET171     -0.2867
     80  CB        18.2430  -18.8330    5.8270 C.3   171  MET171      0.0387
     81  CG        16.9400  -18.8630    6.5550 C.3   171  MET171      0.0595
     82  SD        17.1490  -18.0510    8.1140 S.3   171  MET171     -0.1393
     83  CE        17.5190  -16.4330    7.5240 C.3   171  MET171      0.0692
     84  N         19.9360  -19.6220    0.1010 N.3   174  PHE174     -0.1241
     85  CA        20.3880  -18.2840   -0.2600 C.3   174  PHE174      0.1605
     86  C         21.8830  -18.1260   -0.0080 C.2   174  PHE174      0.2264
     87  O         22.6180  -17.6170   -0.8570 O.2   174  PHE174     -0.2867
     88  CB        19.6140  -17.2250    0.5290 C.3   174  PHE174      0.0534
     89  CG        20.2560  -15.8720    0.4780 C.ar  174  PHE174     -0.0203
     90  CD1       20.1780  -15.1030   -0.6700 C.ar  174  PHE174     -0.0042
     91  CD2       20.9780  -15.3860    1.5590 C.ar  174  PHE174     -0.0042
     92  CE1       20.7960  -13.8550   -0.7400 C.ar  174  PHE174     -0.0003
     93  CE2       21.5940  -14.1460    1.4950 C.ar  174  PHE174     -0.0003
     94  CZ        21.4970  -13.3760    0.3470 C.ar  174  PHE174     -0.0000
@<TRIPOS>BOND
     1    63    62    2
     2    62    61    1
     3    64    61    1
     4    64    65    1
     5    61    60    1
     6    60    55   am
     7    53    54    1
     8    53    59    1
     9    65    66    1
    10    55    56    2
    11    55    54    1
    12    54    57    1
    13    59    58    1
    14    66    67    2
    15    66    68   am
    16    57    58    1
    17    69    70    1
    18    87    86    2
    19    92    90   ar
    20    92    94   ar
    21    90    89   ar
    22    85    86    1
    23    85    84    1
    24    85    88    1
    25    75    73    1
    26    94    93   ar
    27    70    73    1
    28    70    71    1
    29    89    88    1
    30    89    91   ar
    31    49    48    2
    32    74    73    1
    33    71    72    2
    34    93    91   ar
    35    48    47    1
    36    30    29   ar
    37    30    28   ar
    38    29    27   ar
    39    39    40    1
    40    40    41    1
    41    40    43    1
    42    47    46    1
    43    47    50    1
    44    28    26   ar
    45    41    42    2
    46    41    46   am
    47    46    52    1
    48    79    78    2
    49    51    50    1
    50    51    52    1
    51    27    25   ar
    52     9     7   ar
    53     9    10   ar
    54    44    43    1
    55     7     6   ar
    56    78    77    1
    57    43    45    1
    58    76    77    1
    59    77    80    1
    60    26    25   ar
    61    25    24    1
    62    10     8   ar
    63     6     5    1
    64     6     8   ar
    65    37    36    1
    66     5     2    1
    67    80    81    1
    68    24    21    1
    69    38    36    1
    70    36    35    1
    71    35    32    1
    72    81    82    1
    73     2     3    1
    74     2     1    1
    75    34    33    2
    76    21    20    1
    77    21    22    1
    78     4     3    2
    79    83    82    1
    80    23    22    2
    81    33    32    1
    82    32    31    1
    83    20    13   am
    84    15    16    1
    85    15    12    1
    86    13    14    2
    87    13    12    1
    88    16    17    1
    89    12    11    1
    90    18    17    2
    91    17    19   am
