@<TRIPOS>MOLECULE
tmp/6br5A01.pdb
 181 170 0 0 0
SMALL
GASTEIGER

@<TRIPOS>ATOM
      1  N          4.3120   35.1710    9.7520 N.3    36  ARG36      -0.1231
      2  CA         3.7980   33.8220    9.9470 C.3    36  ARG36       0.1694
      3  C          4.1440   33.4090   11.3710 C.2    36  ARG36       0.2591
      4  O          4.7960   34.1510   12.1150 O.2    36  ARG36      -0.2718
      5  CB         4.3370   32.8430    8.8980 C.3    36  ARG36       0.0321
      6  CG         3.3560   32.5260    7.7560 C.3    36  ARG36       0.0489
      7  CD         3.5220   31.0750    7.2600 C.3    36  ARG36       0.2205
      8  NE         3.2170   30.1170    8.3160 N.pl3  36  ARG36      -0.0865
      9  CZ         3.7170   28.8880    8.3940 C.cat  36  ARG36       0.5346
     10  NH1        4.5710   28.4300    7.4770 N.pl3  36  ARG36       0.1354
     11  NH2        3.3660   28.1160    9.4130 N.pl3  36  ARG36       0.1354
     12  N          3.6460   32.2380   11.7580 N.am   37  GLU37      -0.1979
     13  CA         3.8260   31.6650   13.0860 C.3    37  GLU37       0.1602
     14  C          3.3200   32.6260   14.1580 C.2    37  GLU37       0.2287
     15  O          4.0520   32.9610   15.0920 O.2    37  GLU37      -0.2864
     16  CB         5.3000   31.2770   13.3020 C.3    37  GLU37       0.0415
     17  CG         5.7410   30.1600   12.3650 C.3    37  GLU37       0.1163
     18  CD         6.2610   30.6680   11.0390 C.2    37  GLU37       0.3649
     19  OE1        6.6810   31.8500   10.9820 O.co2  37  GLU37      -0.2457
     20  OE2        6.2500   29.8810   10.0540 O.co2  37  GLU37      -0.2457
     21  N          5.9250   36.2920   13.7170 N.3    52  LEU52      -0.1245
     22  CA         7.2510   36.4300   13.1360 C.3    52  LEU52       0.1561
     23  C          7.1160   37.2070   11.8390 C.2    52  LEU52       0.2260
     24  O          6.5960   36.6870   10.8390 O.2    52  LEU52      -0.2867
     25  CB         7.9070   35.0720   12.8900 C.3    52  LEU52       0.0270
     26  CG         8.2190   34.2530   14.1310 C.3    52  LEU52       0.0019
     27  CD1        8.8810   32.9250   13.7110 C.3    52  LEU52       0.0001
     28  CD2        9.1120   35.0010   15.1050 C.3    52  LEU52       0.0001
     29  N         11.6290   30.3290    5.4590 N.3    69  ASP69      -0.1225
     30  CA        11.3700   30.1340    6.8830 C.3    69  ASP69       0.1805
     31  C         12.2580   30.9870    7.7810 C.2    69  ASP69       0.2597
     32  O         11.7890   31.5080    8.7990 O.2    69  ASP69      -0.2718
     33  CB        11.5580   28.6570    7.2340 C.3    69  ASP69       0.1424
     34  CG        10.3140   27.8370    6.9620 C.2    69  ASP69       0.3668
     35  OD1        9.2060   28.3760    7.1970 O.co2  69  ASP69      -0.2456
     36  OD2       10.4470   26.6730    6.5160 O.co2  69  ASP69      -0.2456
     37  N         13.5400   31.1090    7.4560 N.am   70  ARG70      -0.1979
     38  CA        14.5110   31.7430    8.3380 C.3    70  ARG70       0.1597
     39  C         15.3290   32.7290    7.5200 C.2    70  ARG70       0.2287
     40  O         15.9970   32.3280    6.5610 O.2    70  ARG70      -0.2864
     41  CB        15.4100   30.6840    8.9890 C.3    70  ARG70       0.0334
     42  CG        14.6180   29.5940    9.7170 C.3    70  ARG70       0.0492
     43  CD        15.4740   28.4590   10.2430 C.3    70  ARG70       0.2205
     44  NE        16.1300   27.7350    9.1630 N.pl3  70  ARG70      -0.0865
     45  CZ        15.5640   26.7610    8.4540 C.cat  70  ARG70       0.5346
     46  NH1       14.3110   26.3880    8.6850 N.pl3  70  ARG70       0.1354
     47  NH2       16.2460   26.1770    7.4910 N.pl3  70  ARG70       0.1354
     48  N         13.7730   38.4990   10.0140 N.3    74  ARG74      -0.1245
     49  CA        12.5810   38.1700   10.7710 C.3    74  ARG74       0.1563
     50  C         12.7150   38.6550   12.2090 C.2    74  ARG74       0.2260
     51  O         13.7760   38.5280   12.8360 O.2    74  ARG74      -0.2867
     52  CB        12.3210   36.6640   10.7200 C.3    74  ARG74       0.0307
     53  CG        12.2080   36.1310    9.2920 C.3    74  ARG74       0.0489
     54  CD        11.4650   34.8230    9.2540 C.3    74  ARG74       0.2205
     55  NE        10.0480   35.0090    9.5620 N.pl3  74  ARG74      -0.0865
     56  CZ         9.1250   34.0560    9.4670 C.cat  74  ARG74       0.5346
     57  NH1        9.4650   32.8300    9.0750 N.pl3  74  ARG74       0.1354
     58  NH2        7.8570   34.3340    9.7660 N.pl3  74  ARG74       0.1354
     59  N         13.5910   34.0230   14.0460 N.3    96  TRP96      -0.1227
     60  CA        12.8150   33.2100   13.1310 C.3    96  TRP96       0.1737
     61  C         12.1520   32.0400   13.8500 C.2    96  TRP96       0.2596
     62  O         11.5700   31.1750   13.1950 O.2    96  TRP96      -0.2718
     63  CB        13.6650   32.7420   11.9380 C.3    96  TRP96       0.0564
     64  CG        15.0920   32.3380   12.1680 C.ar   96  TRP96       0.0003
     65  CD1       16.2120   33.0350   11.7980 C.ar   96  TRP96       0.0946
     66  CD2       15.5570   31.1100   12.7400 C.ar   96  TRP96       0.0152
     67  NE1       17.3490   32.3210   12.1240 N.ar   96  TRP96      -0.2442
     68  CE2       16.9740   31.1400   12.7110 C.ar   96  TRP96       0.0810
     69  CE3       14.9170   29.9990   13.2930 C.ar   96  TRP96       0.0012
     70  CZ2       17.7520   30.1010   13.2130 C.ar   96  TRP96       0.0191
     71  CZ3       15.6910   28.9690   13.7940 C.ar   96  TRP96       0.0001
     72  CH2       17.0920   29.0240   13.7470 C.ar   96  TRP96       0.0015
     73  N         12.2060   32.0250   15.1840 N.am   97  SER97      -0.1952
     74  CA        11.4920   31.0870   16.0390 C.3    97  SER97       0.1924
     75  C         11.4350   31.7250   17.4230 C.2    97  SER97       0.2314
     76  O         12.4130   32.3510   17.8440 O.2    97  SER97      -0.2863
     77  CB        12.1940   29.7160   16.0750 C.3    97  SER97       0.2116
     78  OG        11.5170   28.8210   16.9290 O.3    97  SER97      -0.2180
     79  N         19.3650   23.7750   13.4700 N.3   140  ILE140     -0.1245
     80  CA        18.1550   24.5890   13.5820 C.3   140  ILE140      0.1561
     81  C         17.5540   24.5180   14.9790 C.2   140  ILE140      0.2260
     82  O         16.4910   23.9330   15.1850 O.2   140  ILE140     -0.2867
     83  CB        17.1080   24.2070   12.5190 C.3   140  ILE140      0.0252
     84  CG1       17.7840   24.0800   11.1530 C.3   140  ILE140      0.0019
     85  CG2       16.0320   25.3020   12.4520 C.3   140  ILE140      0.0019
     86  CD1       16.8670   23.6620   10.0370 C.3   140  ILE140      0.0001
     87  N         15.2180   25.5690   17.6870 N.3   142  ARG142     -0.1245
     88  CA        13.8710   26.0530   17.4240 C.3   142  ARG142      0.1563
     89  C         13.0230   25.8060   18.6540 C.2   142  ARG142      0.2260
     90  O         13.3580   24.9610   19.4900 O.2   142  ARG142     -0.2867
     91  CB        13.2840   25.3750   16.1900 C.3   142  ARG142      0.0307
     92  CG        13.4030   23.8320   16.1840 C.3   142  ARG142      0.0489
     93  CD        13.2190   23.2820   14.7740 C.3   142  ARG142      0.2205
     94  NE        13.0700   21.8270   14.7370 N.pl3 142  ARG142     -0.0865
     95  CZ        14.0880   20.9700   14.6750 C.cat 142  ARG142      0.5346
     96  NH1       15.3380   21.4220   14.6480 N.pl3 142  ARG142      0.1354
     97  NH2       13.8580   19.6620   14.6430 N.pl3 142  ARG142      0.1354
     98  N          6.8180   28.6700   19.2880 N.3   145  GLU145     -0.1245
     99  CA         5.9690   29.5140   18.4480 C.3   145  GLU145      0.1567
    100  C          4.6080   29.7750   19.0850 C.2   145  GLU145      0.2260
    101  O          3.6170   30.0320   18.3740 O.2   145  GLU145     -0.2867
    102  CB         5.7710   28.9240   17.0460 C.3   145  GLU145      0.0388
    103  CG         7.0010   28.2050   16.4350 C.3   145  GLU145      0.1160
    104  CD         8.2270   29.1090   16.1860 C.2   145  GLU145      0.3649
    105  OE1        8.2010   30.3190   16.5280 O.co2 145  GLU145     -0.2457
    106  OE2        9.2340   28.5900   15.6380 O.co2 145  GLU145     -0.2457
    107  N         14.7970   16.9810   11.6680 N.3   164  ALA164     -0.1245
    108  CA        13.3400   17.0640   11.5680 C.3   164  ALA164      0.1562
    109  C         12.7040   15.7340   11.1680 C.2   164  ALA164      0.2260
    110  O         11.4730   15.6610   11.0650 O.2   164  ALA164     -0.2867
    111  CB        12.9350   18.1410   10.5620 C.3   164  ALA164      0.0290
    112  N          8.2520   19.0150   18.6550 N.3   194  GLU194     -0.1231
    113  CA         8.4290   20.3560   18.1160 C.3   194  GLU194      0.1699
    114  C          7.2330   21.2120   18.5050 C.2   194  GLU194      0.2592
    115  O          6.1520   20.7030   18.8290 O.2   194  GLU194     -0.2718
    116  CB         8.5690   20.3410   16.5820 C.3   194  GLU194      0.0402
    117  CG         9.8070   19.6160   16.0480 C.3   194  GLU194      0.1161
    118  CD         9.9380   19.6970   14.5260 C.2   194  GLU194      0.3649
    119  OE1        8.9070   19.7350   13.8180 O.co2 194  GLU194     -0.2457
    120  OE2       11.0780   19.7410   14.0350 O.co2 194  GLU194     -0.2457
    121  N          7.4580   22.5270   18.4920 N.am  195  GLU195     -0.1979
    122  CA         6.3960   23.5280   18.5140 C.3   195  GLU195      0.1602
    123  C          5.3430   23.2040   19.5700 C.2   195  GLU195      0.2287
    124  O          4.1540   23.0730   19.2840 O.2   195  GLU195     -0.2864
    125  CB         5.7570   23.6460   17.1280 C.3   195  GLU195      0.0415
    126  CG         6.7120   24.1490   16.0510 C.3   195  GLU195      0.1163
    127  CD         6.1460   24.0550   14.6390 C.2   195  GLU195      0.3649
    128  OE1        5.1800   23.2790   14.4050 O.co2 195  GLU195     -0.2457
    129  OE2        6.6640   24.7730   13.7550 O.co2 195  GLU195     -0.2457
    130  N          4.1900   18.7300   18.4970 N.3   210  ARG210     -0.1245
    131  CA         4.2030   18.2490   17.1260 C.3   210  ARG210      0.1563
    132  C          5.3100   17.2140   16.9940 C.2   210  ARG210      0.2260
    133  O          6.4800   17.5250   17.2430 O.2   210  ARG210     -0.2867
    134  CB         4.4350   19.4150   16.1670 C.3   210  ARG210      0.0307
    135  CG         4.7640   19.0370   14.7460 C.3   210  ARG210      0.0489
    136  CD         4.8960   20.2920   13.8930 C.3   210  ARG210      0.2205
    137  NE         5.5290   20.0340   12.6070 N.pl3 210  ARG210     -0.0865
    138  CZ         5.6580   20.9330   11.6390 C.cat 210  ARG210      0.5346
    139  NH1        5.1840   22.1790   11.7880 N.pl3 210  ARG210      0.1354
    140  NH2        6.2550   20.5850   10.5130 N.pl3 210  ARG210      0.1354
    141  N          7.2610   15.4210   14.2590 N.3   212  ASN212     -0.1240
    142  CA         7.4960   15.6070   12.8300 C.3   212  ASN212      0.1653
    143  C          8.0820   14.3690   12.1730 C.2   212  ASN212      0.2266
    144  O          8.3270   14.3770   10.9590 O.2   212  ASN212     -0.2867
    145  CB         8.4240   16.8070   12.5840 C.3   212  ASN212      0.1155
    146  CG         8.1740   17.4780   11.2240 C.2   212  ASN212      0.2627
    147  OD1        7.1190   18.0650   10.9940 O.2   212  ASN212     -0.2716
    148  ND2        9.1440   17.3830   10.3230 N.am  212  ASN212     -0.0877
    149  N          6.4160   14.9760    8.8320 N.3   265  HIS265     -0.1241
    150  CA         5.8880   16.3330    8.7530 C.3   265  HIS265      0.1621
    151  C          4.8540   16.5290    9.8540 C.2   265  HIS265      0.2264
    152  O          4.7150   15.6710   10.7300 O.2   265  HIS265     -0.2867
    153  CB         5.2930   16.6110    7.3610 C.3   265  HIS265      0.0745
    154  CG         5.0660   18.0680    7.0850 C.ar  265  HIS265      0.0817
    155  ND1        6.0140   19.0320    7.3550 N.ar  265  HIS265     -0.2268
    156  CD2        3.9850   18.7290    6.6040 C.ar  265  HIS265      0.1154
    157  CE1        5.5330   20.2230    7.0400 C.ar  265  HIS265      0.1986
    158  NE2        4.3050   20.0670    6.5800 N.ar  265  HIS265     -0.2212
    159  N         -3.4600   21.9070    5.1580 N.3   289  ARG289     -0.1245
    160  CA        -3.8840   22.8900    6.1530 C.3   289  ARG289      0.1563
    161  C         -5.1110   23.6460    5.6390 C.2   289  ARG289      0.2260
    162  O         -5.0990   24.8440    5.3330 O.2   289  ARG289     -0.2867
    163  CB        -2.7170   23.8020    6.4860 C.3   289  ARG289      0.0307
    164  CG        -1.6030   23.0450    7.1840 C.3   289  ARG289      0.0489
    165  CD        -0.2490   23.6890    7.0170 C.3   289  ARG289      0.2205
    166  NE         0.7790   22.9170    7.7060 N.pl3 289  ARG289     -0.0865
    167  CZ         1.9890   23.3840    8.0040 C.cat 289  ARG289      0.5346
    168  NH1        2.3270   24.6310    7.6770 N.pl3 289  ARG289      0.1354
    169  NH2        2.8590   22.6090    8.6370 N.pl3 289  ARG289      0.1354
    170  N         -1.1700   27.0180   11.4490 N.3   324  TYR324     -0.1241
    171  CA        -0.8170   26.7640   12.8350 C.3   324  TYR324      0.1605
    172  C         -1.9570   27.1030   13.7770 C.2   324  TYR324      0.2264
    173  O         -2.8090   27.9470   13.4920 O.2   324  TYR324     -0.2867
    174  CB         0.4170   27.5960   13.2360 C.3   324  TYR324      0.0534
    175  CG         1.7300   26.9490   12.8790 C.ar  324  TYR324     -0.0201
    176  CD1        1.8010   25.9770   11.8900 C.ar  324  TYR324     -0.0009
    177  CD2        2.8900   27.3020   13.5320 C.ar  324  TYR324     -0.0009
    178  CE1        2.9830   25.3870   11.5650 C.ar  324  TYR324      0.0417
    179  CE2        4.0800   26.7140   13.2110 C.ar  324  TYR324      0.0417
    180  CZ         4.1160   25.7560   12.2330 C.ar  324  TYR324      0.1957
    181  OH         5.3040   25.1690   11.9230 O.3   324  TYR324     -0.2866
@<TRIPOS>BOND
     1   159   160    1
     2   162   161    2
     3    29    30    1
     4   161   160    1
     5   160   163    1
     6   163   164    1
     7    36    34   ar
     8    40    39    2
     9   158   156   ar
    10   158   157   ar
    11   156   154   ar
    12    30    33    1
    13    30    31    1
    14    34    35   ar
    15    34    33    1
    16   165   164    1
    17   165   166    1
    18   157   155   ar
    19   154   155   ar
    20   154   153    1
    21     7     6    1
    22     7     8    1
    23   153   150    1
    24    37    31   am
    25    37    38    1
    26    10     9    1
    27    47    45    1
    28    39    38    1
    29   168   167    1
    30   166   167    2
    31     6     5    1
    32    31    32    2
    33   167   169    1
    34     8     9    2
    35    38    41    1
    36     9    11    1
    37    45    46    1
    38    45    44    2
    39   150   149    1
    40   150   151    1
    41     5     2    1
    42    41    42    1
    43    57    56    1
    44    44    43    1
    45    54    53    1
    46    54    55    1
    47    53    52    1
    48    56    55    2
    49    56    58    1
    50    42    43    1
    51     1     2    1
    52   151   152    2
    53     2     3    1
    54    48    49    1
    55    86    84    1
    56    20    18   ar
    57   148   146   am
    58   140   138    1
    59   111   108    1
    60    52    49    1
    61    49    50    1
    62    24    23    2
    63   144   143    2
    64    19    18   ar
    65   147   146    2
    66    18    17    1
    67   110   109    2
    68    84    83    1
    69   109   108    1
    70   146   145    1
    71     3    12   am
    72     3     4    2
    73   170   171    1
    74   178   176   ar
    75   178   180   ar
    76   108   107    1
    77   138   139    1
    78   138   137    2
    79    12    13    1
    80    65    67   ar
    81    65    64   ar
    82    23    22    1
    83   176   175   ar
    84   181   180    1
    85    63    64    1
    86    63    60    1
    87    67    68   ar
    88    64    66   ar
    89   143   142    1
    90    50    51    2
    91   180   179   ar
    92    17    16    1
    93    85    83    1
    94    83    80    1
    95   145   142    1
    96   137   136    1
    97    68    66   ar
    98    68    70   ar
    99    66    69   ar
   100   142   141    1
   101   171   174    1
   102   171   172    1
   103   175   174    1
   104   175   177   ar
   105    25    22    1
   106    25    26    1
   107    13    16    1
   108    13    14    1
   109    60    61    1
   110    60    59    1
   111    22    21    1
   112    62    61    2
   113   179   177   ar
   114    70    72   ar
   115    69    71   ar
   116    79    80    1
   117   173   172    2
   118    80    81    1
   119    27    26    1
   120    72    71   ar
   121   129   127   ar
   122   119   118   ar
   123    61    73   am
   124   136   135    1
   125   120   118   ar
   126    26    28    1
   127    14    15    2
   128   128   127   ar
   129   118   117    1
   130   127   126    1
   131    97    95    1
   132    96    95    1
   133    95    94    2
   134    94    93    1
   135   135   134    1
   136    93    92    1
   137    81    82    2
   138    73    74    1
   139   106   104   ar
   140    74    77    1
   141    74    75    1
   142   117   116    1
   143   126   125    1
   144    77    78    1
   145   134   131    1
   146    92    91    1
   147   104   103    1
   148   104   105   ar
   149    91    88    1
   150   103   102    1
   151   116   113    1
   152   132   131    1
   153   132   133    2
   154   102    99    1
   155   131   130    1
   156   125   122    1
   157    75    76    2
   158    88    87    1
   159    88    89    1
   160   113   114    1
   161   113   112    1
   162   101   100    2
   163    99   100    1
   164    99    98    1
   165   121   114   am
   166   121   122    1
   167   114   115    2
   168   122   123    1
   169    89    90    2
   170   124   123    2
