@<TRIPOS>MOLECULE
tmp/6br6A01.pdb
 173 163 0 0 0
SMALL
GASTEIGER

@<TRIPOS>ATOM
      1  N          3.6130   34.1590    9.9480 N.3    36  ARG36      -0.1231
      2  CA         3.0580   32.8220   10.1270 C.3    36  ARG36       0.1694
      3  C          3.3340   32.4050   11.5640 C.2    36  ARG36       0.2591
      4  O          3.9320   33.1550   12.3400 O.2    36  ARG36      -0.2718
      5  CB         3.6190   31.8190    9.1100 C.3    36  ARG36       0.0321
      6  CG         2.6620   31.4900    7.9460 C.3    36  ARG36       0.0489
      7  CD         2.7790   30.0220    7.5010 C.3    36  ARG36       0.2205
      8  NE         2.3150   29.1160    8.5460 N.pl3  36  ARG36      -0.0865
      9  CZ         2.7010   27.8490    8.6790 C.cat  36  ARG36       0.5346
     10  NH1        3.5660   27.3100    7.8330 N.pl3  36  ARG36       0.1354
     11  NH2        2.2180   27.1180    9.6750 N.pl3  36  ARG36       0.1354
     12  N          2.8730   31.2090   11.9180 N.am   37  GLU37      -0.1979
     13  CA         3.0060   30.6720   13.2670 C.3    37  GLU37       0.1602
     14  C          2.5500   31.6760   14.3360 C.2    37  GLU37       0.2287
     15  O          3.3110   32.0200   15.2420 O.2    37  GLU37      -0.2864
     16  CB         4.4400   30.2250   13.5200 C.3    37  GLU37       0.0415
     17  CG         4.9760   29.1750   12.5150 C.3    37  GLU37       0.1163
     18  CD         5.5930   29.7720   11.2490 C.2    37  GLU37       0.3649
     19  OE1        5.8810   30.9880   11.2100 O.co2  37  GLU37      -0.2457
     20  OE2        5.7950   29.0200   10.2770 O.co2  37  GLU37      -0.2457
     21  N         10.7380   29.1740    5.8150 N.3    69  ASP69      -0.1225
     22  CA        10.5070   29.0970    7.2590 C.3    69  ASP69       0.1805
     23  C         11.5040   29.9140    8.0720 C.2    69  ASP69       0.2597
     24  O         11.1360   30.4860    9.1020 O.2    69  ASP69      -0.2718
     25  CB        10.6030   27.6410    7.7240 C.3    69  ASP69       0.1424
     26  CG         9.5950   26.7640    7.0690 C.2    69  ASP69       0.3668
     27  OD1        8.3950   26.9480    7.3540 O.co2  69  ASP69      -0.2456
     28  OD2       10.0030   25.9160    6.2510 O.co2  69  ASP69      -0.2456
     29  N         12.7740   29.9250    7.6740 N.am   70  ARG70      -0.1979
     30  CA        13.8470   30.4250    8.5260 C.3    70  ARG70       0.1597
     31  C         14.6950   31.4050    7.7360 C.2    70  ARG70       0.2287
     32  O         15.3230   31.0300    6.7420 O.2    70  ARG70      -0.2864
     33  CB        14.6920   29.2610    9.0700 C.3    70  ARG70       0.0334
     34  CG        13.8460   28.3270    9.9680 C.3    70  ARG70       0.0492
     35  CD        14.5720   27.0730   10.4610 C.3    70  ARG70       0.2205
     36  NE        15.1530   26.3210    9.3580 N.pl3  70  ARG70      -0.0865
     37  CZ        14.5000   25.4470    8.6070 C.cat  70  ARG70       0.5346
     38  NH1       13.2140   25.1730    8.8270 N.pl3  70  ARG70       0.1354
     39  NH2       15.1440   24.8410    7.6270 N.pl3  70  ARG70       0.1354
     40  N         13.2150   37.2190   10.2150 N.3    74  ARG74      -0.1245
     41  CA        12.0410   36.9210   11.0090 C.3    74  ARG74       0.1563
     42  C         12.2450   37.3840   12.4420 C.2    74  ARG74       0.2260
     43  O         13.3010   37.1680   13.0410 O.2    74  ARG74      -0.2867
     44  CB        11.7420   35.4200   10.9670 C.3    74  ARG74       0.0307
     45  CG        11.6940   34.8710    9.5350 C.3    74  ARG74       0.0489
     46  CD        10.8290   33.5950    9.4120 C.3    74  ARG74       0.2205
     47  NE         9.4060   33.8660    9.6670 N.pl3  74  ARG74      -0.0865
     48  CZ         8.4400   32.9570    9.5770 C.cat  74  ARG74       0.5346
     49  NH1        8.7360   31.7100    9.2240 N.pl3  74  ARG74       0.1354
     50  NH2        7.1760   33.2870    9.8320 N.pl3  74  ARG74       0.1354
     51  N         12.8890   32.8680   14.2930 N.3    96  TRP96      -0.1227
     52  CA        12.0940   32.0460   13.3940 C.3    96  TRP96       0.1737
     53  C         11.4240   30.8890   14.1330 C.2    96  TRP96       0.2596
     54  O         10.8320   30.0270   13.4940 O.2    96  TRP96      -0.2718
     55  CB        12.9110   31.5330   12.1910 C.3    96  TRP96       0.0564
     56  CG        14.3530   31.0340   12.3860 C.ar   96  TRP96       0.0003
     57  CD1       15.4910   31.6460   11.9420 C.ar   96  TRP96       0.0946
     58  CD2       14.7830   29.7980   12.9860 C.ar   96  TRP96       0.0152
     59  NE1       16.5910   30.8960   12.2500 N.ar   96  TRP96      -0.2442
     60  CE2       16.1880   29.7540   12.8880 C.ar   96  TRP96       0.0810
     61  CE3       14.1190   28.7370   13.6060 C.ar   96  TRP96       0.0012
     62  CZ2       16.9420   28.6910   13.3880 C.ar   96  TRP96       0.0191
     63  CZ3       14.8690   27.6840   14.1110 C.ar   96  TRP96       0.0001
     64  CH2       16.2680   27.6680   13.9930 C.ar   96  TRP96       0.0015
     65  N         11.4600   30.8930   15.4670 N.am   97  SER97      -0.1952
     66  CA        10.7110   29.9700   16.3090 C.3    97  SER97       0.1924
     67  C         10.6580   30.5860   17.6990 C.2    97  SER97       0.2314
     68  O         11.6750   31.0860   18.1820 O.2    97  SER97      -0.2863
     69  CB        11.3660   28.5740   16.3560 C.3    97  SER97       0.2116
     70  OG        10.6880   27.7340   17.2750 O.3    97  SER97      -0.2180
     71  N         18.3440   22.3120   13.6990 N.3   140  ILE140     -0.1245
     72  CA        17.1800   23.1920   13.7640 C.3   140  ILE140      0.1561
     73  C         16.5360   23.1560   15.1460 C.2   140  ILE140      0.2260
     74  O         15.4250   22.6440   15.3190 O.2   140  ILE140     -0.2867
     75  CB        16.1460   22.8470   12.6710 C.3   140  ILE140      0.0252
     76  CG1       16.8100   22.8530   11.2900 C.3   140  ILE140      0.0019
     77  CG2       15.0160   23.8750   12.6840 C.3   140  ILE140      0.0019
     78  CD1       15.8840   22.4400   10.1550 C.3   140  ILE140      0.0001
     79  N         14.2060   24.2850   17.8330 N.3   142  ARG142     -0.1245
     80  CA        12.8790   24.8420   17.6020 C.3   142  ARG142      0.1563
     81  C         12.0480   24.6620   18.8600 C.2   142  ARG142      0.2260
     82  O         12.3720   23.8390   19.7170 O.2   142  ARG142     -0.2867
     83  CB        12.1970   24.1810   16.4040 C.3   142  ARG142      0.0307
     84  CG        12.2430   22.6610   16.4120 C.3   142  ARG142      0.0489
     85  CD        12.1270   22.1460   14.9930 C.3   142  ARG142      0.2205
     86  NE        11.9030   20.7020   14.9240 N.pl3 142  ARG142     -0.0865
     87  CZ        12.8710   19.7920   14.8860 C.cat 142  ARG142      0.5346
     88  NH1       14.1460   20.1580   14.9430 N.pl3 142  ARG142      0.1354
     89  NH2       12.5640   18.5070   14.8150 N.pl3 142  ARG142      0.1354
     90  N          5.8770   27.6400   19.5310 N.3   145  GLU145     -0.1245
     91  CA         5.0380   28.5080   18.6950 C.3   145  GLU145      0.1567
     92  C          3.6920   28.7990   19.3540 C.2   145  GLU145      0.2260
     93  O          2.6910   29.0370   18.6690 O.2   145  GLU145     -0.2867
     94  CB         4.7960   27.9280   17.2980 C.3   145  GLU145      0.0388
     95  CG         5.9060   27.1300   16.6910 C.3   145  GLU145      0.1160
     96  CD         7.2330   27.8890   16.5150 C.2   145  GLU145      0.3649
     97  OE1        7.3550   29.0500   16.9710 O.co2 145  GLU145     -0.2457
     98  OE2        8.1670   27.2920   15.9140 O.co2 145  GLU145     -0.2457
     99  N         13.2840   15.6880   12.0900 N.3   164  ALA164     -0.1245
    100  CA        11.8470   15.8820   11.9710 C.3   164  ALA164      0.1562
    101  C         11.1410   14.6130   11.5330 C.2   164  ALA164      0.2260
    102  O          9.9070   14.5750   11.5050 O.2   164  ALA164     -0.2867
    103  CB        11.5390   17.0010   10.9680 C.3   164  ALA164      0.0290
    104  N          7.0480   17.9800   18.9930 N.3   194  GLU194     -0.1231
    105  CA         7.2600   19.3030   18.4300 C.3   194  GLU194      0.1699
    106  C          6.0710   20.1760   18.7790 C.2   194  GLU194      0.2592
    107  O          4.9660   19.6820   19.0330 O.2   194  GLU194     -0.2718
    108  CB         7.3880   19.2800   16.9060 C.3   194  GLU194      0.0402
    109  CG         8.5820   18.5540   16.3850 C.3   194  GLU194      0.1161
    110  CD         8.6420   18.5710   14.8760 C.2   194  GLU194      0.3649
    111  OE1        7.5740   18.6950   14.2370 O.co2 194  GLU194     -0.2457
    112  OE2        9.7550   18.4670   14.3270 O.co2 194  GLU194     -0.2457
    113  N          6.3160   21.4830   18.7790 N.am  195  GLU195     -0.1979
    114  CA         5.2660   22.4980   18.7450 C.3   195  GLU195      0.1602
    115  C          4.1830   22.2200   19.7880 C.2   195  GLU195      0.2287
    116  O          2.9950   22.1160   19.4860 O.2   195  GLU195     -0.2864
    117  CB         4.6800   22.6030   17.3300 C.3   195  GLU195      0.0415
    118  CG         5.7470   22.9400   16.2750 C.3   195  GLU195      0.1163
    119  CD         5.1830   23.1170   14.8830 C.2   195  GLU195      0.3649
    120  OE1        4.1900   22.4380   14.5610 O.co2 195  GLU195     -0.2457
    121  OE2        5.7430   23.9290   14.1070 O.co2 195  GLU195     -0.2457
    122  N          2.8880   17.8050   18.7390 N.3   210  ARG210     -0.1245
    123  CA         2.8880   17.2970   17.3760 C.3   210  ARG210      0.1563
    124  C          3.9400   16.1970   17.2740 C.2   210  ARG210      0.2260
    125  O          5.1150   16.4180   17.6020 O.2   210  ARG210     -0.2867
    126  CB         3.1700   18.4390   16.3890 C.3   210  ARG210      0.0307
    127  CG         3.5080   18.0410   14.9570 C.3   210  ARG210      0.0489
    128  CD         3.7520   19.2820   14.1060 C.3   210  ARG210      0.2205
    129  NE         4.3220   19.0040   12.7860 N.pl3 210  ARG210     -0.0865
    130  CZ         4.4750   19.9300   11.8400 C.cat 210  ARG210      0.5346
    131  NH1        4.0760   21.1790   12.0590 N.pl3 210  ARG210      0.1354
    132  NH2        5.0010   19.6100   10.6650 N.pl3 210  ARG210      0.1354
    133  N          5.8580   14.3630   14.5580 N.3   212  ASN212     -0.1240
    134  CA         6.0990   14.5600   13.1340 C.3   212  ASN212      0.1653
    135  C          6.6450   13.3200   12.4660 C.2   212  ASN212      0.2266
    136  O          6.9420   13.3580   11.2660 O.2   212  ASN212     -0.2867
    137  CB         7.0640   15.7230   12.9010 C.3   212  ASN212      0.1155
    138  CG         6.8320   16.4080   11.5650 C.2   212  ASN212      0.2627
    139  OD1        5.8010   17.0270   11.3530 O.2   212  ASN212     -0.2716
    140  ND2        7.8030   16.3100   10.6640 N.am  212  ASN212     -0.0877
    141  N          4.9860   13.9470    9.1110 N.3   265  HIS265     -0.1241
    142  CA         4.4590   15.3060    9.0450 C.3   265  HIS265      0.1621
    143  C          3.4090   15.5000   10.1320 C.2   265  HIS265      0.2264
    144  O          3.2580   14.6470   11.0070 O.2   265  HIS265     -0.2867
    145  CB         3.8770   15.6250    7.6580 C.3   265  HIS265      0.0745
    146  CG         3.7270   17.0970    7.3910 C.ar  265  HIS265      0.0817
    147  ND1        4.7560   17.9990    7.5850 N.ar  265  HIS265     -0.2268
    148  CD2        2.6580   17.8300    6.9920 C.ar  265  HIS265      0.1154
    149  CE1        4.3330   19.2180    7.2950 C.ar  265  HIS265      0.1986
    150  NE2        3.0660   19.1440    6.9310 N.ar  265  HIS265     -0.2212
    151  N         -4.7860   21.1970    5.3410 N.3   289  ARG289     -0.1245
    152  CA        -5.1360   22.2180    6.3310 C.3   289  ARG289      0.1563
    153  C         -6.3480   23.0280    5.8590 C.2   289  ARG289      0.2260
    154  O         -6.3220   24.2490    5.6610 O.2   289  ARG289     -0.2867
    155  CB        -3.9200   23.0860    6.6130 C.3   289  ARG289      0.0307
    156  CG        -2.8100   22.2900    7.3190 C.3   289  ARG289      0.0489
    157  CD        -1.4450   22.9340    7.2540 C.3   289  ARG289      0.2205
    158  NE        -0.4060   22.0710    7.8290 N.pl3 289  ARG289     -0.0865
    159  CZ         0.8590   22.4430    8.0250 C.cat 289  ARG289      0.5346
    160  NH1        1.2570   23.6740    7.7010 N.pl3 289  ARG289      0.1354
    161  NH2        1.7290   21.5820    8.5480 N.pl3 289  ARG289      0.1354
    162  N         -2.1450   26.3120   11.6840 N.3   324  TYR324     -0.1241
    163  CA        -1.8230   26.0040   13.0690 C.3   324  TYR324      0.1605
    164  C         -2.9570   26.3840   14.0160 C.2   324  TYR324      0.2264
    165  O         -3.7940   27.2400   13.7240 O.2   324  TYR324     -0.2867
    166  CB        -0.5640   26.7580   13.4920 C.3   324  TYR324      0.0534
    167  CG         0.7350   26.0740   13.1330 C.ar  324  TYR324     -0.0201
    168  CD1        0.7750   25.0360   12.2060 C.ar  324  TYR324     -0.0009
    169  CD2        1.9110   26.4570   13.7420 C.ar  324  TYR324     -0.0009
    170  CE1        1.9460   24.4270   11.8890 C.ar  324  TYR324      0.0417
    171  CE2        3.0990   25.8500   13.4390 C.ar  324  TYR324      0.0417
    172  CZ         3.1120   24.8390   12.5180 C.ar  324  TYR324      0.1957
    173  OH         4.3100   24.2370   12.2450 O.3   324  TYR324     -0.2866
@<TRIPOS>BOND
     1   151   152    1
     2   154   153    2
     3    21    22    1
     4   153   152    1
     5    28    26   ar
     6   152   155    1
     7   155   156    1
     8    32    31    2
     9   150   148   ar
    10   150   149   ar
    11   148   146   ar
    12    26    27   ar
    13    26    25    1
    14   157   156    1
    15   157   158    1
    16    22    25    1
    17    22    23    1
    18   149   147   ar
    19   146   147   ar
    20   146   145    1
    21     7     6    1
    22     7     8    1
    23    39    37    1
    24   145   142    1
    25    29    23   am
    26    29    30    1
    27   160   159    1
    28    31    30    1
    29   158   159    2
    30    10     9    1
    31     6     5    1
    32   159   161    1
    33    23    24    2
    34    30    33    1
    35     8     9    2
    36    37    38    1
    37    37    36    2
    38     9    11    1
    39   142   141    1
    40   142   143    1
    41    33    34    1
    42     5     2    1
    43    49    48    1
    44    36    35    1
    45    46    45    1
    46    46    47    1
    47    45    44    1
    48    48    47    2
    49    48    50    1
    50     1     2    1
    51    34    35    1
    52     2     3    1
    53   143   144    2
    54    78    76    1
    55    40    41    1
    56    20    18   ar
    57   140   138   am
    58   132   130    1
    59    44    41    1
    60   103   100    1
    61    41    42    1
    62    19    18   ar
    63    18    17    1
    64   136   135    2
    65    76    75    1
    66   139   138    2
    67   102   101    2
    68   101   100    1
    69     3    12   am
    70     3     4    2
    71   138   137    1
    72   162   163    1
    73   130   131    1
    74   130   129    2
    75   170   168   ar
    76   170   172   ar
    77    12    13    1
    78    57    59   ar
    79    57    56   ar
    80   100    99    1
    81    55    56    1
    82    55    52    1
    83   168   167   ar
    84   173   172    1
    85    59    60   ar
    86    56    58   ar
    87    42    43    2
    88   135   134    1
    89    17    16    1
    90   172   171   ar
    91    75    77    1
    92    75    72    1
    93   129   128    1
    94    60    58   ar
    95    60    62   ar
    96   137   134    1
    97    58    61   ar
    98   163   166    1
    99   163   164    1
   100   167   166    1
   101   167   169   ar
   102   134   133    1
   103    13    16    1
   104    13    14    1
   105    62    64   ar
   106    52    53    1
   107    52    51    1
   108   171   169   ar
   109    54    53    2
   110    61    63   ar
   111    71    72    1
   112   165   164    2
   113    72    73    1
   114    64    63   ar
   115   128   127    1
   116   121   119   ar
   117    53    65   am
   118   111   110   ar
   119   112   110   ar
   120    14    15    2
   121   120   119   ar
   122    89    87    1
   123   110   109    1
   124   119   118    1
   125    87    86    2
   126    87    88    1
   127    86    85    1
   128   127   126    1
   129    85    84    1
   130    73    74    2
   131    65    66    1
   132    98    96   ar
   133   118   117    1
   134    66    69    1
   135    66    67    1
   136    69    70    1
   137   109   108    1
   138   126   123    1
   139    83    84    1
   140    83    80    1
   141    96    95    1
   142    96    97   ar
   143    95    94    1
   144   108   105    1
   145   124   123    1
   146   124   125    2
   147    94    91    1
   148   117   114    1
   149   123   122    1
   150    80    79    1
   151    80    81    1
   152    67    68    2
   153   105   106    1
   154   105   104    1
   155    93    92    2
   156    91    92    1
   157    91    90    1
   158   114   113    1
   159   114   115    1
   160   106   113   am
   161   106   107    2
   162    81    82    2
   163   116   115    2
