@<TRIPOS>MOLECULE
tmp/6br8A04.pdb
 235 225 0 0 0
SMALL
GASTEIGER

@<TRIPOS>ATOM
      1  N        -40.0100   26.1540  -49.1330 N.3    14  ILE14      -0.1245
      2  CA       -38.5550   26.0580  -49.2270 C.3    14  ILE14       0.1561
      3  C        -38.0130   27.1800  -50.1080 C.2    14  ILE14       0.2260
      4  O        -37.1950   27.9980  -49.6670 O.2    14  ILE14      -0.2867
      5  CB       -38.1350   24.6610  -49.7200 C.3    14  ILE14       0.0252
      6  CG1      -38.2190   23.6730  -48.5410 C.3    14  ILE14       0.0019
      7  CG2      -36.7490   24.7140  -50.3360 C.3    14  ILE14       0.0019
      8  CD1      -38.1420   22.1950  -48.9200 C.3    14  ILE14       0.0001
      9  N        -38.1030   30.3900  -48.1900 N.3    17  ILE17      -0.1231
     10  CA       -36.9220   30.5440  -47.3500 C.3    17  ILE17       0.1692
     11  C        -35.7490   31.0080  -48.2000 C.2    17  ILE17       0.2591
     12  O        -34.9990   31.9130  -47.8170 O.2    17  ILE17      -0.2718
     13  CB       -36.5920   29.2240  -46.6320 C.3    17  ILE17       0.0266
     14  CG1      -37.8060   28.7080  -45.8800 C.3    17  ILE17       0.0019
     15  CG2      -35.4290   29.4190  -45.6820 C.3    17  ILE17       0.0020
     16  CD1      -38.5570   29.7840  -45.2140 C.3    17  ILE17       0.0001
     17  N        -35.5880   30.4090  -49.3780 N.am   18  VAL18      -0.1980
     18  CA       -34.4260   30.7020  -50.2090 C.3    18  VAL18       0.1595
     19  C        -34.4390   32.1570  -50.6600 C.2    18  VAL18       0.2287
     20  O        -33.4320   32.8620  -50.5380 O.2    18  VAL18      -0.2864
     21  CB       -34.3700   29.7230  -51.3950 C.3    18  VAL18       0.0276
     22  CG1      -33.3470   30.1690  -52.3980 C.3    18  VAL18       0.0022
     23  CG2      -34.0350   28.3160  -50.8910 C.3    18  VAL18       0.0022
     24  N        -33.3320   34.4240  -47.9620 N.3    21  ILE21      -0.1231
     25  CA       -31.9090   34.3930  -47.6530 C.3    21  ILE21       0.1692
     26  C        -31.1050   35.0860  -48.7390 C.2    21  ILE21       0.2591
     27  O        -30.1890   35.8580  -48.4430 O.2    21  ILE21      -0.2718
     28  CB       -31.4500   32.9450  -47.4390 C.3    21  ILE21       0.0266
     29  CG1      -32.0450   32.4150  -46.1260 C.3    21  ILE21       0.0019
     30  CG2      -29.9240   32.8700  -47.4580 C.3    21  ILE21       0.0020
     31  CD1      -31.9690   30.9330  -45.9820 C.3    21  ILE21       0.0001
     32  N        -31.4270   34.8180  -50.0050 N.am   22  LYS22      -0.1980
     33  CA       -30.7470   35.4680  -51.1190 C.3    22  LYS22       0.1596
     34  C        -30.7690   36.9850  -50.9670 C.2    22  LYS22       0.2287
     35  O        -29.7270   37.6520  -51.0240 O.2    22  LYS22      -0.2864
     36  CB       -31.4110   35.0620  -52.4370 C.3    22  LYS22       0.0298
     37  CG       -31.2580   33.6070  -52.8220 C.3    22  LYS22       0.0038
     38  CD       -31.9840   33.3450  -54.1320 C.3    22  LYS22       0.0206
     39  CE       -31.8420   31.9070  -54.5780 C.3    22  LYS22       0.1093
     40  NZ       -32.5790   31.6580  -55.8500 N.3    22  LYS22      -0.1314
     41  N        -33.2250   31.5590  -41.0870 N.3    34  LEU34      -0.1245
     42  CA       -33.2220   30.1190  -40.8950 C.3    34  LEU34       0.1561
     43  C        -33.8140   29.7330  -39.5350 C.2    34  LEU34       0.2260
     44  O        -34.6340   28.8130  -39.4450 O.2    34  LEU34      -0.2867
     45  CB       -31.8030   29.5830  -41.0930 C.3    34  LEU34       0.0270
     46  CG       -31.3390   29.5730  -42.5470 C.3    34  LEU34       0.0019
     47  CD1      -29.8350   29.6310  -42.6360 C.3    34  LEU34       0.0001
     48  CD2      -31.9180   28.3490  -43.2530 C.3    34  LEU34       0.0001
     49  N        -39.8090   24.2210  -39.0470 N.3    39  PHE39      -0.1227
     50  CA       -40.1920   23.7170  -40.3620 C.3    39  PHE39       0.1736
     51  C        -39.0610   22.8980  -40.9970 C.2    39  PHE39       0.2595
     52  O        -39.2930   21.7860  -41.4840 O.2    39  PHE39      -0.2718
     53  CB       -40.6370   24.8750  -41.2600 C.3    39  PHE39       0.0547
     54  CG       -40.7210   24.5040  -42.7130 C.ar   39  PHE39      -0.0202
     55  CD1      -41.7980   23.7770  -43.1980 C.ar   39  PHE39      -0.0042
     56  CD2      -39.7020   24.8570  -43.5880 C.ar   39  PHE39      -0.0042
     57  CE1      -41.8560   23.4380  -44.5450 C.ar   39  PHE39      -0.0003
     58  CE2      -39.7600   24.5150  -44.9030 C.ar   39  PHE39      -0.0003
     59  CZ       -40.8350   23.8040  -45.3850 C.ar   39  PHE39      -0.0000
     60  N        -37.8290   23.4150  -40.9750 N.am   40  ILE40      -0.1980
     61  CA       -36.7040   22.7070  -41.5900 C.3    40  ILE40       0.1595
     62  C        -36.4560   21.3620  -40.9110 C.2    40  ILE40       0.2287
     63  O        -36.1880   20.3640  -41.5840 O.2    40  ILE40      -0.2864
     64  CB       -35.4480   23.5930  -41.5700 C.3    40  ILE40       0.0276
     65  CG1      -35.7050   24.9010  -42.3240 C.3    40  ILE40       0.0022
     66  CG2      -34.2190   22.8510  -42.1300 C.3    40  ILE40       0.0022
     67  CD1      -34.8160   26.0380  -41.8440 C.3    40  ILE40       0.0001
     68  N        -39.3860   18.8960  -41.7470 N.3    43  THR43      -0.1203
     69  CA       -39.4230   18.4520  -43.1330 C.3    43  THR43       0.1994
     70  C        -38.3610   17.3890  -43.4070 C.2    43  THR43       0.2617
     71  O        -38.6670   16.3230  -43.9530 O.2    43  THR43      -0.2717
     72  CB       -39.2480   19.6610  -44.0370 C.3    43  THR43       0.1784
     73  OG1      -40.3580   20.5350  -43.8300 O.3    43  THR43      -0.2211
     74  CG2      -39.2140   19.2390  -45.4620 C.3    43  THR43       0.0376
     75  N        -37.1070   17.6630  -43.0340 N.am   44  ILE44      -0.1979
     76  CA       -36.0620   16.6400  -43.1050 C.3    44  ILE44       0.1595
     77  C        -36.5270   15.3450  -42.4480 C.2    44  ILE44       0.2287
     78  O        -36.4930   14.2760  -43.0690 O.2    44  ILE44      -0.2864
     79  CB       -34.7640   17.1490  -42.4600 C.3    44  ILE44       0.0276
     80  CG1      -34.2310   18.3340  -43.2620 C.3    44  ILE44       0.0022
     81  CG2      -33.7640   16.0090  -42.3510 C.3    44  ILE44       0.0022
     82  CD1      -33.4210   19.3200  -42.4420 C.3    44  ILE44       0.0001
     83  N        -39.3180   13.8560  -44.5570 N.3    47  VAL47      -0.1231
     84  CA       -38.8120   13.2560  -45.7920 C.3    47  VAL47       0.1692
     85  C        -38.1120   11.9270  -45.5030 C.2    47  VAL47       0.2591
     86  O        -38.3800   10.9140  -46.1630 O.2    47  VAL47      -0.2718
     87  CB       -37.8850   14.2380  -46.5110 C.3    47  VAL47       0.0266
     88  CG1      -37.1440   13.5370  -47.6030 C.3    47  VAL47       0.0020
     89  CG2      -38.6980   15.3800  -47.0990 C.3    47  VAL47       0.0020
     90  N        -37.2550   11.8900  -44.4720 N.am   48  LEU48      -0.1980
     91  CA       -36.3970   10.7290  -44.2590 C.3    48  LEU48       0.1596
     92  C        -37.1740    9.5070  -43.7960 C.2    48  LEU48       0.2287
     93  O        -36.7520    8.3750  -44.0660 O.2    48  LEU48      -0.2864
     94  CB       -35.2880   11.0730  -43.2630 C.3    48  LEU48       0.0297
     95  CG       -33.9840   11.4970  -43.9590 C.3    48  LEU48       0.0022
     96  CD1      -34.2190   12.6100  -44.9490 C.3    48  LEU48       0.0001
     97  CD2      -32.9160   11.9020  -42.9470 C.3    48  LEU48       0.0001
     98  N        -15.1080   25.4110  -42.4960 N.3   104  ILE104     -0.1245
     99  CA       -16.0200   26.5360  -42.6540 C.3   104  ILE104      0.1561
    100  C        -16.6200   26.8190  -41.2850 C.2   104  ILE104      0.2260
    101  O        -17.1750   25.9130  -40.6530 O.2   104  ILE104     -0.2867
    102  CB       -17.1320   26.2110  -43.6700 C.3   104  ILE104      0.0252
    103  CG1      -16.5720   25.6240  -44.9830 C.3   104  ILE104      0.0019
    104  CG2      -18.0160   27.4230  -43.8990 C.3   104  ILE104      0.0019
    105  CD1      -15.3420   26.3170  -45.5390 C.3   104  ILE104      0.0001
    106  N        -19.0250   29.8840  -40.3960 N.3   106  ASN106     -0.1240
    107  CA       -19.9250   31.0210  -40.4480 C.3   106  ASN106      0.1653
    108  C        -21.1990   30.6460  -39.6970 C.2   106  ASN106      0.2266
    109  O        -21.2750   29.5660  -39.0970 O.2   106  ASN106     -0.2867
    110  CB       -20.2220   31.3710  -41.9010 C.3   106  ASN106      0.1155
    111  CG       -20.5840   30.1530  -42.7130 C.2   106  ASN106      0.2627
    112  OD1      -21.1620   29.1930  -42.1970 O.2   106  ASN106     -0.2716
    113  ND2      -20.2160   30.1660  -43.9840 N.am  106  ASN106     -0.0877
    114  N        -24.1220   29.8960  -40.9420 N.3   108  TYR108     -0.1227
    115  CA       -24.7970   28.7460  -41.5320 C.3   108  TYR108      0.1736
    116  C        -24.2940   27.4500  -40.9210 C.2   108  TYR108      0.2595
    117  O        -25.0800   26.5500  -40.6280 O.2   108  TYR108     -0.2718
    118  CB       -24.5990   28.7070  -43.0470 C.3   108  TYR108      0.0548
    119  CG       -25.1390   29.9040  -43.7790 C.ar  108  TYR108     -0.0200
    120  CD1      -24.3410   31.0140  -44.0180 C.ar  108  TYR108     -0.0009
    121  CD2      -26.4490   29.9220  -44.2370 C.ar  108  TYR108     -0.0009
    122  CE1      -24.8350   32.1080  -44.6860 C.ar  108  TYR108      0.0417
    123  CE2      -26.9550   31.0130  -44.9060 C.ar  108  TYR108      0.0417
    124  CZ       -26.1440   32.1050  -45.1280 C.ar  108  TYR108      0.1957
    125  OH       -26.6410   33.2000  -45.8020 O.3   108  TYR108     -0.2866
    126  N        -22.9880   27.3370  -40.7390 N.am  109  VAL109     -0.1980
    127  CA       -22.4350   26.1590  -40.0940 C.3   109  VAL109      0.1595
    128  C        -22.9530   26.0530  -38.6680 C.2   109  VAL109      0.2287
    129  O        -23.3410   24.9710  -38.2190 O.2   109  VAL109     -0.2864
    130  CB       -20.9010   26.2100  -40.1530 C.3   109  VAL109      0.0276
    131  CG1      -20.2880   25.2650  -39.1370 C.3   109  VAL109      0.0022
    132  CG2      -20.4420   25.9050  -41.5590 C.3   109  VAL109      0.0022
    133  N        -25.7910   27.3360  -37.6200 N.3   111  PHE111     -0.1227
    134  CA       -27.1620   26.8800  -37.8800 C.3   111  PHE111      0.1736
    135  C        -27.1810   25.3720  -38.0940 C.2   111  PHE111      0.2595
    136  O        -27.8980   24.6630  -37.3930 O.2   111  PHE111     -0.2718
    137  CB       -27.7950   27.6040  -39.0970 C.3   111  PHE111      0.0547
    138  CG       -29.2300   27.2900  -39.3130 C.ar  111  PHE111     -0.0202
    139  CD1      -30.1350   27.8310  -38.4550 C.ar  111  PHE111     -0.0042
    140  CD2      -29.6460   26.2900  -40.1990 C.ar  111  PHE111     -0.0042
    141  CE1      -31.5020   27.5460  -38.5960 C.ar  111  PHE111     -0.0003
    142  CE2      -31.0170   26.0360  -40.3590 C.ar  111  PHE111     -0.0003
    143  CZ       -31.9270   26.6650  -39.5460 C.ar  111  PHE111     -0.0000
    144  N        -26.3140   24.8570  -38.9690 N.am  112  PHE112     -0.1976
    145  CA       -26.3930   23.4420  -39.3100 C.3   112  PHE112      0.1639
    146  C        -26.2360   22.5740  -38.0620 C.2   112  PHE112      0.2290
    147  O        -26.9100   21.5550  -37.9090 O.2   112  PHE112     -0.2864
    148  CB       -25.3610   23.0900  -40.3890 C.3   112  PHE112      0.0560
    149  CG       -25.5480   21.6830  -40.9590 C.ar  112  PHE112     -0.0200
    150  CD1      -26.8220   21.2210  -41.1980 C.ar  112  PHE112     -0.0042
    151  CD2      -24.4740   20.8130  -41.2200 C.ar  112  PHE112     -0.0042
    152  CE1      -27.0660   19.9490  -41.6880 C.ar  112  PHE112     -0.0003
    153  CE2      -24.7060   19.5030  -41.7170 C.ar  112  PHE112     -0.0003
    154  CZ       -26.0140   19.0760  -41.9520 C.ar  112  PHE112     -0.0000
    155  N        -29.6130   22.0330  -35.7430 N.3   115  VAL115     -0.1231
    156  CA       -30.6950   21.1420  -36.1920 C.3   115  VAL115      0.1692
    157  C        -30.3730   19.6500  -36.0770 C.2   115  VAL115      0.2591
    158  O        -31.3030   18.8420  -35.9070 O.2   115  VAL115     -0.2718
    159  CB       -31.1440   21.4120  -37.6480 C.3   115  VAL115      0.0266
    160  CG1      -31.9420   22.7350  -37.8270 C.3   115  VAL115      0.0020
    161  CG2      -29.9500   21.3630  -38.5940 C.3   115  VAL115      0.0020
    162  N        -29.1010   19.2600  -36.1320 N.am  116  LEU116     -0.1980
    163  CA       -28.7860   17.8410  -36.3110 C.3   116  LEU116      0.1596
    164  C        -29.1250   16.9510  -35.1130 C.2   116  LEU116      0.2287
    165  O        -29.5030   15.7840  -35.3040 O.2   116  LEU116     -0.2864
    166  CB       -27.3160   17.6760  -36.6830 C.3   116  LEU116      0.0297
    167  CG       -27.0970   17.7920  -38.1880 C.3   116  LEU116      0.0022
    168  CD1      -25.6490   18.0440  -38.4790 C.3   116  LEU116      0.0001
    169  CD2      -27.5970   16.5540  -38.9220 C.3   116  LEU116      0.0001
    170  N        -32.6570   15.7900  -35.8020 N.3   119  ILE119     -0.1245
    171  CA       -32.9150   14.8940  -36.9260 C.3   119  ILE119      0.1561
    172  C        -32.7810   13.4640  -36.4220 C.2   119  ILE119      0.2260
    173  O        -31.6660   12.9800  -36.1990 O.2   119  ILE119     -0.2867
    174  CB       -31.9520   15.1700  -38.0930 C.3   119  ILE119      0.0252
    175  CG1      -32.1680   16.5710  -38.6580 C.3   119  ILE119      0.0019
    176  CG2      -32.1330   14.1330  -39.2250 C.3   119  ILE119      0.0019
    177  CD1      -33.5890   16.7700  -39.0710 C.3   119  ILE119      0.0001
    178  N        -19.6690   15.1340  -39.7050 N.3   132  PHE132     -0.1241
    179  CA       -20.7420   15.3050  -40.6810 C.3   132  PHE132      0.1605
    180  C        -20.9190   16.7730  -41.0600 C.2   132  PHE132      0.2264
    181  O        -21.0580   17.1060  -42.2420 O.2   132  PHE132     -0.2867
    182  CB       -22.0510   14.7370  -40.1460 C.3   132  PHE132      0.0534
    183  CG       -23.1720   14.7570  -41.1570 C.ar  132  PHE132     -0.0203
    184  CD1      -23.3420   13.7030  -42.0410 C.ar  132  PHE132     -0.0042
    185  CD2      -24.0580   15.8200  -41.2210 C.ar  132  PHE132     -0.0042
    186  CE1      -24.3750   13.7050  -42.9570 C.ar  132  PHE132     -0.0003
    187  CE2      -25.0860   15.8290  -42.1440 C.ar  132  PHE132     -0.0003
    188  CZ       -25.2450   14.7720  -43.0130 C.ar  132  PHE132     -0.0000
    189  N        -20.4460   18.2940  -44.8020 N.3   136  PHE136     -0.1227
    190  CA       -21.6070   18.8980  -45.4360 C.3   136  PHE136      0.1736
    191  C        -21.3550   20.3600  -45.7440 C.2   136  PHE136      0.2596
    192  O        -21.7930   20.8710  -46.7810 O.2   136  PHE136     -0.2718
    193  CB       -22.8440   18.7590  -44.5510 C.3   136  PHE136      0.0547
    194  CG       -24.1000   19.3260  -45.1740 C.ar  136  PHE136     -0.0202
    195  CD1      -24.9140   18.5410  -45.9820 C.ar  136  PHE136     -0.0042
    196  CD2      -24.4530   20.6520  -44.9640 C.ar  136  PHE136     -0.0042
    197  CE1      -26.0670   19.0680  -46.5510 C.ar  136  PHE136     -0.0003
    198  CE2      -25.5900   21.1830  -45.5320 C.ar  136  PHE136     -0.0003
    199  CZ       -26.3970   20.3890  -46.3310 C.ar  136  PHE136     -0.0000
    200  N        -20.6820   21.0560  -44.8340 N.am  137  SER137     -0.1952
    201  CA       -20.4430   22.4750  -45.0300 C.3   137  SER137      0.1924
    202  C        -19.4120   22.7110  -46.1190 C.2   137  SER137      0.2314
    203  O        -19.5420   23.6570  -46.9010 O.2   137  SER137     -0.2863
    204  CB       -19.9940   23.1150  -43.7250 C.3   137  SER137      0.2116
    205  OG       -20.9600   22.9120  -42.7200 O.3   137  SER137     -0.2180
    206  N        -21.2820   21.8380  -49.6250 N.3   140  SER140     -0.1202
    207  CA       -22.2710   22.8070  -50.0770 C.3   140  SER140      0.2020
    208  C        -21.6180   24.1480  -50.3540 C.2   140  SER140      0.2619
    209  O        -22.0770   24.9000  -51.2210 O.2   140  SER140     -0.2717
    210  CB       -23.4010   22.9480  -49.0480 C.3   140  SER140      0.2103
    211  OG       -22.9240   23.3950  -47.8040 O.3   140  SER140     -0.2182
    212  N        -20.5340   24.4520  -49.6440 N.am  141  SER141     -0.1951
    213  CA       -19.7450   25.6250  -49.9800 C.3   141  SER141      0.1924
    214  C        -19.1430   25.4970  -51.3760 C.2   141  SER141      0.2314
    215  O        -19.0570   26.4810  -52.1160 O.2   141  SER141     -0.2863
    216  CB       -18.6580   25.8260  -48.9340 C.3   141  SER141      0.2116
    217  OG       -17.6910   26.7300  -49.4020 O.3   141  SER141     -0.2180
    218  N        -22.2000   25.6310  -54.2110 N.3   144  TYR144     -0.1227
    219  CA       -22.7020   26.9840  -54.4050 C.3   144  TYR144      0.1736
    220  C        -21.6400   27.8840  -55.0080 C.2   144  TYR144      0.2596
    221  O        -21.9480   28.7370  -55.8500 O.2   144  TYR144     -0.2718
    222  CB       -23.2000   27.5420  -53.0720 C.3   144  TYR144      0.0548
    223  CG       -23.4320   29.0390  -52.9990 C.ar  144  TYR144     -0.0200
    224  CD1      -24.6970   29.5740  -53.2000 C.ar  144  TYR144     -0.0009
    225  CD2      -22.4000   29.9150  -52.6730 C.ar  144  TYR144     -0.0009
    226  CE1      -24.9260   30.9460  -53.1030 C.ar  144  TYR144      0.0417
    227  CE2      -22.6170   31.2870  -52.5780 C.ar  144  TYR144      0.0417
    228  CZ       -23.8780   31.8000  -52.7840 C.ar  144  TYR144      0.1957
    229  OH       -24.0830   33.1730  -52.6910 O.3   144  TYR144     -0.2866
    230  N        -20.3900   27.7230  -54.5840 N.am  145  SER145     -0.1952
    231  CA       -19.3480   28.5580  -55.1550 C.3   145  SER145      0.1924
    232  C        -19.1290   28.2220  -56.6190 C.2   145  SER145      0.2314
    233  O        -19.0000   29.1210  -57.4570 O.2   145  SER145     -0.2863
    234  CB       -18.0510   28.4100  -54.3710 C.3   145  SER145      0.2116
    235  OG       -17.0090   29.0600  -55.0700 O.3   145  SER145     -0.2180
@<TRIPOS>BOND
     1   233   232    2
     2   232   231    1
     3   221   220    2
     4    40    39    1
     5   231   230    1
     6   231   234    1
     7   235   234    1
     8   220   230   am
     9   220   219    1
    10    39    38    1
    11   219   218    1
    12   219   222    1
    13    38    37    1
    14   224   226   ar
    15   224   223   ar
    16   226   228   ar
    17   222   223    1
    18   223   225   ar
    19    37    36    1
    20   228   229    1
    21   228   227   ar
    22   225   227   ar
    23    36    33    1
    24    22    21    1
    25   215   214    2
    26    21    23    1
    27    21    18    1
    28   214   213    1
    29   209   208    2
    30    33    34    1
    31    33    32    1
    32    35    34    2
    33    19    20    2
    34    19    18    1
    35   208   207    1
    36   208   212   am
    37     7     5    1
    38    18    17    1
    39     3     4    2
    40     3     2    1
    41   207   206    1
    42   207   210    1
    43    32    26   am
    44   213   212    1
    45   213   216    1
    46     5     2    1
    47     5     6    1
    48   217   216    1
    49    17    11   am
    50     2     1    1
    51   210   211    1
    52     8     6    1
    53    26    27    2
    54    26    25    1
    55    11    12    2
    56    11    10    1
    57     9    10    1
    58    24    25    1
    59    25    28    1
    60    88    87    1
    61    30    28    1
    62    28    29    1
    63    10    13    1
    64    89    87    1
    65   203   202    2
    66   192   191    2
    67    13    14    1
    68    13    15    1
    69   197   199   ar
    70   197   195   ar
    71    87    84    1
    72   199   198   ar
    73    86    85    2
    74    29    31    1
    75   202   201    1
    76   195   194   ar
    77    14    16    1
    78   125   124    1
    79    84    85    1
    80    84    83    1
    81   191   190    1
    82   191   200   am
    83   105   103    1
    84   198   196   ar
    85    85    90   am
    86    74    72    1
    87   190   189    1
    88   190   193    1
    89    59    58   ar
    90    59    57   ar
    91   194   196   ar
    92   194   193    1
    93   124   123   ar
    94   124   122   ar
    95   201   200    1
    96   201   204    1
    97   103   102    1
    98    96    95    1
    99   123   121   ar
   100    58    56   ar
   101   122   120   ar
   102    57    55   ar
   103    90    91    1
   104    91    92    1
   105    91    94    1
   106   121   119   ar
   107    93    92    2
   108    72    73    1
   109    72    69    1
   110   120   119   ar
   111   113   111   am
   112    95    94    1
   113    95    97    1
   114    71    70    2
   115   104   102    1
   116   119   118    1
   117   204   205    1
   118   102    99    1
   119    56    54   ar
   120    70    69    1
   121    70    75   am
   122    80    79    1
   123    80    82    1
   124    48    46    1
   125    55    54   ar
   126    69    68    1
   127    76    75    1
   128    76    79    1
   129    76    77    1
   130    78    77    2
   131   118   115    1
   132   188   186   ar
   133   188   187   ar
   134   186   184   ar
   135    54    53    1
   136   111   112    2
   137   111   110    1
   138    99    98    1
   139    99   100    1
   140    47    46    1
   141    46    45    1
   142    79    81    1
   143    65    67    1
   144    65    64    1
   145   181   180    2
   146   187   185   ar
   147    66    64    1
   148   184   183   ar
   149   154   153   ar
   150   154   152   ar
   151   110   107    1
   152   153   151   ar
   153   152   150   ar
   154    61    64    1
   155    61    60    1
   156    61    62    1
   157    63    62    2
   158   132   130    1
   159   115   114    1
   160   115   116    1
   161    52    51    2
   162   100   101    2
   163    53    50    1
   164   185   183   ar
   165   151   149   ar
   166   150   149   ar
   167   183   182    1
   168    45    42    1
   169    41    42    1
   170   180   179    1
   171    51    60   am
   172    51    50    1
   173   149   148    1
   174   116   126   am
   175   116   117    2
   176    42    43    1
   177   126   127    1
   178   179   182    1
   179   179   178    1
   180   107   106    1
   181   107   108    1
   182   148   145    1
   183    50    49    1
   184   142   140   ar
   185   142   143   ar
   186   140   138   ar
   187   130   127    1
   188   130   131    1
   189   127   128    1
   190   108   109    2
   191   143   141   ar
   192    43    44    2
   193   138   137    1
   194   138   139   ar
   195   145   144    1
   196   145   146    1
   197   176   174    1
   198   137   134    1
   199   177   175    1
   200   144   135   am
   201   169   167    1
   202   128   129    2
   203   175   174    1
   204   141   139   ar
   205   161   159    1
   206   168   167    1
   207   167   166    1
   208   135   134    1
   209   135   136    2
   210   174   171    1
   211   146   147    2
   212   134   133    1
   213   160   159    1
   214   159   156    1
   215   171   172    1
   216   171   170    1
   217   166   163    1
   218   172   173    2
   219   163   162    1
   220   163   164    1
   221   156   157    1
   222   156   155    1
   223   162   157   am
   224   157   158    2
   225   165   164    2
