@<TRIPOS>MOLECULE
tmp/6br8A02.pdb
 216 207 0 0 0
SMALL
GASTEIGER

@<TRIPOS>ATOM
      1  N        -45.9410   17.9860  -51.3750 N.3     7  ILE7       -0.1245
      2  CA       -44.6130   18.2840  -51.8940 C.3     7  ILE7        0.1561
      3  C        -44.5800   19.6530  -52.5580 C.2     7  ILE7        0.2260
      4  O        -43.6280   20.4190  -52.3730 O.2     7  ILE7       -0.2867
      5  CB       -44.1600   17.1660  -52.8500 C.3     7  ILE7        0.0252
      6  CG1      -44.0600   15.8490  -52.0780 C.3     7  ILE7        0.0019
      7  CG2      -42.8250   17.5100  -53.4890 C.3     7  ILE7        0.0019
      8  CD1      -43.6150   14.6900  -52.9100 C.3     7  ILE7        0.0001
      9  N        -44.5330   22.0940  -49.7360 N.3    10  ASP10      -0.1225
     10  CA       -43.2200   22.1670  -49.0980 C.3    10  ASP10       0.1805
     11  C        -42.2090   22.8890  -49.9840 C.2    10  ASP10       0.2597
     12  O        -41.4030   23.6830  -49.4880 O.2    10  ASP10      -0.2718
     13  CB       -42.7080   20.7630  -48.7530 C.3    10  ASP10       0.1424
     14  CG       -43.3320   20.1880  -47.4760 C.2    10  ASP10       0.3668
     15  OD1      -43.8500   20.9600  -46.6380 O.co2  10  ASP10      -0.2456
     16  OD2      -43.3010   18.9460  -47.3170 O.co2  10  ASP10      -0.2456
     17  N        -42.2300   22.6320  -51.2960 N.am   11  LEU11      -0.1979
     18  CA       -41.2580   23.2830  -52.1680 C.3    11  LEU11       0.1596
     19  C        -41.4900   24.7990  -52.2330 C.2    11  LEU11       0.2287
     20  O        -40.5280   25.5720  -52.2770 O.2    11  LEU11      -0.2864
     21  CB       -41.2880   22.6270  -53.5520 C.3    11  LEU11       0.0297
     22  CG       -40.5560   23.2570  -54.7380 C.3    11  LEU11       0.0022
     23  CD1      -39.0540   23.2090  -54.5010 C.3    11  LEU11       0.0001
     24  CD2      -40.8730   22.5250  -56.0230 C.3    11  LEU11       0.0001
     25  N        -40.0100   26.1540  -49.1330 N.3    14  ILE14      -0.1245
     26  CA       -38.5550   26.0580  -49.2270 C.3    14  ILE14       0.1561
     27  C        -38.0130   27.1800  -50.1080 C.2    14  ILE14       0.2260
     28  O        -37.1950   27.9980  -49.6670 O.2    14  ILE14      -0.2867
     29  CB       -38.1350   24.6610  -49.7200 C.3    14  ILE14       0.0252
     30  CG1      -38.2190   23.6730  -48.5410 C.3    14  ILE14       0.0019
     31  CG2      -36.7490   24.7140  -50.3360 C.3    14  ILE14       0.0019
     32  CD1      -38.1420   22.1950  -48.9200 C.3    14  ILE14       0.0001
     33  N        -39.3860   18.8960  -41.7470 N.3    43  THR43      -0.1218
     34  CA       -39.4230   18.4520  -43.1330 C.3    43  THR43       0.1862
     35  C        -38.3610   17.3890  -43.4070 C.2    43  THR43       0.2287
     36  O        -38.6670   16.3230  -43.9530 O.2    43  THR43      -0.2866
     37  CB       -39.2480   19.6610  -44.0370 C.3    43  THR43       0.1770
     38  OG1      -40.3580   20.5350  -43.8300 O.3    43  THR43      -0.2211
     39  CG2      -39.2140   19.2390  -45.4620 C.3    43  THR43       0.0375
     40  N        -39.3180   13.8560  -44.5570 N.3    47  VAL47      -0.1231
     41  CA       -38.8120   13.2560  -45.7920 C.3    47  VAL47       0.1692
     42  C        -38.1120   11.9270  -45.5030 C.2    47  VAL47       0.2591
     43  O        -38.3800   10.9140  -46.1630 O.2    47  VAL47      -0.2718
     44  CB       -37.8850   14.2380  -46.5110 C.3    47  VAL47       0.0266
     45  CG1      -37.1440   13.5370  -47.6030 C.3    47  VAL47       0.0020
     46  CG2      -38.6980   15.3800  -47.0990 C.3    47  VAL47       0.0020
     47  N        -37.2550   11.8900  -44.4720 N.am   48  LEU48      -0.1980
     48  CA       -36.3970   10.7290  -44.2590 C.3    48  LEU48       0.1596
     49  C        -37.1740    9.5070  -43.7960 C.2    48  LEU48       0.2287
     50  O        -36.7520    8.3750  -44.0660 O.2    48  LEU48      -0.2864
     51  CB       -35.2880   11.0730  -43.2630 C.3    48  LEU48       0.0297
     52  CG       -33.9840   11.4970  -43.9590 C.3    48  LEU48       0.0022
     53  CD1      -34.2190   12.6100  -44.9490 C.3    48  LEU48       0.0001
     54  CD2      -32.9160   11.9020  -42.9470 C.3    48  LEU48       0.0001
     55  N        -40.8520    8.8610  -50.6420 N.3    53  TYR53      -0.1227
     56  CA       -40.8060   10.2750  -50.9900 C.3    53  TYR53       0.1736
     57  C        -40.3320   10.4770  -52.4210 C.2    53  TYR53       0.2595
     58  O        -40.8150   11.3740  -53.1220 O.2    53  TYR53      -0.2718
     59  CB       -39.9030   11.0410  -50.0220 C.3    53  TYR53       0.0548
     60  CG       -40.2480   12.5100  -49.9940 C.ar   53  TYR53      -0.0200
     61  CD1      -41.3600   12.9750  -49.2930 C.ar   53  TYR53      -0.0009
     62  CD2      -39.5030   13.4140  -50.6880 C.ar   53  TYR53      -0.0009
     63  CE1      -41.6770   14.3020  -49.2790 C.ar   53  TYR53       0.0417
     64  CE2      -39.8350   14.7550  -50.7040 C.ar   53  TYR53       0.0417
     65  CZ       -40.9120   15.1890  -49.9880 C.ar   53  TYR53       0.1957
     66  OH       -41.2370   16.5150  -49.9760 O.3    53  TYR53      -0.2866
     67  N        -39.3990    9.6470  -52.8870 N.am   54  ILE54      -0.1980
     68  CA       -38.8550    9.8950  -54.2170 C.3    54  ILE54       0.1595
     69  C        -39.9160    9.5800  -55.2560 C.2    54  ILE54       0.2287
     70  O        -40.1160   10.3290  -56.2210 O.2    54  ILE54      -0.2864
     71  CB       -37.5570    9.0960  -54.4710 C.3    54  ILE54       0.0276
     72  CG1      -36.3900    9.6790  -53.6680 C.3    54  ILE54       0.0022
     73  CG2      -37.2180    9.1000  -55.9570 C.3    54  ILE54       0.0022
     74  CD1      -35.2230    8.7170  -53.4580 C.3    54  ILE54       0.0001
     75  N        -42.2200   12.2490  -55.6890 N.3    57  ILE57      -0.1231
     76  CA       -41.6950   13.2890  -56.5600 C.3    57  ILE57       0.1692
     77  C        -41.8620   12.8910  -58.0200 C.2    57  ILE57       0.2591
     78  O        -42.3130   13.6960  -58.8360 O.2    57  ILE57      -0.2718
     79  CB       -40.2340   13.6080  -56.2030 C.3    57  ILE57       0.0266
     80  CG1      -40.1750   14.2240  -54.7980 C.3    57  ILE57       0.0019
     81  CG2      -39.6810   14.5910  -57.1810 C.3    57  ILE57       0.0020
     82  CD1      -38.8350   14.6620  -54.3660 C.3    57  ILE57       0.0001
     83  N        -41.5350   11.6430  -58.3760 N.am   58  ILE58      -0.1980
     84  CA       -41.8020   11.1880  -59.7370 C.3    58  ILE58       0.1595
     85  C        -43.2740   11.3840  -60.0930 C.2    58  ILE58       0.2287
     86  O        -43.6030   11.7940  -61.2150 O.2    58  ILE58      -0.2864
     87  CB       -41.3860    9.7190  -59.9390 C.3    58  ILE58       0.0276
     88  CG1      -39.8710    9.5220  -59.8280 C.3    58  ILE58       0.0022
     89  CG2      -41.9420    9.1710  -61.2640 C.3    58  ILE58       0.0022
     90  CD1      -39.4410    8.1090  -59.7580 C.3    58  ILE58       0.0001
     91  N        -44.6220   14.4440  -61.8030 N.3    61  PHE61      -0.1241
     92  CA       -44.2690   14.6030  -63.2020 C.3    61  PHE61       0.1605
     93  C        -44.9220   13.5790  -64.0960 C.2    61  PHE61       0.2264
     94  O        -44.9260   13.7620  -65.3100 O.2    61  PHE61      -0.2867
     95  CB       -42.7570   14.5220  -63.3600 C.3    61  PHE61       0.0534
     96  CG       -42.0450   15.5770  -62.6000 C.ar   61  PHE61      -0.0203
     97  CD1      -41.2960   15.2560  -61.4920 C.ar   61  PHE61      -0.0042
     98  CD2      -42.1430   16.9120  -63.0030 C.ar   61  PHE61      -0.0042
     99  CE1      -40.6520   16.2300  -60.7810 C.ar   61  PHE61      -0.0003
    100  CE2      -41.4910   17.9110  -62.2970 C.ar   61  PHE61      -0.0003
    101  CZ       -40.7400   17.5600  -61.1790 C.ar   61  PHE61      -0.0000
    102  N        -39.8900   -0.4250  -56.3280 N.3    77  ASP77      -0.1225
    103  CA       -38.8140   -1.4010  -56.2600 C.3    77  ASP77       0.1805
    104  C        -37.4500   -0.7520  -56.4710 C.2    77  ASP77       0.2598
    105  O        -36.4620   -1.1800  -55.8660 O.2    77  ASP77      -0.2718
    106  CB       -39.0470   -2.5150  -57.2800 C.3    77  ASP77       0.1424
    107  CG       -37.9840   -3.5930  -57.2080 C.2    77  ASP77       0.3668
    108  OD1      -38.0400   -4.4310  -56.2730 O.co2  77  ASP77      -0.2456
    109  OD2      -37.0830   -3.5940  -58.0770 O.co2  77  ASP77      -0.2456
    110  N        -37.3730    0.2850  -57.2940 N.am   78  VAL78      -0.1966
    111  CA       -36.0960    0.9400  -57.5310 C.3    78  VAL78       0.1727
    112  C        -35.8440    2.0570  -56.5280 C.2    78  VAL78       0.2616
    113  O        -34.7700    2.1370  -55.9340 O.2    78  VAL78      -0.2715
    114  CB       -36.0340    1.4560  -58.9840 C.3    78  VAL78       0.0290
    115  CG1      -34.8060    2.3360  -59.1750 C.3    78  VAL78       0.0023
    116  CG2      -35.9900    0.2890  -59.9350 C.3    78  VAL78       0.0023
    117  N        -36.8300    2.9180  -56.3100 N.am   79  PHE79      -0.1960
    118  CA       -36.6160    4.2210  -55.6960 C.3    79  PHE79       0.1771
    119  C        -37.0070    4.3020  -54.2180 C.2    79  PHE79       0.2620
    120  O        -36.7270    5.3250  -53.5740 O.2    79  PHE79      -0.2715
    121  CB       -37.3690    5.2880  -56.5020 C.3    79  PHE79       0.0574
    122  CG       -36.8290    5.4840  -57.9060 C.ar   79  PHE79      -0.0200
    123  CD1      -35.7630    6.3430  -58.1410 C.ar   79  PHE79      -0.0042
    124  CD2      -37.3840    4.8100  -58.9830 C.ar   79  PHE79      -0.0042
    125  CE1      -35.2660    6.5280  -59.4310 C.ar   79  PHE79      -0.0003
    126  CE2      -36.8960    4.9930  -60.2770 C.ar   79  PHE79      -0.0003
    127  CZ       -35.8390    5.8490  -60.5010 C.ar   79  PHE79      -0.0000
    128  N        -37.6180    3.2640  -53.6430 N.am   80  SER80      -0.1936
    129  CA       -37.9360    3.3340  -52.2280 C.3    80  SER80       0.2055
    130  C        -36.6730    3.0810  -51.4240 C.2    80  SER80       0.2643
    131  O        -35.8620    2.2180  -51.7690 O.2    80  SER80      -0.2714
    132  CB       -39.0330    2.3340  -51.8470 C.3    80  SER80       0.2130
    133  OG       -38.6140    0.9970  -52.0380 O.3    80  SER80      -0.2179
    134  N        -36.4930    3.8710  -50.3710 N.am   81  PHE81      -0.1973
    135  CA       -35.3590    3.7620  -49.4680 C.3    81  PHE81       0.1639
    136  C        -35.8650    3.4930  -48.0560 C.2    81  PHE81       0.2290
    137  O        -36.9070    4.0210  -47.6490 O.2    81  PHE81      -0.2864
    138  CB       -34.5320    5.0420  -49.4840 C.3    81  PHE81       0.0560
    139  CG       -35.3210    6.2700  -49.1160 C.ar   81  PHE81      -0.0200
    140  CD1      -35.4500    6.6650  -47.7880 C.ar   81  PHE81      -0.0042
    141  CD2      -35.9120    7.0460  -50.0920 C.ar   81  PHE81      -0.0042
    142  CE1      -36.1780    7.7920  -47.4530 C.ar   81  PHE81      -0.0003
    143  CE2      -36.6310    8.1810  -49.7630 C.ar   81  PHE81      -0.0003
    144  CZ       -36.7560    8.5580  -48.4410 C.ar   81  PHE81      -0.0000
    145  N        -31.3310    2.2950  -45.2250 N.3    85  ASN85      -0.1225
    146  CA       -30.6890    2.9220  -46.3770 C.3    85  ASN85       0.1785
    147  C        -30.2430    4.3330  -46.0140 C.2    85  ASN85       0.2597
    148  O        -29.1010    4.7190  -46.2820 O.2    85  ASN85      -0.2718
    149  CB       -31.6190    2.9140  -47.5940 C.3    85  ASN85       0.1169
    150  CG       -31.8330    1.5160  -48.1550 C.2    85  ASN85       0.2627
    151  OD1      -32.9020    1.2060  -48.6760 O.2    85  ASN85      -0.2716
    152  ND2      -30.8220    0.6650  -48.0430 N.am   85  ASN85      -0.0877
    153  N        -31.1030    5.0850  -45.3170 N.am   86  VAL86      -0.1980
    154  CA       -30.7690    6.4340  -44.8750 C.3    86  VAL86       0.1595
    155  C        -29.5630    6.3770  -43.9490 C.2    86  VAL86       0.2287
    156  O        -28.6170    7.1470  -44.1280 O.2    86  VAL86      -0.2864
    157  CB       -31.9660    7.1260  -44.1920 C.3    86  VAL86       0.0276
    158  CG1      -31.5610    8.5310  -43.7640 C.3    86  VAL86       0.0022
    159  CG2      -33.1220    7.2470  -45.1530 C.3    86  VAL86       0.0022
    160  N        -27.2810    3.9380  -43.7110 N.3    88  PHE88      -0.1227
    161  CA       -26.1370    3.5470  -44.5230 C.3    88  PHE88       0.1736
    162  C        -25.6040    4.7350  -45.3110 C.2    88  PHE88       0.2596
    163  O        -24.3890    4.9450  -45.3940 O.2    88  PHE88      -0.2718
    164  CB       -26.5380    2.4110  -45.4580 C.3    88  PHE88       0.0547
    165  CG       -25.4460    1.9600  -46.3650 C.ar   88  PHE88      -0.0202
    166  CD1      -24.5210    1.0300  -45.9390 C.ar   88  PHE88      -0.0042
    167  CD2      -25.3410    2.4670  -47.6460 C.ar   88  PHE88      -0.0042
    168  CE1      -23.5130    0.6110  -46.7730 C.ar   88  PHE88      -0.0003
    169  CE2      -24.3400    2.0490  -48.4860 C.ar   88  PHE88      -0.0003
    170  CZ       -23.4240    1.1220  -48.0510 C.ar   88  PHE88      -0.0000
    171  N        -26.4990    5.5500  -45.8560 N.am   89  GLY89      -0.1957
    172  CA       -26.0600    6.6780  -46.6570 C.3    89  GLY89       0.1869
    173  C        -25.4170    7.7810  -45.8420 C.2    89  GLY89       0.2309
    174  O        -24.5540    8.5080  -46.3420 O.2    89  GLY89      -0.2863
    175  N        -21.8540    6.4140  -45.1080 N.3    92  CYS92      -0.1235
    176  CA       -21.0300    6.6240  -46.2980 C.3    92  CYS92       0.1677
    177  C        -20.6750    8.0890  -46.4980 C.2    92  CYS92       0.2270
    178  O        -19.5920    8.3910  -47.0060 O.2    92  CYS92      -0.2867
    179  CB       -21.7450    6.1080  -47.5530 C.3    92  CYS92       0.0956
    180  SG       -22.0950    4.3460  -47.5360 S.3    92  CYS92      -0.0801
    181  N        -25.6070    6.0780  -61.6290 N.3   237  ILE237     -0.1245
    182  CA       -26.9270    6.6590  -61.4890 C.3   237  ILE237      0.1561
    183  C        -27.7040    6.5050  -62.7920 C.2   237  ILE237      0.2260
    184  O        -28.9190    6.2630  -62.7810 O.2   237  ILE237     -0.2867
    185  CB       -26.7720    8.1240  -61.0300 C.3   237  ILE237      0.0252
    186  CG1      -26.3240    8.1550  -59.5760 C.3   237  ILE237      0.0019
    187  CG2      -28.0570    8.9260  -61.2030 C.3   237  ILE237      0.0019
    188  CD1      -26.1800    9.5400  -59.0300 C.3   237  ILE237      0.0001
    189  N        -30.7840    4.2550  -61.9720 N.3   241  TYR241     -0.1227
    190  CA       -31.8640    5.1440  -61.5690 C.3   241  TYR241      0.1736
    191  C        -32.5290    5.8710  -62.7370 C.2   241  TYR241      0.2595
    192  O        -33.7220    5.6550  -62.9990 O.2   241  TYR241     -0.2718
    193  CB       -31.3350    6.1200  -60.5220 C.3   241  TYR241      0.0548
    194  CG       -30.8320    5.3720  -59.3250 C.ar  241  TYR241     -0.0200
    195  CD1      -31.6810    4.5380  -58.6170 C.ar  241  TYR241     -0.0009
    196  CD2      -29.5020    5.4540  -58.9230 C.ar  241  TYR241     -0.0009
    197  CE1      -31.2400    3.8200  -57.5330 C.ar  241  TYR241      0.0417
    198  CE2      -29.0460    4.7370  -57.8130 C.ar  241  TYR241      0.0417
    199  CZ       -29.9270    3.9200  -57.1300 C.ar  241  TYR241      0.1957
    200  OH       -29.5220    3.1880  -56.0370 O.3   241  TYR241     -0.2866
    201  N        -31.7760    6.7130  -63.4520 N.am  242  ILE242     -0.1980
    202  CA       -32.3600    7.5450  -64.5060 C.3   242  ILE242      0.1595
    203  C        -32.9860    6.6840  -65.5940 C.2   242  ILE242      0.2287
    204  O        -34.0750    6.9830  -66.0940 O.2   242  ILE242     -0.2864
    205  CB       -31.3000    8.4840  -65.1000 C.3   242  ILE242      0.0276
    206  CG1      -30.5690    9.2200  -63.9800 C.3   242  ILE242      0.0022
    207  CG2      -31.9390    9.4060  -66.1690 C.3   242  ILE242      0.0022
    208  CD1      -31.4670   10.0300  -63.0610 C.3   242  ILE242      0.0001
    209  N        -36.6470    5.3170  -65.0460 N.3   245  LEU245     -0.1245
    210  CA       -37.8170    6.1600  -65.2290 C.3   245  LEU245      0.1561
    211  C        -38.4720    5.9020  -66.5820 C.2   245  LEU245      0.2260
    212  O        -37.8590    6.1140  -67.6220 O.2   245  LEU245     -0.2867
    213  CB       -37.4440    7.6300  -65.0880 C.3   245  LEU245      0.0270
    214  CG       -36.7760    7.9530  -63.7590 C.3   245  LEU245      0.0019
    215  CD1      -36.1410    9.3090  -63.7820 C.3   245  LEU245      0.0001
    216  CD2      -37.7980    7.8630  -62.6610 C.3   245  LEU245      0.0001
@<TRIPOS>BOND
     1   212   211    2
     2   211   210    1
     3   207   205    1
     4   204   203    2
     5   203   202    1
     6    94    93    2
     7   210   213    1
     8   210   209    1
     9   205   202    1
    10   205   206    1
    11   213   214    1
    12   202   201    1
    13    93    92    1
    14   206   208    1
    15   215   214    1
    16   214   216    1
    17   201   191   am
    18    95    92    1
    19    95    96    1
    20    92    91    1
    21    98    96   ar
    22    98   100   ar
    23   192   191    2
    24   183   184    2
    25   183   182    1
    26   191   190    1
    27    96    97   ar
    28   100   101   ar
    29   189   190    1
    30   181   182    1
    31   190   193    1
    32    97    99   ar
    33   182   185    1
    34    89    87    1
    35    86    85    2
    36   187   185    1
    37   101    99   ar
    38   185   186    1
    39   193   194    1
    40   127   126   ar
    41   127   125   ar
    42   126   124   ar
    43    85    84    1
    44    87    88    1
    45    87    84    1
    46   116   114    1
    47    88    90    1
    48    84    83    1
    49   186   188    1
    50   125   123   ar
    51   194   196   ar
    52   194   195   ar
    53   115   114    1
    54   114   111    1
    55   124   122   ar
    56   196   198   ar
    57    78    77    2
    58   195   197   ar
    59    83    77   am
    60   123   122   ar
    61   109   107   ar
    62    77    76    1
    63   122   121    1
    64   198   199   ar
    65   197   199   ar
    66   111   110    1
    67   111   112    1
    68   110   104   am
    69   106   107    1
    70   106   103    1
    71   107   108   ar
    72    81    79    1
    73   199   200    1
    74    76    79    1
    75    76    75    1
    76   112   117   am
    77   112   113    2
    78   121   118    1
    79   104   103    1
    80   104   105    2
    81   102   103    1
    82   117   118    1
    83    70    69    2
    84    79    80    1
    85    24    22    1
    86    73    71    1
    87   118   119    1
    88    69    68    1
    89    80    82    1
    90    22    23    1
    91    22    21    1
    92    71    68    1
    93    71    72    1
    94   119   128   am
    95   119   120    2
    96    68    67    1
    97    72    74    1
    98   128   129    1
    99    21    18    1
   100     7     5    1
   101    58    57    2
   102     8     6    1
   103    67    57   am
   104     5     6    1
   105     5     2    1
   106     3     4    2
   107     3     2    1
   108    57    56    1
   109    20    19    2
   110    19    18    1
   111   129   132    1
   112   129   130    1
   113    18    17    1
   114   133   132    1
   115     2     1    1
   116   131   130    2
   117   130   134   am
   118    17    11   am
   119    56    55    1
   120    56    59    1
   121    64    62   ar
   122    64    65   ar
   123    62    60   ar
   124   134   135    1
   125    31    29    1
   126    27    28    2
   127    27    26    1
   128   141   143   ar
   129   141   139   ar
   130    59    60    1
   131    60    61   ar
   132    65    66    1
   133    65    63   ar
   134    11    12    2
   135    11    10    1
   136   143   144   ar
   137     9    10    1
   138    29    26    1
   139    29    30    1
   140   138   135    1
   141   138   139    1
   142   135   136    1
   143    61    63   ar
   144    26    25    1
   145   139   140   ar
   146    10    13    1
   147    32    30    1
   148    13    14    1
   149   151   150    2
   150   169   170   ar
   151   169   167   ar
   152   144   142   ar
   153   150   152   am
   154   150   149    1
   155   136   137    2
   156   170   168   ar
   157   140   142   ar
   158   167   165   ar
   159    45    44    1
   160   149   146    1
   161   179   180    1
   162   179   176    1
   163    14    16   ar
   164    14    15   ar
   165    46    44    1
   166   178   177    2
   167   168   166   ar
   168   172   171    1
   169   172   173    1
   170    44    41    1
   171   177   176    1
   172   146   147    1
   173   146   145    1
   174   165   166   ar
   175   165   164    1
   176   174   173    2
   177   176   175    1
   178   148   147    2
   179    43    42    2
   180   147   153   am
   181   171   162   am
   182    41    42    1
   183    41    40    1
   184    42    47   am
   185    39    37    1
   186   164   161    1
   187   163   162    2
   188   153   154    1
   189   162   161    1
   190   159   157    1
   191    53    52    1
   192   154   157    1
   193   154   155    1
   194   161   160    1
   195    47    48    1
   196    48    49    1
   197    48    51    1
   198   157   158    1
   199   156   155    2
   200    50    49    2
   201    37    38    1
   202    37    34    1
   203    52    51    1
   204    52    54    1
   205    36    35    2
   206    35    34    1
   207    34    33    1
