@<TRIPOS>MOLECULE
tmp/6br8A01.pdb
 188 180 0 0 0
SMALL
GASTEIGER

@<TRIPOS>ATOM
      1  N        -37.1070   17.6630  -43.0340 N.3    44  ILE44      -0.1245
      2  CA       -36.0620   16.6400  -43.1050 C.3    44  ILE44       0.1561
      3  C        -36.5270   15.3450  -42.4480 C.2    44  ILE44       0.2260
      4  O        -36.4930   14.2760  -43.0690 O.2    44  ILE44      -0.2867
      5  CB       -34.7640   17.1490  -42.4600 C.3    44  ILE44       0.0252
      6  CG1      -34.2310   18.3340  -43.2620 C.3    44  ILE44       0.0019
      7  CG2      -33.7640   16.0090  -42.3510 C.3    44  ILE44       0.0019
      8  CD1      -33.4210   19.3200  -42.4420 C.3    44  ILE44       0.0001
      9  N        -37.2550   11.8900  -44.4720 N.3    48  LEU48      -0.1245
     10  CA       -36.3970   10.7290  -44.2590 C.3    48  LEU48       0.1561
     11  C        -37.1740    9.5070  -43.7960 C.2    48  LEU48       0.2260
     12  O        -36.7520    8.3750  -44.0660 O.2    48  LEU48      -0.2867
     13  CB       -35.2880   11.0730  -43.2630 C.3    48  LEU48       0.0270
     14  CG       -33.9840   11.4970  -43.9590 C.3    48  LEU48       0.0019
     15  CD1      -34.2190   12.6100  -44.9490 C.3    48  LEU48       0.0001
     16  CD2      -32.9160   11.9020  -42.9470 C.3    48  LEU48       0.0001
     17  N        -39.3990    9.6470  -52.8870 N.3    54  ILE54      -0.1245
     18  CA       -38.8550    9.8950  -54.2170 C.3    54  ILE54       0.1561
     19  C        -39.9160    9.5800  -55.2560 C.2    54  ILE54       0.2260
     20  O        -40.1160   10.3290  -56.2210 O.2    54  ILE54      -0.2867
     21  CB       -37.5570    9.0960  -54.4710 C.3    54  ILE54       0.0252
     22  CG1      -36.3900    9.6790  -53.6680 C.3    54  ILE54       0.0019
     23  CG2      -37.2180    9.1000  -55.9570 C.3    54  ILE54       0.0019
     24  CD1      -35.2230    8.7170  -53.4580 C.3    54  ILE54       0.0001
     25  N        -42.2200   12.2490  -55.6890 N.3    57  ILE57      -0.1245
     26  CA       -41.6950   13.2890  -56.5600 C.3    57  ILE57       0.1561
     27  C        -41.8620   12.8910  -58.0200 C.2    57  ILE57       0.2260
     28  O        -42.3130   13.6960  -58.8360 O.2    57  ILE57      -0.2867
     29  CB       -40.2340   13.6080  -56.2030 C.3    57  ILE57       0.0252
     30  CG1      -40.1750   14.2240  -54.7980 C.3    57  ILE57       0.0019
     31  CG2      -39.6810   14.5910  -57.1810 C.3    57  ILE57       0.0019
     32  CD1      -38.8350   14.6620  -54.3660 C.3    57  ILE57       0.0001
     33  N        -31.1030    5.0850  -45.3170 N.3    86  VAL86      -0.1245
     34  CA       -30.7690    6.4340  -44.8750 C.3    86  VAL86       0.1561
     35  C        -29.5630    6.3770  -43.9490 C.2    86  VAL86       0.2260
     36  O        -28.6170    7.1470  -44.1280 O.2    86  VAL86      -0.2867
     37  CB       -31.9660    7.1260  -44.1920 C.3    86  VAL86       0.0252
     38  CG1      -31.5610    8.5310  -43.7640 C.3    86  VAL86       0.0019
     39  CG2      -33.1220    7.2470  -45.1530 C.3    86  VAL86       0.0019
     40  N        -27.2810    3.9380  -43.7110 N.3    88  PHE88      -0.1227
     41  CA       -26.1370    3.5470  -44.5230 C.3    88  PHE88       0.1736
     42  C        -25.6040    4.7350  -45.3110 C.2    88  PHE88       0.2596
     43  O        -24.3890    4.9450  -45.3940 O.2    88  PHE88      -0.2718
     44  CB       -26.5380    2.4110  -45.4580 C.3    88  PHE88       0.0547
     45  CG       -25.4460    1.9600  -46.3650 C.ar   88  PHE88      -0.0202
     46  CD1      -24.5210    1.0300  -45.9390 C.ar   88  PHE88      -0.0042
     47  CD2      -25.3410    2.4670  -47.6460 C.ar   88  PHE88      -0.0042
     48  CE1      -23.5130    0.6110  -46.7730 C.ar   88  PHE88      -0.0003
     49  CE2      -24.3400    2.0490  -48.4860 C.ar   88  PHE88      -0.0003
     50  CZ       -23.4240    1.1220  -48.0510 C.ar   88  PHE88      -0.0000
     51  N        -26.4990    5.5500  -45.8560 N.am   89  GLY89      -0.1942
     52  CA       -26.0600    6.6780  -46.6570 C.3    89  GLY89       0.2014
     53  C        -25.4170    7.7810  -45.8420 C.2    89  GLY89       0.2638
     54  O        -24.5540    8.5080  -46.3420 O.2    89  GLY89      -0.2714
     55  N        -25.8330    7.9410  -44.5880 N.am   90  ILE90      -0.1977
     56  CA       -25.1600    8.9030  -43.7310 C.3    90  ILE90       0.1596
     57  C        -23.7690    8.4000  -43.3890 C.2    90  ILE90       0.2287
     58  O        -22.7890    9.1560  -43.4360 O.2    90  ILE90      -0.2864
     59  CB       -25.9990    9.1620  -42.4710 C.3    90  ILE90       0.0276
     60  CG1      -27.2420    9.9680  -42.8040 C.3    90  ILE90       0.0022
     61  CG2      -25.2050    9.8970  -41.4400 C.3    90  ILE90       0.0022
     62  CD1      -28.0950   10.2180  -41.5810 C.3    90  ILE90       0.0001
     63  N        -21.8540    6.4140  -45.1080 N.3    92  CYS92      -0.1221
     64  CA       -21.0300    6.6240  -46.2980 C.3    92  CYS92       0.1808
     65  C        -20.6750    8.0890  -46.4980 C.2    92  CYS92       0.2601
     66  O        -19.5920    8.3910  -47.0060 O.2    92  CYS92      -0.2717
     67  CB       -21.7450    6.1080  -47.5530 C.3    92  CYS92       0.0970
     68  SG       -22.0950    4.3460  -47.5360 S.3    92  CYS92      -0.0800
     69  N        -21.5650    9.0030  -46.1110 N.am   93  PHE93      -0.1976
     70  CA       -21.3070   10.4240  -46.3110 C.3    93  PHE93       0.1639
     71  C        -20.1080   10.8880  -45.4910 C.2    93  PHE93       0.2290
     72  O        -19.2700   11.6580  -45.9750 O.2    93  PHE93      -0.2864
     73  CB       -22.5610   11.2200  -45.9620 C.3    93  PHE93       0.0560
     74  CG       -22.4800   12.6860  -46.2950 C.ar   93  PHE93      -0.0200
     75  CD1      -22.8520   13.1460  -47.5590 C.ar   93  PHE93      -0.0042
     76  CD2      -22.0890   13.6150  -45.3320 C.ar   93  PHE93      -0.0042
     77  CE1      -22.8080   14.5000  -47.8700 C.ar   93  PHE93      -0.0003
     78  CE2      -22.0460   14.9800  -45.6350 C.ar   93  PHE93      -0.0003
     79  CZ       -22.4090   15.4200  -46.9080 C.ar   93  PHE93      -0.0000
     80  N        -16.2710   10.8280  -46.7040 N.3    96  ILE96      -0.1245
     81  CA       -15.7750   11.7540  -47.7110 C.3    96  ILE96       0.1561
     82  C        -14.8170   12.6970  -47.0130 C.2    96  ILE96       0.2260
     83  O        -15.1380   13.2420  -45.9490 O.2    96  ILE96      -0.2867
     84  CB       -16.9140   12.5470  -48.3780 C.3    96  ILE96       0.0252
     85  CG1      -17.8310   11.6420  -49.1890 C.3    96  ILE96       0.0019
     86  CG2      -16.3580   13.6650  -49.2560 C.3    96  ILE96       0.0019
     87  CD1      -19.1720   12.3370  -49.5930 C.3    96  ILE96       0.0001
     88  N        -26.3140   24.8570  -38.9690 N.3   112  PHE112     -0.1241
     89  CA       -26.3930   23.4420  -39.3100 C.3   112  PHE112      0.1605
     90  C        -26.2360   22.5740  -38.0620 C.2   112  PHE112      0.2264
     91  O        -26.9100   21.5550  -37.9090 O.2   112  PHE112     -0.2867
     92  CB       -25.3610   23.0900  -40.3890 C.3   112  PHE112      0.0534
     93  CG       -25.5480   21.6830  -40.9590 C.ar  112  PHE112     -0.0203
     94  CD1      -26.8220   21.2210  -41.1980 C.ar  112  PHE112     -0.0042
     95  CD2      -24.4740   20.8130  -41.2200 C.ar  112  PHE112     -0.0042
     96  CE1      -27.0660   19.9490  -41.6880 C.ar  112  PHE112     -0.0003
     97  CE2      -24.7060   19.5030  -41.7170 C.ar  112  PHE112     -0.0003
     98  CZ       -26.0140   19.0760  -41.9520 C.ar  112  PHE112     -0.0000
     99  N        -29.1010   19.2600  -36.1320 N.3   116  LEU116     -0.1245
    100  CA       -28.7860   17.8410  -36.3110 C.3   116  LEU116      0.1561
    101  C        -29.1250   16.9510  -35.1130 C.2   116  LEU116      0.2260
    102  O        -29.5030   15.7840  -35.3040 O.2   116  LEU116     -0.2867
    103  CB       -27.3160   17.6760  -36.6830 C.3   116  LEU116      0.0270
    104  CG       -27.0970   17.7920  -38.1880 C.3   116  LEU116      0.0019
    105  CD1      -25.6490   18.0440  -38.4790 C.3   116  LEU116      0.0001
    106  CD2      -27.5970   16.5540  -38.9220 C.3   116  LEU116      0.0001
    107  N        -32.6570   15.7900  -35.8020 N.3   119  ILE119     -0.1245
    108  CA       -32.9150   14.8940  -36.9260 C.3   119  ILE119      0.1561
    109  C        -32.7810   13.4640  -36.4220 C.2   119  ILE119      0.2260
    110  O        -31.6660   12.9800  -36.1990 O.2   119  ILE119     -0.2867
    111  CB       -31.9520   15.1700  -38.0930 C.3   119  ILE119      0.0252
    112  CG1      -32.1680   16.5710  -38.6580 C.3   119  ILE119      0.0019
    113  CG2      -32.1330   14.1330  -39.2250 C.3   119  ILE119      0.0019
    114  CD1      -33.5890   16.7700  -39.0710 C.3   119  ILE119      0.0001
    115  N        -30.5150   10.9860  -38.0010 N.3   122  PHE122     -0.1241
    116  CA       -29.1030   11.3180  -37.8890 C.3   122  PHE122      0.1605
    117  C        -28.5400   10.8860  -36.5420 C.2   122  PHE122      0.2264
    118  O        -27.3770   10.4790  -36.4550 O.2   122  PHE122     -0.2867
    119  CB       -28.8710   12.8100  -38.0940 C.3   122  PHE122      0.0534
    120  CG       -27.4400   13.2130  -37.8790 C.ar  122  PHE122     -0.0203
    121  CD1      -26.5360   13.1860  -38.9280 C.ar  122  PHE122     -0.0042
    122  CD2      -26.9920   13.5800  -36.6240 C.ar  122  PHE122     -0.0042
    123  CE1      -25.2210   13.5370  -38.7360 C.ar  122  PHE122     -0.0003
    124  CE2      -25.6690   13.9240  -36.4190 C.ar  122  PHE122     -0.0003
    125  CZ       -24.7790   13.9040  -37.4760 C.ar  122  PHE122     -0.0000
    126  N        -19.6690   15.1340  -39.7050 N.3   132  PHE132     -0.1241
    127  CA       -20.7420   15.3050  -40.6810 C.3   132  PHE132      0.1605
    128  C        -20.9190   16.7730  -41.0600 C.2   132  PHE132      0.2264
    129  O        -21.0580   17.1060  -42.2420 O.2   132  PHE132     -0.2867
    130  CB       -22.0510   14.7370  -40.1460 C.3   132  PHE132      0.0534
    131  CG       -23.1720   14.7570  -41.1570 C.ar  132  PHE132     -0.0203
    132  CD1      -23.3420   13.7030  -42.0410 C.ar  132  PHE132     -0.0042
    133  CD2      -24.0580   15.8200  -41.2210 C.ar  132  PHE132     -0.0042
    134  CE1      -24.3750   13.7050  -42.9570 C.ar  132  PHE132     -0.0003
    135  CE2      -25.0860   15.8290  -42.1440 C.ar  132  PHE132     -0.0003
    136  CZ       -25.2450   14.7720  -43.0130 C.ar  132  PHE132     -0.0000
    137  N        -13.2940    9.7340  -51.3980 N.3   223  TYR223     -0.1227
    138  CA       -14.2470    8.8060  -50.8070 C.3   223  TYR223      0.1736
    139  C        -13.4850    7.5520  -50.3970 C.2   223  TYR223      0.2598
    140  O        -12.9260    6.8490  -51.2520 O.2   223  TYR223     -0.2717
    141  CB       -15.3660    8.4790  -51.8010 C.3   223  TYR223      0.0548
    142  CG       -16.3180    7.4180  -51.3090 C.ar  223  TYR223     -0.0200
    143  CD1      -17.1800    7.6790  -50.2640 C.ar  223  TYR223     -0.0009
    144  CD2      -16.3040    6.1340  -51.8440 C.ar  223  TYR223     -0.0009
    145  CE1      -18.0200    6.7040  -49.7820 C.ar  223  TYR223      0.0417
    146  CE2      -17.1430    5.1550  -51.3640 C.ar  223  TYR223      0.0417
    147  CZ       -18.0050    5.4510  -50.3440 C.ar  223  TYR223      0.1957
    148  OH       -18.8490    4.4880  -49.8670 O.3   223  TYR223     -0.2866
    149  N        -13.4350    7.2900  -49.0900 N.am  224  LYS224     -0.1934
    150  CA       -12.6450    6.1800  -48.5430 C.3   224  LYS224      0.1812
    151  C        -11.1670    6.3140  -48.9190 C.2   224  LYS224      0.2332
    152  O        -10.6010    5.4300  -49.5890 O.2   224  LYS224     -0.2860
    153  CB       -13.1700    4.8090  -49.0060 C.2   224  LYS224     -0.0016
    154  CG       -14.5630    4.2950  -48.5360 C.2   224  LYS224     -0.0270
    155  CD       -14.9670    2.9580  -49.0760 C.3   224  LYS224      0.0462
    156  CE       -16.3310    2.4970  -48.5610 C.3   224  LYS224      0.1140
    157  NZ       -16.7340    1.1660  -49.1280 N.3   224  LYS224     -0.1310
    158  N        -23.3000    5.2550  -63.1540 N.3   236  PHE236     -0.1227
    159  CA       -23.9840    4.3770  -62.2130 C.3   236  PHE236      0.1736
    160  C        -25.4230    4.8100  -62.0020 C.2   236  PHE236      0.2595
    161  O        -26.3500    4.0020  -62.1320 O.2   236  PHE236     -0.2718
    162  CB       -23.2540    4.3760  -60.8830 C.3   236  PHE236      0.0547
    163  CG       -23.9770    3.6270  -59.8070 C.ar  236  PHE236     -0.0202
    164  CD1      -24.9260    4.2620  -59.0130 C.ar  236  PHE236     -0.0042
    165  CD2      -23.7150    2.2870  -59.5930 C.ar  236  PHE236     -0.0042
    166  CE1      -25.5940    3.5820  -58.0380 C.ar  236  PHE236     -0.0003
    167  CE2      -24.3880    1.5890  -58.5880 C.ar  236  PHE236     -0.0003
    168  CZ       -25.3240    2.2450  -57.8160 C.ar  236  PHE236     -0.0000
    169  N        -25.6070    6.0780  -61.6290 N.am  237  ILE237     -0.1980
    170  CA       -26.9270    6.6590  -61.4890 C.3   237  ILE237      0.1595
    171  C        -27.7040    6.5050  -62.7920 C.2   237  ILE237      0.2287
    172  O        -28.9190    6.2630  -62.7810 O.2   237  ILE237     -0.2864
    173  CB       -26.7720    8.1240  -61.0300 C.3   237  ILE237      0.0276
    174  CG1      -26.3240    8.1550  -59.5760 C.3   237  ILE237      0.0022
    175  CG2      -28.0570    8.9260  -61.2030 C.3   237  ILE237      0.0022
    176  CD1      -26.1800    9.5400  -59.0300 C.3   237  ILE237      0.0001
    177  N        -30.7840    4.2550  -61.9720 N.3   241  TYR241     -0.1241
    178  CA       -31.8640    5.1440  -61.5690 C.3   241  TYR241      0.1605
    179  C        -32.5290    5.8710  -62.7370 C.2   241  TYR241      0.2264
    180  O        -33.7220    5.6550  -62.9990 O.2   241  TYR241     -0.2867
    181  CB       -31.3350    6.1200  -60.5220 C.3   241  TYR241      0.0534
    182  CG       -30.8320    5.3720  -59.3250 C.ar  241  TYR241     -0.0201
    183  CD1      -31.6810    4.5380  -58.6170 C.ar  241  TYR241     -0.0009
    184  CD2      -29.5020    5.4540  -58.9230 C.ar  241  TYR241     -0.0009
    185  CE1      -31.2400    3.8200  -57.5330 C.ar  241  TYR241      0.0417
    186  CE2      -29.0460    4.7370  -57.8130 C.ar  241  TYR241      0.0417
    187  CZ       -29.9270    3.9200  -57.1300 C.ar  241  TYR241      0.1957
    188  OH       -29.5220    3.1880  -56.0370 O.3   241  TYR241     -0.2866
@<TRIPOS>BOND
     1   158   159    1
     2   180   179    2
     3   171   172    2
     4   171   170    1
     5   179   178    1
     6   159   160    1
     7   159   162    1
     8   161   160    2
     9   160   169   am
    10   177   178    1
    11   169   170    1
    12   178   181    1
    13   170   173    1
    14   175   173    1
    15   173   174    1
    16   162   163    1
    17   181   182    1
    18   163   165   ar
    19   163   164   ar
    20   165   167   ar
    21   174   176    1
    22   182   184   ar
    23   182   183   ar
    24   164   166   ar
    25   184   186   ar
    26    28    27    2
    27   183   185   ar
    28   167   168   ar
    29   166   168   ar
    30    27    26    1
    31   186   187   ar
    32   185   187   ar
    33    31    29    1
    34   187   188    1
    35    26    29    1
    36    26    25    1
    37    20    19    2
    38    29    30    1
    39    23    21    1
    40    19    18    1
    41    30    32    1
    42    21    18    1
    43    21    22    1
    44    18    17    1
    45    22    24    1
    46   144   146   ar
    47   144   142   ar
    48   141   142    1
    49   141   138    1
    50   137   138    1
    51   146   147   ar
    52   142   143   ar
    53   140   139    2
    54   138   139    1
    55   139   149   am
    56   147   148    1
    57   147   145   ar
    58   143   145   ar
    59    87    85    1
    60   152   151    2
    61    86    84    1
    62    85    84    1
    63   157   156    1
    64   149   150    1
    65   155   156    1
    66   155   154    1
    67   153   150    1
    68   153   154    2
    69   151   150    1
    70    49    50   ar
    71    49    47   ar
    72    84    81    1
    73    50    48   ar
    74    77    75   ar
    75    77    79   ar
    76    81    82    1
    77    81    80    1
    78    47    45   ar
    79    75    74   ar
    80    67    68    1
    81    67    64    1
    82    82    83    2
    83    66    65    2
    84    79    78   ar
    85    48    46   ar
    86    52    51    1
    87    52    53    1
    88    65    64    1
    89    65    69   am
    90    45    46   ar
    91    45    44    1
    92    54    53    2
    93    70    69    1
    94    70    73    1
    95    70    71    1
    96    64    63    1
    97    74    73    1
    98    74    76   ar
    99    72    71    2
   100    51    42   am
   101    53    55   am
   102    78    76   ar
   103    44    41    1
   104    43    42    2
   105    33    34    1
   106    42    41    1
   107    39    37    1
   108    15    14    1
   109    34    37    1
   110    34    35    1
   111    55    56    1
   112    41    40    1
   113     9    10    1
   114    10    11    1
   115    10    13    1
   116    37    38    1
   117    36    35    2
   118    12    11    2
   119    14    13    1
   120    14    16    1
   121    56    57    1
   122    56    59    1
   123    58    57    2
   124     6     5    1
   125     6     8    1
   126     2     1    1
   127     2     5    1
   128     2     3    1
   129     4     3    2
   130   136   134   ar
   131   136   135   ar
   132   134   132   ar
   133    60    59    1
   134    60    62    1
   135    59    61    1
   136     5     7    1
   137   129   128    2
   138   135   133   ar
   139   132   131   ar
   140    98    97   ar
   141    98    96   ar
   142    97    95   ar
   143    96    94   ar
   144   133   131   ar
   145    95    93   ar
   146    94    93   ar
   147   131   130    1
   148   128   127    1
   149    93    92    1
   150   127   130    1
   151   127   126    1
   152    92    89    1
   153    89    88    1
   154    89    90    1
   155   113   111    1
   156   114   112    1
   157   121   123   ar
   158   121   120   ar
   159   106   104    1
   160   123   125   ar
   161   112   111    1
   162   105   104    1
   163   104   103    1
   164   119   116    1
   165   119   120    1
   166   111   108    1
   167    90    91    2
   168   115   116    1
   169   116   117    1
   170   120   122   ar
   171   125   124   ar
   172   108   109    1
   173   108   107    1
   174   103   100    1
   175   122   124   ar
   176   117   118    2
   177   109   110    2
   178   100    99    1
   179   100   101    1
   180   102   101    2
