@<TRIPOS>MOLECULE
tmp/6br8A00.pdb
 207 196 0 0 0
SMALL
GASTEIGER

@<TRIPOS>ATOM
      1  N        -21.5650    9.0030  -46.1110 N.3    93  PHE93      -0.1241
      2  CA       -21.3070   10.4240  -46.3110 C.3    93  PHE93       0.1605
      3  C        -20.1080   10.8880  -45.4910 C.2    93  PHE93       0.2264
      4  O        -19.2700   11.6580  -45.9750 O.2    93  PHE93      -0.2867
      5  CB       -22.5610   11.2200  -45.9620 C.3    93  PHE93       0.0534
      6  CG       -22.4800   12.6860  -46.2950 C.ar   93  PHE93      -0.0203
      7  CD1      -22.8520   13.1460  -47.5590 C.ar   93  PHE93      -0.0042
      8  CD2      -22.0890   13.6150  -45.3320 C.ar   93  PHE93      -0.0042
      9  CE1      -22.8080   14.5000  -47.8700 C.ar   93  PHE93      -0.0003
     10  CE2      -22.0460   14.9800  -45.6350 C.ar   93  PHE93      -0.0003
     11  CZ       -22.4090   15.4200  -46.9080 C.ar   93  PHE93      -0.0000
     12  N        -16.2710   10.8280  -46.7040 N.3    96  ILE96      -0.1245
     13  CA       -15.7750   11.7540  -47.7110 C.3    96  ILE96       0.1561
     14  C        -14.8170   12.6970  -47.0130 C.2    96  ILE96       0.2260
     15  O        -15.1380   13.2420  -45.9490 O.2    96  ILE96      -0.2867
     16  CB       -16.9140   12.5470  -48.3780 C.3    96  ILE96       0.0252
     17  CG1      -17.8310   11.6420  -49.1890 C.3    96  ILE96       0.0019
     18  CG2      -16.3580   13.6650  -49.2560 C.3    96  ILE96       0.0019
     19  CD1      -19.1720   12.3370  -49.5930 C.3    96  ILE96       0.0001
     20  N        -18.8050   20.6490  -48.7220 N.3   139  LEU139     -0.1245
     21  CA       -19.4290   20.2970  -49.9990 C.3   139  LEU139      0.1561
     22  C        -20.3680   21.3930  -50.4850 C.2   139  LEU139      0.2260
     23  O        -20.2790   21.8370  -51.6330 O.2   139  LEU139     -0.2867
     24  CB       -20.2010   18.9900  -49.8770 C.3   139  LEU139      0.0270
     25  CG       -19.3700   17.7320  -49.9300 C.3   139  LEU139      0.0019
     26  CD1      -20.3530   16.5940  -50.0580 C.3   139  LEU139      0.0001
     27  CD2      -18.4330   17.8160  -51.1340 C.3   139  LEU139      0.0001
     28  N        -18.7350   24.2910  -51.7610 N.3   142  ILE142     -0.1231
     29  CA       -18.1570   24.1060  -53.0880 C.3   142  ILE142      0.1692
     30  C        -19.2350   24.1950  -54.1610 C.2   142  ILE142      0.2591
     31  O        -19.0720   24.9060  -55.1600 O.2   142  ILE142     -0.2718
     32  CB       -17.4040   22.7720  -53.1650 C.3   142  ILE142      0.0266
     33  CG1      -16.0420   22.8920  -52.4820 C.3   142  ILE142      0.0019
     34  CG2      -17.2190   22.3620  -54.6120 C.3   142  ILE142      0.0020
     35  CD1      -15.4950   21.5670  -52.0090 C.3   142  ILE142      0.0001
     36  N        -20.3530   23.4830  -53.9590 N.am  143  VAL143     -0.1980
     37  CA       -21.4330   23.4450  -54.9440 C.3   143  VAL143      0.1595
     38  C        -21.9160   24.8520  -55.2530 C.2   143  VAL143      0.2287
     39  O        -22.0240   25.2480  -56.4220 O.2   143  VAL143     -0.2864
     40  CB       -22.5960   22.5550  -54.4560 C.3   143  VAL143      0.0276
     41  CG1      -23.8260   22.7390  -55.3280 C.3   143  VAL143      0.0022
     42  CG2      -22.2110   21.0640  -54.4480 C.3   143  VAL143      0.0022
     43  N        -19.0990   26.9350  -56.9500 N.3   146  GLU146     -0.1231
     44  CA       -18.8800   26.5600  -58.3360 C.3   146  GLU146      0.1699
     45  C        -20.0440   26.9900  -59.2200 C.2   146  GLU146      0.2592
     46  O        -19.8200   27.4660  -60.3320 O.2   146  GLU146     -0.2718
     47  CB       -18.6090   25.0590  -58.4220 C.3   146  GLU146      0.0402
     48  CG       -17.2750   24.6890  -57.7670 C.3   146  GLU146      0.1161
     49  CD       -16.2040   25.7290  -58.0520 C.2   146  GLU146      0.3649
     50  OE1      -15.9180   26.5780  -57.1630 O.co2 146  GLU146     -0.2457
     51  OE2      -15.6690   25.7100  -59.1800 O.co2 146  GLU146     -0.2457
     52  N        -21.2910   26.8820  -58.7460 N.am  147  ILE147     -0.1980
     53  CA       -22.3970   27.2570  -59.6220 C.3   147  ILE147      0.1595
     54  C        -22.3630   28.7550  -59.9120 C.2   147  ILE147      0.2287
     55  O        -22.7350   29.1990  -61.0090 O.2   147  ILE147     -0.2864
     56  CB       -23.7730   26.8240  -59.0630 C.3   147  ILE147      0.0276
     57  CG1      -23.8820   25.3120  -58.7980 C.3   147  ILE147      0.0022
     58  CG2      -24.8960   27.2420  -60.0160 C.3   147  ILE147      0.0022
     59  CD1      -24.8110   24.9950  -57.6360 C.3   147  ILE147      0.0001
     60  N        -18.6310   26.0470  -66.3480 N.3   153  LEU153     -0.1245
     61  CA       -20.0270   25.7700  -66.0330 C.3   153  LEU153      0.1561
     62  C        -20.9410   26.8510  -66.6060 C.2   153  LEU153      0.2260
     63  O        -22.0420   26.5710  -67.1030 O.2   153  LEU153     -0.2867
     64  CB       -20.1760   25.6820  -64.5160 C.3   153  LEU153      0.0270
     65  CG       -21.1850   24.7310  -63.9020 C.3   153  LEU153      0.0019
     66  CD1      -20.9220   23.3280  -64.4210 C.3   153  LEU153      0.0001
     67  CD2      -21.0530   24.7900  -62.3800 C.3   153  LEU153      0.0001
     68  N        -19.4660   17.9900  -69.1650 N.3   208  LEU208     -0.1245
     69  CA       -20.0350   18.0380  -67.8210 C.3   208  LEU208      0.1561
     70  C        -19.2010   17.2070  -66.8480 C.2   208  LEU208      0.2260
     71  O        -18.8980   17.6370  -65.7330 O.2   208  LEU208     -0.2867
     72  CB       -21.4820   17.5540  -67.8320 C.3   208  LEU208      0.0270
     73  CG       -22.0110   17.5250  -66.4010 C.3   208  LEU208      0.0019
     74  CD1      -22.1330   18.9180  -65.8500 C.3   208  LEU208      0.0001
     75  CD2      -23.3430   16.7900  -66.3920 C.3   208  LEU208      0.0001
     76  N        -17.0240   18.6790  -63.5870 N.3   212  VAL212     -0.1245
     77  CA       -17.2400   18.2120  -62.2260 C.3   212  VAL212      0.1561
     78  C        -16.0280   17.4340  -61.7120 C.2   212  VAL212      0.2260
     79  O        -15.6330   17.5830  -60.5490 O.2   212  VAL212     -0.2867
     80  CB       -18.5450   17.4100  -62.1600 C.3   212  VAL212      0.0252
     81  CG1      -18.8170   16.9190  -60.7460 C.3   212  VAL212      0.0019
     82  CG2      -19.6790   18.3140  -62.6360 C.3   212  VAL212      0.0019
     83  N        -13.4850   19.7570  -60.5310 N.3   215  ILE215     -0.1231
     84  CA       -13.8330   20.3300  -59.2410 C.3   215  ILE215      0.1692
     85  C        -13.4250   19.3830  -58.1280 C.2   215  ILE215      0.2592
     86  O        -12.7580   19.7840  -57.1660 O.2   215  ILE215     -0.2718
     87  CB       -15.3380   20.6590  -59.1800 C.3   215  ILE215      0.0266
     88  CG1      -15.6970   21.7730  -60.1840 C.3   215  ILE215      0.0019
     89  CG2      -15.7400   21.0600  -57.7520 C.3   215  ILE215      0.0020
     90  CD1      -17.2250   22.0610  -60.2690 C.3   215  ILE215      0.0001
     91  N        -13.7950   18.1010  -58.2520 N.am  216  THR216     -0.1953
     92  CA       -13.4470   17.1730  -57.1820 C.3   216  THR216      0.1897
     93  C        -11.9500   17.0080  -57.0730 C.2   216  THR216      0.2313
     94  O        -11.4470   16.8240  -55.9700 O.2   216  THR216     -0.2863
     95  CB       -14.1230   15.8030  -57.3580 C.3   216  THR216      0.1794
     96  OG1      -13.4890   15.0520  -58.4010 O.3   216  THR216     -0.2208
     97  CG2      -15.5800   15.9790  -57.6740 C.3   216  THR216      0.0378
     98  N        -11.1870   15.9340  -53.1200 N.3   221  ILE221     -0.1245
     99  CA       -12.3190   15.2490  -52.5110 C.3   221  ILE221      0.1561
    100  C        -12.1220   13.7510  -52.6650 C.2   221  ILE221      0.2260
    101  O        -12.0840   13.2270  -53.7840 O.2   221  ILE221     -0.2867
    102  CB       -13.6400   15.6930  -53.1520 C.3   221  ILE221      0.0252
    103  CG1      -13.8050   17.2080  -53.0980 C.3   221  ILE221      0.0019
    104  CG2      -14.8070   14.9890  -52.4920 C.3   221  ILE221      0.0019
    105  CD1      -15.2240   17.6710  -53.4800 C.3   221  ILE221      0.0001
    106  N        -13.2940    9.7340  -51.3980 N.3   223  TYR223     -0.1227
    107  CA       -14.2470    8.8060  -50.8070 C.3   223  TYR223      0.1736
    108  C        -13.4850    7.5520  -50.3970 C.2   223  TYR223      0.2598
    109  O        -12.9260    6.8490  -51.2520 O.2   223  TYR223     -0.2717
    110  CB       -15.3660    8.4790  -51.8010 C.3   223  TYR223      0.0548
    111  CG       -16.3180    7.4180  -51.3090 C.ar  223  TYR223     -0.0200
    112  CD1      -17.1800    7.6790  -50.2640 C.ar  223  TYR223     -0.0009
    113  CD2      -16.3040    6.1340  -51.8440 C.ar  223  TYR223     -0.0009
    114  CE1      -18.0200    6.7040  -49.7820 C.ar  223  TYR223      0.0417
    115  CE2      -17.1430    5.1550  -51.3640 C.ar  223  TYR223      0.0417
    116  CZ       -18.0050    5.4510  -50.3440 C.ar  223  TYR223      0.1957
    117  OH       -18.8490    4.4880  -49.8670 O.3   223  TYR223     -0.2866
    118  N        -13.4350    7.2900  -49.0900 N.am  224  LYS224     -0.1934
    119  CA       -12.6450    6.1800  -48.5430 C.3   224  LYS224      0.1812
    120  C        -11.1670    6.3140  -48.9190 C.2   224  LYS224      0.2332
    121  O        -10.6010    5.4300  -49.5890 O.2   224  LYS224     -0.2860
    122  CB       -13.1700    4.8090  -49.0060 C.2   224  LYS224     -0.0016
    123  CG       -14.5630    4.2950  -48.5360 C.2   224  LYS224     -0.0270
    124  CD       -14.9670    2.9580  -49.0760 C.3   224  LYS224      0.0462
    125  CE       -16.3310    2.4970  -48.5610 C.3   224  LYS224      0.1140
    126  NZ       -16.7340    1.1660  -49.1280 N.3   224  LYS224     -0.1310
    127  N         -9.8230    7.6030  -51.2510 N.3   226  ASN226     -0.1240
    128  CA        -9.5690    7.3710  -52.6710 C.3   226  ASN226      0.1653
    129  C        -10.1620    8.4740  -53.5230 C.2   226  ASN226      0.2266
    130  O        -11.1500    9.1020  -53.1510 O.2   226  ASN226     -0.2867
    131  CB       -10.1410    6.0390  -53.1370 C.3   226  ASN226      0.1155
    132  CG        -9.5780    4.8750  -52.3570 C.2   226  ASN226      0.2627
    133  OD1       -8.3600    4.7400  -52.2130 O.2   226  ASN226     -0.2716
    134  ND2      -10.4620    4.0320  -51.8360 N.am  226  ASN226     -0.0877
    135  N        -12.3070   10.3030  -56.2200 N.3   228  VAL228     -0.1231
    136  CA       -13.6930   10.1230  -56.6100 C.3   228  VAL228      0.1692
    137  C        -13.7150    9.9890  -58.1260 C.2   228  VAL228      0.2592
    138  O        -12.9970   10.7110  -58.8320 O.2   228  VAL228     -0.2718
    139  CB       -14.5440   11.3000  -56.0930 C.3   228  VAL228      0.0266
    140  CG1      -15.9750   11.2300  -56.5600 C.3   228  VAL228      0.0020
    141  CG2      -14.5350   11.2980  -54.5750 C.3   228  VAL228      0.0020
    142  N        -14.4800    9.0190  -58.6300 N.am  229  ASP229     -0.1960
    143  CA       -14.5910    8.7840  -60.0720 C.3   229  ASP229      0.1840
    144  C        -15.9560    9.3070  -60.5360 C.2   229  ASP229      0.2621
    145  O        -16.9760    8.6080  -60.4950 O.2   229  ASP229     -0.2715
    146  CB       -14.3730    7.3020  -60.3750 C.3   229  ASP229      0.1450
    147  CG       -14.2800    6.9940  -61.8690 C.2   229  ASP229      0.3671
    148  OD1      -14.8890    7.7150  -62.6950 O.co2 229  ASP229     -0.2456
    149  OD2      -13.6170    5.9900  -62.2110 O.co2 229  ASP229     -0.2456
    150  N        -15.9650   10.5490  -61.0200 N.am  230  ILE230     -0.1977
    151  CA       -17.2170   11.1710  -61.4320 C.3   230  ILE230      0.1596
    152  C        -17.8740   10.3720  -62.5520 C.2   230  ILE230      0.2287
    153  O        -19.0910   10.1070  -62.5260 O.2   230  ILE230     -0.2864
    154  CB       -16.9770   12.6300  -61.8500 C.3   230  ILE230      0.0276
    155  CG1      -16.4500   13.4370  -60.6680 C.3   230  ILE230      0.0022
    156  CG2      -18.2930   13.2480  -62.3220 C.3   230  ILE230      0.0022
    157  CD1      -17.4750   13.4850  -59.4920 C.3   230  ILE230      0.0001
    158  N        -17.6960    7.2580  -63.2940 N.3   232  PHE232     -0.1227
    159  CA       -18.3230    6.0480  -62.7770 C.3   232  PHE232      0.1736
    160  C        -19.5890    6.3470  -61.9710 C.2   232  PHE232      0.2595
    161  O        -20.5820    5.6200  -62.0750 O.2   232  PHE232     -0.2718
    162  CB       -17.3360    5.2860  -61.9210 C.3   232  PHE232      0.0547
    163  CG       -17.9770    4.2250  -61.1250 C.ar  232  PHE232     -0.0202
    164  CD1      -18.2770    3.0100  -61.7130 C.ar  232  PHE232     -0.0042
    165  CD2      -18.2790    4.4240  -59.7900 C.ar  232  PHE232     -0.0042
    166  CE1      -18.8690    2.0040  -60.9760 C.ar  232  PHE232     -0.0003
    167  CE2      -18.8630    3.4300  -59.0560 C.ar  232  PHE232     -0.0003
    168  CZ       -19.1620    2.2180  -59.6450 C.ar  232  PHE232     -0.0000
    169  N        -19.5720    7.3900  -61.1420 N.am  233  ILE233     -0.1980
    170  CA       -20.7760    7.7440  -60.4030 C.3   233  ILE233      0.1595
    171  C        -21.9100    8.0850  -61.3580 C.2   233  ILE233      0.2287
    172  O        -23.0650    7.6760  -61.1540 O.2   233  ILE233     -0.2864
    173  CB       -20.4950    8.9170  -59.4510 C.3   233  ILE233      0.0276
    174  CG1      -19.5790    8.4700  -58.3080 C.3   233  ILE233      0.0022
    175  CG2      -21.8370    9.5100  -58.9510 C.3   233  ILE233      0.0022
    176  CD1      -19.1180    9.5980  -57.4260 C.3   233  ILE233      0.0001
    177  N        -23.3000    5.2550  -63.1540 N.3   236  PHE236     -0.1227
    178  CA       -23.9840    4.3770  -62.2130 C.3   236  PHE236      0.1736
    179  C        -25.4230    4.8100  -62.0020 C.2   236  PHE236      0.2595
    180  O        -26.3500    4.0020  -62.1320 O.2   236  PHE236     -0.2718
    181  CB       -23.2540    4.3760  -60.8830 C.3   236  PHE236      0.0547
    182  CG       -23.9770    3.6270  -59.8070 C.ar  236  PHE236     -0.0202
    183  CD1      -24.9260    4.2620  -59.0130 C.ar  236  PHE236     -0.0042
    184  CD2      -23.7150    2.2870  -59.5930 C.ar  236  PHE236     -0.0042
    185  CE1      -25.5940    3.5820  -58.0380 C.ar  236  PHE236     -0.0003
    186  CE2      -24.3880    1.5890  -58.5880 C.ar  236  PHE236     -0.0003
    187  CZ       -25.3240    2.2450  -57.8160 C.ar  236  PHE236     -0.0000
    188  N        -25.6070    6.0780  -61.6290 N.am  237  ILE237     -0.1980
    189  CA       -26.9270    6.6590  -61.4890 C.3   237  ILE237      0.1595
    190  C        -27.7040    6.5050  -62.7920 C.2   237  ILE237      0.2287
    191  O        -28.9190    6.2630  -62.7810 O.2   237  ILE237     -0.2864
    192  CB       -26.7720    8.1240  -61.0300 C.3   237  ILE237      0.0276
    193  CG1      -26.3240    8.1550  -59.5760 C.3   237  ILE237      0.0022
    194  CG2      -28.0570    8.9260  -61.2030 C.3   237  ILE237      0.0022
    195  CD1      -26.1800    9.5400  -59.0300 C.3   237  ILE237      0.0001
    196  N        -30.7840    4.2550  -61.9720 N.3   241  TYR241     -0.1241
    197  CA       -31.8640    5.1440  -61.5690 C.3   241  TYR241      0.1605
    198  C        -32.5290    5.8710  -62.7370 C.2   241  TYR241      0.2264
    199  O        -33.7220    5.6550  -62.9990 O.2   241  TYR241     -0.2867
    200  CB       -31.3350    6.1200  -60.5220 C.3   241  TYR241      0.0534
    201  CG       -30.8320    5.3720  -59.3250 C.ar  241  TYR241     -0.0201
    202  CD1      -31.6810    4.5380  -58.6170 C.ar  241  TYR241     -0.0009
    203  CD2      -29.5020    5.4540  -58.9230 C.ar  241  TYR241     -0.0009
    204  CE1      -31.2400    3.8200  -57.5330 C.ar  241  TYR241      0.0417
    205  CE2      -29.0460    4.7370  -57.8130 C.ar  241  TYR241      0.0417
    206  CZ       -29.9270    3.9200  -57.1300 C.ar  241  TYR241      0.1957
    207  OH       -29.5220    3.1880  -56.0370 O.3   241  TYR241     -0.2866
@<TRIPOS>BOND
     1    68    69    1
     2    72    69    1
     3    72    73    1
     4    69    70    1
     5    63    62    2
     6    70    71    2
     7    62    61    1
     8    73    75    1
     9    73    74    1
    10    60    61    1
    11    61    64    1
    12    64    65    1
    13    66    65    1
    14    65    67    1
    15    76    77    1
    16   158   159    1
    17   177   178    1
    18   199   198    2
    19   190   191    2
    20   190   189    1
    21   159   160    1
    22   159   162    1
    23   198   197    1
    24   148   147   ar
    25    82    80    1
    26   152   153    2
    27   152   151    1
    28   156   154    1
    29    77    80    1
    30    77    78    1
    31   178   179    1
    32   178   181    1
    33   149   147   ar
    34    80    81    1
    35   180   179    2
    36   161   160    2
    37   179   188   am
    38   196   197    1
    39   160   169   am
    40   162   163    1
    41   147   146    1
    42   154   151    1
    43   154   155    1
    44   164   163   ar
    45   164   166   ar
    46    78    79    2
    47   188   189    1
    48   197   200    1
    49   189   192    1
    50   151   150    1
    51   171   172    2
    52   171   170    1
    53   194   192    1
    54   169   170    1
    55   163   165   ar
    56   192   193    1
    57   150   144   am
    58    55    54    2
    59   166   168   ar
    60   181   182    1
    61   155   157    1
    62   144   145    2
    63   144   143    1
    64    83    84    1
    65   200   201    1
    66   170   173    1
    67   146   143    1
    68    46    45    2
    69    90    88    1
    70    88    87    1
    71   143   142    1
    72    58    56    1
    73    54    53    1
    74   182   184   ar
    75   182   183   ar
    76   165   167   ar
    77   168   167   ar
    78    53    56    1
    79    53    52    1
    80   184   186   ar
    81   193   195    1
    82   173   175    1
    83   173   174    1
    84   201   203   ar
    85   201   202   ar
    86    84    87    1
    87    84    85    1
    88    45    52   am
    89    45    44    1
    90    51    49   ar
    91    87    89    1
    92    56    57    1
    93   183   185   ar
    94   203   205   ar
    95   138   137    2
    96    57    59    1
    97   142   137   am
    98   202   204   ar
    99   186   187   ar
   100    47    44    1
   101    47    48    1
   102    96    95    1
   103    44    43    1
   104   174   176    1
   105    91    85   am
   106    91    92    1
   107    85    86    2
   108   137   136    1
   109    49    48    1
   110    49    50   ar
   111   185   187   ar
   112   205   206   ar
   113    97    95    1
   114   204   206   ar
   115    95    92    1
   116    92    93    1
   117   206   207    1
   118    93    94    2
   119   136   135    1
   120   136   139    1
   121   140   139    1
   122    39    38    2
   123   139   141    1
   124    41    40    1
   125    38    37    1
   126    31    30    2
   127    37    40    1
   128    37    36    1
   129    34    32    1
   130    40    42    1
   131    30    36   am
   132    30    29    1
   133   101   100    2
   134   129   130    2
   135   129   128    1
   136   105   103    1
   137    32    29    1
   138    32    33    1
   139   102   103    1
   140   102    99    1
   141   102   104    1
   142   131   128    1
   143   131   132    1
   144    98    99    1
   145    29    28    1
   146   128   127    1
   147   100    99    1
   148    33    35    1
   149   132   133    2
   150   132   134   am
   151   113   115   ar
   152   113   111   ar
   153   110   111    1
   154   110   107    1
   155    23    22    2
   156   106   107    1
   157   115   116   ar
   158   111   112   ar
   159   109   108    2
   160    27    25    1
   161   107   108    1
   162    22    21    1
   163   108   118   am
   164   116   117    1
   165   116   114   ar
   166   112   114   ar
   167    26    25    1
   168    21    24    1
   169    21    20    1
   170    25    24    1
   171    19    17    1
   172   121   120    2
   173    18    16    1
   174    17    16    1
   175   126   125    1
   176   118   119    1
   177   124   125    1
   178   124   123    1
   179   122   119    1
   180   122   123    2
   181   120   119    1
   182    16    13    1
   183     9     7   ar
   184     9    11   ar
   185    13    14    1
   186    13    12    1
   187     7     6   ar
   188    14    15    2
   189    11    10   ar
   190     2     1    1
   191     2     5    1
   192     2     3    1
   193     6     5    1
   194     6     8   ar
   195     4     3    2
   196    10     8   ar
