@<TRIPOS>MOLECULE
tmp/6br9A04.pdb
 205 196 0 0 0
SMALL
GASTEIGER

@<TRIPOS>ATOM
      1  N         26.9250    6.6300   15.3240 N.3    48  ILE48      -0.1231
      2  CA        27.4920    7.8730   14.8010 C.3    48  ILE48       0.1692
      3  C         27.3900    7.8970   13.2810 C.2    48  ILE48       0.2591
      4  O         27.0410    8.9230   12.6760 O.2    48  ILE48      -0.2718
      5  CB        28.9530    8.0450   15.2480 C.3    48  ILE48       0.0266
      6  CG1       29.0840    8.1880   16.7600 C.3    48  ILE48       0.0019
      7  CG2       29.5580    9.2700   14.5940 C.3    48  ILE48       0.0020
      8  CD1       30.5340    8.0130   17.1920 C.3    48  ILE48       0.0001
      9  N         27.7160    6.7710   12.6410 N.am   49  ILE49      -0.1980
     10  CA        27.5490    6.6600   11.1940 C.3    49  ILE49       0.1595
     11  C         26.1140    6.9720   10.7880 C.2    49  ILE49       0.2287
     12  O         25.8720    7.7460    9.8560 O.2    49  ILE49      -0.2864
     13  CB        27.9800    5.2650   10.7160 C.3    49  ILE49       0.0276
     14  CG1       29.4740    5.0620   10.9580 C.3    49  ILE49       0.0022
     15  CG2       27.6470    5.0600    9.2330 C.3    49  ILE49       0.0022
     16  CD1       29.8770    3.6030   10.8790 C.3    49  ILE49       0.0001
     17  N         24.9300   10.6860   10.3420 N.3    52  PHE52      -0.1227
     18  CA        25.3250   11.3350    9.1050 C.3    52  PHE52       0.1736
     19  C         24.8680   10.5910    7.8650 C.2    52  PHE52       0.2595
     20  O         24.8060   11.1890    6.7890 O.2    52  PHE52      -0.2718
     21  CB        26.8420   11.4900    9.0970 C.3    52  PHE52       0.0547
     22  CG        27.3370   12.3390   10.2180 C.ar   52  PHE52      -0.0202
     23  CD1       27.7500   11.7630   11.4140 C.ar   52  PHE52      -0.0042
     24  CD2       27.3210   13.7330   10.1040 C.ar   52  PHE52      -0.0042
     25  CE1       28.1780   12.5550   12.4680 C.ar   52  PHE52      -0.0003
     26  CE2       27.7470   14.5230   11.1410 C.ar   52  PHE52      -0.0003
     27  CZ        28.1720   13.9330   12.3330 C.ar   52  PHE52      -0.0000
     28  N         24.5560    9.3070    7.9820 N.am   53  ASN53      -0.1974
     29  CA        23.9810    8.5400    6.8830 C.3    53  ASN53       0.1688
     30  C         22.5660    8.1550    7.3100 C.2    53  ASN53       0.2292
     31  O         22.3100    7.0370    7.7510 O.2    53  ASN53      -0.2864
     32  CB        24.8430    7.3250    6.5460 C.3    53  ASN53       0.1181
     33  CG        24.6180    6.8200    5.1290 C.2    53  ASN53       0.2629
     34  OD1       23.4950    6.7930    4.6390 O.2    53  ASN53      -0.2716
     35  ND2       25.6930    6.4290    4.4630 N.am   53  ASN53      -0.0877
     36  N         20.1530    7.5780    5.4550 N.3    55  ASP55      -0.1239
     37  CA        19.6850    6.4960    4.5890 C.3    55  ASP55       0.1674
     38  C         19.9130    5.1100    5.1980 C.2    55  ASP55       0.2266
     39  O         19.1290    4.1870    4.9400 O.2    55  ASP55      -0.2867
     40  CB        20.3780    6.5950    3.2270 C.3    55  ASP55       0.1410
     41  CG        20.0220    5.4510    2.3040 C.2    55  ASP55       0.3668
     42  OD1       18.8340    5.0760    2.2520 O.co2  55  ASP55      -0.2456
     43  OD2       20.9320    4.9300    1.6290 O.co2  55  ASP55      -0.2456
     44  N         27.8680   -3.0180    8.6410 N.3    66  TYR66      -0.1241
     45  CA        28.6530   -2.0900    9.4440 C.3    66  TYR66       0.1605
     46  C         28.9990   -2.6840   10.8060 C.2    66  TYR66       0.2264
     47  O         30.0840   -2.4240   11.3440 O.2    66  TYR66      -0.2867
     48  CB        27.8950   -0.7820    9.6250 C.3    66  TYR66       0.0534
     49  CG        27.9140    0.1900    8.4780 C.ar   66  TYR66      -0.0201
     50  CD1       28.8160    0.0760    7.4250 C.ar   66  TYR66      -0.0009
     51  CD2       27.0340    1.2570    8.4650 C.ar   66  TYR66      -0.0009
     52  CE1       28.8150    1.0100    6.3820 C.ar   66  TYR66       0.0417
     53  CE2       27.0330    2.1850    7.4340 C.ar   66  TYR66       0.0417
     54  CZ        27.9180    2.0600    6.4100 C.ar   66  TYR66       0.1957
     55  OH        27.8710    3.0020    5.4240 O.3    66  TYR66      -0.2866
     56  N         48.1300   24.3070    6.3730 N.3   142  LEU142     -0.1245
     57  CA        47.3430   23.2340    5.7820 C.3   142  LEU142      0.1561
     58  C         45.8510   23.4590    6.0020 C.2   142  LEU142      0.2260
     59  O         45.0540   23.3630    5.0650 O.2   142  LEU142     -0.2867
     60  CB        47.7830   21.8840    6.3540 C.3   142  LEU142      0.0270
     61  CG        46.9090   20.6810    5.9330 C.3   142  LEU142      0.0019
     62  CD1       46.9710   20.4530    4.4080 C.3   142  LEU142      0.0001
     63  CD2       47.3130   19.4070    6.6900 C.3   142  LEU142      0.0001
     64  N         42.8660   24.0520    3.1940 N.3   146  ILE146     -0.1245
     65  CA        41.6440   23.2690    3.1220 C.3   146  ILE146      0.1561
     66  C         40.4370   24.1890    3.1870 C.2   146  ILE146      0.2260
     67  O         39.4590   24.0320    2.4350 O.2   146  ILE146     -0.2867
     68  CB        41.5830   22.2330    4.2600 C.3   146  ILE146      0.0252
     69  CG1       42.6630   21.1500    4.1480 C.3   146  ILE146      0.0019
     70  CG2       40.1400   21.6570    4.3740 C.3   146  ILE146      0.0019
     71  CD1       42.8150   20.2990    5.3090 C.3   146  ILE146      0.0001
     72  N         37.4610   24.4820    0.4450 N.3   150  PHE150     -0.1241
     73  CA        36.0660   24.2780    0.8260 C.3   150  PHE150      0.1605
     74  C         35.1780   25.4210    0.3870 C.2   150  PHE150      0.2264
     75  O         34.0150   25.2170    0.0230 O.2   150  PHE150     -0.2867
     76  CB        35.9340   24.1220    2.3440 C.3   150  PHE150      0.0534
     77  CG        34.5380   23.8360    2.7810 C.ar  150  PHE150     -0.0203
     78  CD1       33.9760   22.5910    2.5530 C.ar  150  PHE150     -0.0042
     79  CD2       33.7620   24.8120    3.3920 C.ar  150  PHE150     -0.0042
     80  CE1       32.6340   22.3190    2.9500 C.ar  150  PHE150     -0.0003
     81  CE2       32.4510   24.5490    3.7810 C.ar  150  PHE150     -0.0003
     82  CZ        31.8850   23.2920    3.5520 C.ar  150  PHE150     -0.0000
     83  N         24.1020   21.3820   11.4820 N.3   170  LEU170     -0.1245
     84  CA        25.3110   20.9030   10.8340 C.3   170  LEU170      0.1561
     85  C         25.1760   19.4290   10.4400 C.2   170  LEU170      0.2260
     86  O         25.5400   19.0330    9.3220 O.2   170  LEU170     -0.2867
     87  CB        26.4990   21.1170   11.7640 C.3   170  LEU170      0.0270
     88  CG        27.9070   20.9290   11.1910 C.3   170  LEU170      0.0019
     89  CD1       28.1380   21.8780   10.0280 C.3   170  LEU170      0.0001
     90  CD2       28.9620   21.1270   12.2700 C.3   170  LEU170      0.0001
     91  N         25.0370   18.0040    6.5000 N.3   174  ILE174     -0.1245
     92  CA        25.8940   16.9370    6.0060 C.3   174  ILE174      0.1561
     93  C         25.0650   15.7440    5.5560 C.2   174  ILE174      0.2260
     94  O         25.2460   15.2240    4.4500 O.2   174  ILE174     -0.2867
     95  CB        26.9160   16.5300    7.0750 C.3   174  ILE174      0.0252
     96  CG1       27.8920   17.6740    7.3060 C.3   174  ILE174      0.0019
     97  CG2       27.6710   15.3110    6.6070 C.3   174  ILE174      0.0019
     98  CD1       28.9800   17.3410    8.3030 C.3   174  ILE174      0.0001
     99  N         25.1480   14.1600    1.5980 N.3   178  ARG178     -0.1231
    100  CA        26.1550   13.2060    2.0540 C.3   178  ARG178      0.1694
    101  C         27.1820   12.9100    0.9660 C.2   178  ARG178      0.2591
    102  O         28.3940   12.9520    1.2230 O.2   178  ARG178     -0.2718
    103  CB        25.4490   11.9290    2.5270 C.3   178  ARG178      0.0321
    104  CG        26.3000   10.7240    2.7460 C.3   178  ARG178      0.0489
    105  CD        25.4080    9.4710    2.9790 C.3   178  ARG178      0.2205
    106  NE        24.2290    9.8440    3.7570 N.pl3 178  ARG178     -0.0865
    107  CZ        22.9720    9.7990    3.3140 C.cat 178  ARG178      0.5346
    108  NH1       21.9900   10.1940    4.1110 N.pl3 178  ARG178      0.1354
    109  NH2       22.7000    9.3510    2.0910 N.pl3 178  ARG178      0.1354
    110  N         26.7180   12.5860   -0.2430 N.am  179  GLU179     -0.1979
    111  CA        27.6430   12.3220   -1.3400 C.3   179  GLU179      0.1602
    112  C         28.6090   13.4970   -1.5490 C.2   179  GLU179      0.2287
    113  O         29.8120   13.2980   -1.7380 O.2   179  GLU179     -0.2864
    114  CB        26.8720   12.0010   -2.6390 C.3   179  GLU179      0.0415
    115  CG        27.8170   12.0150   -3.8750 C.3   179  GLU179      0.1163
    116  CD        27.3560   11.1160   -5.0380 C.2   179  GLU179      0.3649
    117  OE1       26.1360   11.0430   -5.3170 O.co2 179  GLU179     -0.2457
    118  OE2       28.2290   10.4970   -5.6900 O.co2 179  GLU179     -0.2457
    119  N         29.6370   16.0390    0.5590 N.3   181  TYR181     -0.1227
    120  CA        30.6220   16.2430    1.6120 C.3   181  TYR181      0.1736
    121  C         31.5990   15.0870    1.6960 C.2   181  TYR181      0.2595
    122  O         32.7620   15.2960    2.0550 O.2   181  TYR181     -0.2718
    123  CB        29.9340   16.4500    2.9510 C.3   181  TYR181      0.0548
    124  CG        29.3890   17.8540    3.0410 C.ar  181  TYR181     -0.0200
    125  CD1       30.2570   18.9320    3.2170 C.ar  181  TYR181     -0.0009
    126  CD2       28.0180   18.1040    2.9180 C.ar  181  TYR181     -0.0009
    127  CE1       29.7810   20.2360    3.2850 C.ar  181  TYR181      0.0417
    128  CE2       27.5350   19.3920    2.9730 C.ar  181  TYR181      0.0417
    129  CZ        28.4290   20.4640    3.1670 C.ar  181  TYR181      0.1957
    130  OH        27.9780   21.7560    3.2290 O.3   181  TYR181     -0.2866
    131  N         31.1440   13.8810    1.3540 N.am  182  LYS182     -0.1980
    132  CA        32.0550   12.7620    1.2130 C.3   182  LYS182      0.1596
    133  C         33.0840   13.0270    0.1230 C.2   182  LYS182      0.2287
    134  O         34.2740   12.8390    0.3490 O.2   182  LYS182     -0.2864
    135  CB        31.3010   11.4650    0.9030 C.3   182  LYS182      0.0298
    136  CG        32.2930   10.3430    0.5610 C.3   182  LYS182      0.0038
    137  CD        31.6230    9.0110    0.2520 C.3   182  LYS182      0.0206
    138  CE        30.7030    9.0640   -0.9730 C.3   182  LYS182      0.1093
    139  NZ        31.4320    9.3640   -2.2340 N.3   182  LYS182     -0.1314
    140  N         34.0590   15.8730   -1.0560 N.3   184  ILE184     -0.1231
    141  CA        34.9550   16.9480   -0.6490 C.3   184  ILE184      0.1692
    142  C         35.9810   16.4140    0.3450 C.2   184  ILE184      0.2592
    143  O         37.1680   16.7460    0.2660 O.2   184  ILE184     -0.2718
    144  CB        34.1830   18.1390   -0.0500 C.3   184  ILE184      0.0266
    145  CG1       33.3570   18.8700   -1.1020 C.3   184  ILE184      0.0019
    146  CG2       35.1850   19.1550    0.6440 C.3   184  ILE184      0.0020
    147  CD1       32.2380   19.7410   -0.4810 C.3   184  ILE184      0.0001
    148  N         35.5470   15.5790    1.2900 N.am  185  PHE185     -0.1976
    149  CA        36.5210   14.9930    2.2000 C.3   185  PHE185      0.1639
    150  C         37.5860   14.2050    1.4300 C.2   185  PHE185      0.2290
    151  O         38.7720   14.3530    1.6950 O.2   185  PHE185     -0.2864
    152  CB        35.8450   14.0880    3.2340 C.3   185  PHE185      0.0560
    153  CG        36.8220   13.4880    4.2150 C.ar  185  PHE185     -0.0200
    154  CD1       37.0540   14.1000    5.4380 C.ar  185  PHE185     -0.0042
    155  CD2       37.5410   12.3460    3.8950 C.ar  185  PHE185     -0.0042
    156  CE1       37.9720   13.5700    6.3430 C.ar  185  PHE185     -0.0003
    157  CE2       38.4560   11.8040    4.7830 C.ar  185  PHE185     -0.0003
    158  CZ        38.6780   12.4250    6.0140 C.ar  185  PHE185     -0.0000
    159  N         39.9550   16.5890   -0.7210 N.3   188  GLU188     -0.1231
    160  CA        40.8650   17.3500    0.1330 C.3   188  GLU188      0.1699
    161  C         41.9320   16.4550    0.7570 C.2   188  GLU188      0.2592
    162  O         43.0800   16.8750    0.9200 O.2   188  GLU188     -0.2718
    163  CB        40.0700   18.0680    1.2330 C.3   188  GLU188      0.0402
    164  CG        39.1750   19.1860    0.7020 C.3   188  GLU188      0.1161
    165  CD        39.9520   20.2170   -0.1570 C.2   188  GLU188      0.3649
    166  OE1       39.5180   20.5280   -1.2990 O.co2 188  GLU188     -0.2457
    167  OE2       40.9970   20.7300    0.3040 O.co2 188  GLU188     -0.2457
    168  N         41.5490   15.2530    1.1850 N.am  189  TYR189     -0.1976
    169  CA        42.4950   14.3550    1.8280 C.3   189  TYR189      0.1639
    170  C         43.5450   13.8890    0.8240 C.2   189  TYR189      0.2290
    171  O         44.7370   13.9220    1.1120 O.2   189  TYR189     -0.2864
    172  CB        41.7640   13.1530    2.4470 C.3   189  TYR189      0.0560
    173  CG        42.7210   12.1210    2.9900 C.ar  189  TYR189     -0.0198
    174  CD1       43.3070   12.3030    4.2270 C.ar  189  TYR189     -0.0009
    175  CD2       43.0590   10.9630    2.2640 C.ar  189  TYR189     -0.0009
    176  CE1       44.1990   11.3800    4.7530 C.ar  189  TYR189      0.0417
    177  CE2       43.9840   10.0220    2.7830 C.ar  189  TYR189      0.0417
    178  CZ        44.5440   10.2560    4.0460 C.ar  189  TYR189      0.1957
    179  OH        45.4460    9.3900    4.6490 O.3   189  TYR189     -0.2866
    180  N         46.0340   16.7430   -0.1900 N.3   192  HIS192     -0.1241
    181  CA        46.9080   17.2410    0.8600 C.3   192  HIS192      0.1621
    182  C         47.5890   16.1300    1.6310 C.2   192  HIS192      0.2264
    183  O         48.2950   16.4130    2.5920 O.2   192  HIS192     -0.2867
    184  CB        46.1140   18.1460    1.8020 C.3   192  HIS192      0.0745
    185  CG        45.6010   19.3650    1.1090 C.ar  192  HIS192      0.0817
    186  ND1       46.3910   20.4730    0.8810 N.ar  192  HIS192     -0.2268
    187  CD2       44.4010   19.6280    0.5390 C.ar  192  HIS192      0.1154
    188  CE1       45.6940   21.3760    0.2130 C.ar  192  HIS192      0.1986
    189  NE2       44.4870   20.8820   -0.0100 N.ar  192  HIS192     -0.2212
    190  N         49.9850   16.2580    5.0310 N.3   196  LEU196     -0.1245
    191  CA        49.4040   15.7910    6.2910 C.3   196  LEU196      0.1561
    192  C         50.2500   14.6920    6.9300 C.2   196  LEU196      0.2260
    193  O         50.5700   14.7610    8.1170 O.2   196  LEU196     -0.2867
    194  CB        47.9710   15.2790    6.0840 C.3   196  LEU196      0.0270
    195  CG        47.3090   14.7560    7.3930 C.3   196  LEU196      0.0019
    196  CD1       47.1960   15.8760    8.4500 C.3   196  LEU196      0.0001
    197  CD2       45.9090   14.0860    7.1840 C.3   196  LEU196      0.0001
    198  N         33.0200    2.1630    4.4000 N.3   233  LEU233     -0.1245
    199  CA        31.8570    3.0020    4.6580 C.3   233  LEU233      0.1561
    200  C         30.9300    3.0460    3.4400 C.2   233  LEU233      0.2260
    201  O         29.7460    2.6830    3.5200 O.2   233  LEU233     -0.2867
    202  CB        32.3050    4.4160    5.0500 C.3   233  LEU233      0.0270
    203  CG        32.8970    4.5360    6.4580 C.3   233  LEU233      0.0019
    204  CD1       33.6070    5.8620    6.6560 C.3   233  LEU233      0.0001
    205  CD2       31.8010    4.3550    7.5010 C.3   233  LEU233      0.0001
@<TRIPOS>BOND
     1   118   116   ar
     2   117   116   ar
     3   116   115    1
     4   115   114    1
     5   114   111    1
     6   139   138    1
     7   113   112    2
     8   112   111    1
     9   111   110    1
    10   166   165   ar
    11   145   147    1
    12   145   144    1
    13   140   141    1
    14   138   137    1
    15   159   160    1
    16   141   144    1
    17   141   142    1
    18   110   101   am
    19   180   181    1
    20   165   167   ar
    21   165   164    1
    22   144   146    1
    23   189   188   ar
    24   189   187   ar
    25    75    74    2
    26   133   134    2
    27   133   132    1
    28   160   161    1
    29   160   163    1
    30   188   186   ar
    31   137   136    1
    32   143   142    2
    33   142   148   am
    34    74    73    1
    35    72    73    1
    36   187   185   ar
    37   119   120    1
    38   136   135    1
    39   164   163    1
    40   161   162    2
    41   161   168   am
    42   170   171    2
    43   170   169    1
    44    73    76    1
    45   181   182    1
    46   181   184    1
    47   186   185   ar
    48   135   132    1
    49   101   102    2
    50   101   100    1
    51   185   184    1
    52   168   169    1
    53   132   131    1
    54   148   149    1
    55   131   121   am
    56   150   151    2
    57   150   149    1
    58    99   100    1
    59   120   121    1
    60   120   123    1
    61    43    41   ar
    62   182   183    2
    63   121   122    2
    64   169   172    1
    65   100   103    1
    66   109   107    1
    67   149   152    1
    68    42    41   ar
    69   175   177   ar
    70   175   173   ar
    71    41    40    1
    72    76    77    1
    73    67    66    2
    74   172   173    1
    75   103   104    1
    76    78    77   ar
    77    78    80   ar
    78   104   105    1
    79    77    79   ar
    80   177   178   ar
    81   126   128   ar
    82   126   124   ar
    83    80    82   ar
    84   123   124    1
    85   128   129   ar
    86   105   106    1
    87   173   174   ar
    88   124   125   ar
    89    65    66    1
    90    65    64    1
    91    65    68    1
    92   129   130    1
    93   129   127   ar
    94   125   127   ar
    95    40    37    1
    96   152   153    1
    97   107   106    2
    98   107   108    1
    99    79    81   ar
   100   200   201    2
   101   200   199    1
   102    82    81   ar
   103   155   153   ar
   104   155   157   ar
   105   178   179    1
   106   178   176   ar
   107    69    68    1
   108    69    71    1
   109   153   154   ar
   110   174   176   ar
   111    68    70    1
   112   198   199    1
   113    62    61    1
   114    94    93    2
   115    35    33   am
   116    37    38    1
   117    37    36    1
   118    34    33    2
   119   199   202    1
   120   157   158   ar
   121    39    38    2
   122   190   191    1
   123   202   203    1
   124    59    58    2
   125    33    32    1
   126    55    54    1
   127   154   156   ar
   128    93    92    1
   129    57    58    1
   130    57    60    1
   131    57    56    1
   132    61    60    1
   133    61    63    1
   134    92    91    1
   135    92    95    1
   136   158   156   ar
   137   194   191    1
   138   194   195    1
   139   191   192    1
   140    52    54   ar
   141    52    50   ar
   142    54    53   ar
   143   203   204    1
   144   203   205    1
   145    32    29    1
   146    97    95    1
   147    20    19    2
   148    29    30    1
   149    29    28    1
   150   192   193    2
   151    95    96    1
   152   197   195    1
   153    96    98    1
   154    30    31    2
   155   195   196    1
   156    50    49   ar
   157    53    51   ar
   158    19    28   am
   159    19    18    1
   160    51    49   ar
   161    49    48    1
   162    44    45    1
   163    21    18    1
   164    21    22    1
   165    18    17    1
   166    15    13    1
   167    86    85    2
   168    45    48    1
   169    45    46    1
   170    12    11    2
   171    89    88    1
   172    24    22   ar
   173    24    26   ar
   174    22    23   ar
   175    85    84    1
   176    13    14    1
   177    13    10    1
   178    11    10    1
   179    46    47    2
   180    84    83    1
   181    84    87    1
   182    16    14    1
   183    26    27   ar
   184    88    87    1
   185    88    90    1
   186    10     9    1
   187    23    25   ar
   188    27    25   ar
   189     9     3   am
   190     4     3    2
   191     3     2    1
   192     7     5    1
   193     2     5    1
   194     2     1    1
   195     5     6    1
   196     6     8    1
