@<TRIPOS>MOLECULE
tmp/6brbA00.pdb
 98 91 0 0 0
SMALL
GASTEIGER

@<TRIPOS>ATOM
      1  N        -29.2790   13.2540  -21.1620 N.3    17  SER17      -0.1217
      2  CA       -30.3180   14.2820  -21.1940 C.3    17  SER17       0.1889
      3  C        -31.1630   14.3640  -22.4680 C.2    17  SER17       0.2288
      4  O        -32.1740   15.0660  -22.4750 O.2    17  SER17      -0.2866
      5  CB       -29.6760   15.6510  -20.9570 C.3    17  SER17       0.2089
      6  OG       -28.7190   15.9350  -21.9620 O.3    17  SER17      -0.2183
      7  N        -35.3050   22.8470  -17.1300 N.3    71  ILE71      -0.1245
      8  CA       -34.9950   23.4810  -18.4070 C.3    71  ILE71       0.1561
      9  C        -35.0960   22.4450  -19.5310 C.2    71  ILE71       0.2260
     10  O        -34.4930   21.3760  -19.4590 O.2    71  ILE71      -0.2867
     11  CB       -33.6040   24.1480  -18.4060 C.3    71  ILE71       0.0252
     12  CG1      -33.5460   25.2270  -17.3160 C.3    71  ILE71       0.0019
     13  CG2      -33.2980   24.7570  -19.7770 C.3    71  ILE71       0.0019
     14  CD1      -32.1680   25.7950  -17.0650 C.3    71  ILE71       0.0001
     15  N        -34.4550   22.4260  -23.6750 N.3    73  SER73      -0.1217
     16  CA       -33.7920   23.1730  -24.7480 C.3    73  SER73       0.1889
     17  C        -33.9760   22.4300  -26.0810 C.2    73  SER73       0.2288
     18  O        -33.8660   21.1990  -26.1320 O.2    73  SER73      -0.2866
     19  CB       -32.2880   23.3400  -24.4680 C.3    73  SER73       0.2089
     20  OG       -31.9690   23.2690  -23.0900 O.3    73  SER73      -0.2183
     21  N        -32.1710   22.0440  -29.5140 N.3    75  CYS75      -0.1235
     22  CA       -30.8000   22.2390  -29.9970 C.3    75  CYS75       0.1677
     23  C        -30.6290   21.9000  -31.4620 C.2    75  CYS75       0.2270
     24  O        -31.4280   21.1580  -32.0250 O.2    75  CYS75      -0.2867
     25  CB       -29.8430   21.3620  -29.1980 C.3    75  CYS75       0.0956
     26  SG       -29.7290   21.8180  -27.4620 S.3    75  CYS75      -0.0801
     27  N        -22.3170   22.5560  -31.6480 N.3    83  GLU83      -0.1231
     28  CA       -23.7080   22.5200  -31.1900 C.3    83  GLU83       0.1699
     29  C        -24.2050   23.9280  -30.8900 C.2    83  GLU83       0.2592
     30  O        -23.4280   24.8280  -30.5630 O.2    83  GLU83      -0.2718
     31  CB       -23.8890   21.6250  -29.9650 C.3    83  GLU83       0.0402
     32  CG       -24.0780   20.1610  -30.3160 C.3    83  GLU83       0.1161
     33  CD       -24.2790   19.2900  -29.0930 C.2    83  GLU83       0.3649
     34  OE1      -23.5630   19.4930  -28.0890 O.co2  83  GLU83      -0.2457
     35  OE2      -25.1420   18.3910  -29.1360 O.co2  83  GLU83      -0.2457
     36  N        -25.5110   24.1070  -31.0460 N.am   84  ARG84      -0.1966
     37  CA       -26.1560   25.3970  -30.8880 C.3    84  ARG84       0.1729
     38  C        -27.4870   25.1890  -30.1760 C.2    84  ARG84       0.2616
     39  O        -28.1400   24.1560  -30.3490 O.2    84  ARG84      -0.2715
     40  CB       -26.4050   26.0380  -32.2540 C.3    84  ARG84       0.0348
     41  CG       -25.1880   26.1430  -33.1740 C.3    84  ARG84       0.0492
     42  CD       -25.6180   26.3540  -34.6250 C.3    84  ARG84       0.2205
     43  NE       -24.6940   27.1730  -35.4170 N.pl3  84  ARG84      -0.0865
     44  CZ       -24.8500   27.4450  -36.7170 C.cat  84  ARG84       0.5346
     45  NH1      -25.8940   26.9590  -37.4000 N.pl3  84  ARG84       0.1354
     46  NH2      -23.9520   28.2060  -37.3470 N.pl3  84  ARG84       0.1354
     47  N        -27.8710   26.1750  -29.3710 N.am   85  ILE85      -0.1977
     48  CA       -29.1950   26.2280  -28.7600 C.3    85  ILE85       0.1596
     49  C        -30.0440   27.2210  -29.5490 C.2    85  ILE85       0.2287
     50  O        -29.5730   28.2960  -29.9240 O.2    85  ILE85      -0.2864
     51  CB       -29.1030   26.6200  -27.2710 C.3    85  ILE85       0.0276
     52  CG1      -28.6070   25.4190  -26.4520 C.3    85  ILE85       0.0022
     53  CG2      -30.4510   27.0860  -26.7360 C.3    85  ILE85       0.0022
     54  CD1      -27.9700   25.8000  -25.1350 C.3    85  ILE85       0.0001
     55  N        -35.1840   27.7860  -25.5760 N.3    88  ARG88      -0.1245
     56  CA       -35.1930   27.2210  -24.2260 C.3    88  ARG88       0.1563
     57  C        -36.4060   27.6750  -23.4320 C.2    88  ARG88       0.2260
     58  O        -36.9510   28.7580  -23.6630 O.2    88  ARG88      -0.2867
     59  CB       -33.9480   27.6270  -23.4570 C.3    88  ARG88       0.0307
     60  CG       -32.6470   27.2940  -24.1510 C.3    88  ARG88       0.0489
     61  CD       -31.4740   27.4650  -23.2070 C.3    88  ARG88       0.2205
     62  NE       -31.1330   26.2110  -22.5520 N.pl3  88  ARG88      -0.0865
     63  CZ       -30.0630   26.0270  -21.7830 C.cat  88  ARG88       0.5346
     64  NH1      -29.2040   27.0170  -21.5290 N.pl3  88  ARG88       0.1354
     65  NH2      -29.8540   24.8300  -21.2490 N.pl3  88  ARG88       0.1354
     66  N        -32.6880   18.5100  -31.9940 N.3   119  PHE119     -0.1241
     67  CA       -33.0890   17.6370  -30.9010 C.3   119  PHE119      0.1605
     68  C        -33.4690   18.4190  -29.6520 C.2   119  PHE119      0.2264
     69  O        -33.0980   19.5820  -29.4890 O.2   119  PHE119     -0.2867
     70  CB       -31.9920   16.6140  -30.5970 C.3   119  PHE119      0.0534
     71  CG       -30.7030   17.2170  -30.1050 C.ar  119  PHE119     -0.0203
     72  CD1      -29.6750   17.5140  -30.9860 C.ar  119  PHE119     -0.0042
     73  CD2      -30.5120   17.4680  -28.7450 C.ar  119  PHE119     -0.0042
     74  CE1      -28.4880   18.0660  -30.5230 C.ar  119  PHE119     -0.0003
     75  CE2      -29.3290   18.0130  -28.2740 C.ar  119  PHE119     -0.0003
     76  CZ       -28.3170   18.3130  -29.1640 C.ar  119  PHE119     -0.0000
     77  N        -33.5850   18.3380  -25.4410 N.3   121  ASN121     -0.1225
     78  CA       -33.0150   17.7550  -24.2220 C.3   121  ASN121      0.1785
     79  C        -33.5230   18.4770  -22.9830 C.2   121  ASN121      0.2597
     80  O        -34.0530   19.5800  -23.0750 O.2   121  ASN121     -0.2718
     81  CB       -31.4760   17.7340  -24.2710 C.3   121  ASN121      0.1169
     82  CG       -30.8560   19.1200  -24.3190 C.2   121  ASN121      0.2627
     83  OD1      -31.5320   20.1160  -24.5830 O.2   121  ASN121     -0.2716
     84  ND2      -29.5470   19.1800  -24.0660 N.am  121  ASN121     -0.0877
     85  N        -33.3570   17.8260  -21.8330 N.am  122  VAL122     -0.1966
     86  CA       -33.9000   18.2950  -20.5530 C.3   122  VAL122      0.1727
     87  C        -32.9380   18.0730  -19.4020 C.2   122  VAL122      0.2616
     88  O        -32.0450   17.2370  -19.4750 O.2   122  VAL122     -0.2715
     89  CB       -35.2210   17.5930  -20.1920 C.3   122  VAL122      0.0290
     90  CG1      -36.2700   17.8670  -21.2510 C.3   122  VAL122      0.0023
     91  CG2      -35.0210   16.0930  -19.9890 C.3   122  VAL122      0.0023
     92  N        -33.1630   18.8190  -18.3290 N.am  123  THR123     -0.1951
     93  CA       -32.3370   18.7540  -17.1300 C.3   123  THR123      0.1897
     94  C        -32.4360   17.4080  -16.4210 C.2   123  THR123      0.2313
     95  O        -31.4170   16.8320  -16.0380 O.2   123  THR123     -0.2863
     96  CB       -32.7410   19.8470  -16.1330 C.3   123  THR123      0.1794
     97  OG1      -34.1720   19.9120  -16.0680 O.3   123  THR123     -0.2208
     98  CG2      -32.1680   21.1900  -16.5540 C.3   123  THR123      0.0378
@<TRIPOS>BOND
     1    45    44    1
     2    46    44    1
     3    44    43    2
     4    43    42    1
     5    42    41    1
     6    41    40    1
     7    40    37    1
     8    24    23    2
     9    66    67    1
    10    27    28    1
    11    23    22    1
    12    28    29    1
    13    28    31    1
    14    36    29   am
    15    36    37    1
    16    72    74   ar
    17    72    71   ar
    18    67    70    1
    19    67    68    1
    20    29    30    2
    21    37    38    1
    22    70    71    1
    23    74    76   ar
    24    39    38    2
    25    32    31    1
    26    32    33    1
    27    38    47   am
    28    71    73   ar
    29    22    21    1
    30    22    25    1
    31    50    49    2
    32    68    69    2
    33    49    48    1
    34    47    48    1
    35    25    26    1
    36    76    75   ar
    37    35    33   ar
    38    33    34   ar
    39    48    51    1
    40    73    75   ar
    41    51    53    1
    42    51    52    1
    43    52    54    1
    44    18    17    2
    45    17    16    1
    46    55    56    1
    47    77    78    1
    48    16    19    1
    49    16    15    1
    50    83    82    2
    51    19    20    1
    52    82    81    1
    53    82    84   am
    54    81    78    1
    55    56    59    1
    56    56    57    1
    57    78    79    1
    58    60    59    1
    59    60    61    1
    60    58    57    2
    61    61    62    1
    62    80    79    2
    63    79    85   am
    64    62    63    2
    65     4     3    2
    66     3     2    1
    67     6     5    1
    68    85    86    1
    69    63    64    1
    70    63    65    1
    71    90    89    1
    72     2     1    1
    73     2     5    1
    74    86    89    1
    75    86    87    1
    76    89    91    1
    77    13    11    1
    78     9    10    2
    79     9     8    1
    80    88    87    2
    81    87    92   am
    82     8    11    1
    83     8     7    1
    84    11    12    1
    85    92    93    1
    86    12    14    1
    87    93    94    1
    88    93    96    1
    89    98    96    1
    90    94    95    2
    91    96    97    1
