@<TRIPOS>MOLECULE
tmp/6brcA00.pdb
 177 168 0 0 0
SMALL
GASTEIGER

@<TRIPOS>ATOM
      1  N          7.0810   30.5450  -17.5040 N.3    12  GLU12      -0.1231
      2  CA         6.4890   29.4820  -16.7650 C.3    12  GLU12       0.1699
      3  C          6.7540   29.8050  -15.3220 C.2    12  GLU12       0.2592
      4  O          7.8950   30.1320  -14.9530 O.2    12  GLU12      -0.2718
      5  CB         7.1310   28.1230  -17.1050 C.3    12  GLU12       0.0402
      6  CG         6.4970   26.9480  -16.3730 C.3    12  GLU12       0.1161
      7  CD         7.2580   25.6360  -16.5280 C.2    12  GLU12       0.3649
      8  OE1        7.1260   25.0210  -17.6070 O.co2  12  GLU12      -0.2457
      9  OE2        7.9370   25.2040  -15.5430 O.co2  12  GLU12      -0.2457
     10  N          5.7130   29.7000  -14.5060 N.am   13  ILE13      -0.1966
     11  CA         5.8850   29.8580  -13.0460 C.3    13  ILE13       0.1727
     12  C          5.7990   28.5280  -12.3220 C.2    13  ILE13       0.2617
     13  O          6.3640   28.3710  -11.2670 O.2    13  ILE13      -0.2715
     14  CB         4.9660   30.9540  -12.4290 C.3    13  ILE13       0.0290
     15  CG1        3.5690   30.9390  -13.0190 C.3    13  ILE13       0.0022
     16  CG2        5.6170   32.3310  -12.6250 C.3    13  ILE13       0.0023
     17  CD1        2.5550   31.7490  -12.2190 C.3    13  ILE13       0.0001
     18  N          5.0900   27.5660  -12.8830 N.am   14  GLY14      -0.1940
     19  CA         5.2570   26.1890  -12.4640 C.3    14  GLY14       0.2014
     20  C          4.4900   25.2170  -13.3150 C.2    14  GLY14       0.2639
     21  O          4.0520   25.5520  -14.4360 O.2    14  GLY14      -0.2714
     22  N          4.3680   24.0010  -12.7860 N.am   15  LYS15      -0.1963
     23  CA         3.5930   22.9470  -13.4210 C.3    15  LYS15       0.1728
     24  C          2.6110   22.4260  -12.4040 C.2    15  LYS15       0.2616
     25  O          2.8850   22.4170  -11.2060 O.2    15  LYS15      -0.2715
     26  CB         4.4980   21.8050  -13.9050 C.3    15  LYS15       0.0311
     27  CG         5.2490   22.1870  -15.1450 C.3    15  LYS15       0.0038
     28  CD         5.8030   20.8480  -15.5510 C.3    15  LYS15       0.0206
     29  CE         7.1880   20.9160  -16.1040 C.3    15  LYS15       0.1093
     30  NZ         7.3050   21.8030  -17.2400 N.3    15  LYS15      -0.1314
     31  N          1.4360   22.0450  -12.8870 N.am   16  GLY16      -0.1955
     32  CA         0.5160   21.2370  -12.1160 C.3    16  GLY16       0.1869
     33  C          0.6770   19.8090  -12.5890 C.2    16  GLY16       0.2309
     34  O          1.6870   19.4610  -13.2060 O.2    16  GLY16      -0.2863
     35  N          1.7120   26.3090  -15.8120 N.3    21  VAL21      -0.1245
     36  CA         1.1830   27.5750  -15.3330 C.3    21  VAL21       0.1561
     37  C          2.1210   28.6940  -15.7110 C.2    21  VAL21       0.2260
     38  O          3.2970   28.7050  -15.3050 O.2    21  VAL21      -0.2867
     39  CB         0.9780   27.5640  -13.8130 C.3    21  VAL21       0.0252
     40  CG1        0.3480   28.8630  -13.3570 C.3    21  VAL21       0.0019
     41  CG2        0.0990   26.3650  -13.4230 C.3    21  VAL21       0.0019
     42  N          2.8110   32.9360  -16.0170 N.3    23  LEU23      -0.1245
     43  CA         2.5080   34.3370  -15.8060 C.3    23  LEU23       0.1561
     44  C          1.9730   34.9160  -17.1060 C.2    23  LEU23       0.2260
     45  O          2.5350   34.6530  -18.1810 O.2    23  LEU23      -0.2867
     46  CB         3.7780   35.0630  -15.3940 C.3    23  LEU23       0.0270
     47  CG         3.5710   36.5320  -15.0880 C.3    23  LEU23       0.0019
     48  CD1        2.9360   36.7460  -13.7060 C.3    23  LEU23       0.0001
     49  CD2        4.8990   37.2660  -15.2210 C.3    23  LEU23       0.0001
     50  N         -2.3320   34.4160  -13.6460 N.3    34  ALA34      -0.1245
     51  CA        -1.7200   33.0880  -13.7370 C.3    34  ALA34       0.1562
     52  C         -2.5750   32.3150  -14.7310 C.2    34  ALA34       0.2260
     53  O         -3.8100   32.2770  -14.6110 O.2    34  ALA34      -0.2867
     54  CB        -1.7190   32.4200  -12.3760 C.3    34  ALA34       0.0290
     55  N         -3.1940   28.6700  -16.4280 N.3    36  LYS36      -0.1245
     56  CA        -2.9810   27.2140  -16.5480 C.3    36  LYS36       0.1561
     57  C         -3.2370   26.8520  -17.9980 C.2    36  LYS36       0.2260
     58  O         -4.3240   27.1030  -18.5030 O.2    36  LYS36      -0.2867
     59  CB        -3.9120   26.4230  -15.6330 C.3    36  LYS36       0.0271
     60  CG        -3.4890   24.9360  -15.6190 C.3    36  LYS36       0.0035
     61  CD        -4.3980   24.2580  -14.5940 C.3    36  LYS36       0.0206
     62  CE        -3.8160   22.9160  -14.2430 C.3    36  LYS36       0.1093
     63  NZ        -4.6520   22.1980  -13.2410 N.3    36  LYS36      -0.1314
     64  N         -8.1290   30.9750   -4.1420 N.3    66  VAL66      -0.1245
     65  CA        -7.8470   31.4490   -5.5200 C.3    66  VAL66       0.1561
     66  C         -9.1240   31.6550   -6.3410 C.2    66  VAL66       0.2260
     67  O        -10.0810   30.9150   -6.1870 O.2    66  VAL66      -0.2867
     68  CB        -6.9080   30.5100   -6.3150 C.3    66  VAL66       0.0252
     69  CG1       -5.5170   30.4760   -5.7100 C.3    66  VAL66       0.0019
     70  CG2       -7.4800   29.0920   -6.4410 C.3    66  VAL66       0.0019
     71  N         -6.4360   32.4840  -13.7820 N.3    84  PHE84      -0.1227
     72  CA        -6.5950   32.7740  -12.3600 C.3    84  PHE84       0.1736
     73  C         -6.0260   34.1530  -12.0130 C.2    84  PHE84       0.2595
     74  O         -5.1280   34.6460  -12.7020 O.2    84  PHE84      -0.2718
     75  CB        -5.8420   31.7250  -11.5410 C.3    84  PHE84       0.0547
     76  CG        -6.4130   30.3500  -11.6600 C.ar   84  PHE84      -0.0202
     77  CD1       -5.9840   29.4880  -12.6590 C.ar   84  PHE84      -0.0042
     78  CD2       -7.4090   29.9250  -10.7800 C.ar   84  PHE84      -0.0042
     79  CE1       -6.5320   28.2140  -12.7690 C.ar   84  PHE84      -0.0003
     80  CE2       -7.9440   28.6560  -10.8740 C.ar   84  PHE84      -0.0003
     81  CZ        -7.5050   27.7970  -11.8710 C.ar   84  PHE84      -0.0000
     82  N         -6.5420   34.7490  -10.9370 N.am   85  GLU85      -0.1965
     83  CA        -5.9100   35.9000  -10.3160 C.3    85  GLU85       0.1733
     84  C         -4.5280   35.5010   -9.8180 C.2    85  GLU85       0.2616
     85  O         -4.3630   34.4580   -9.2120 O.2    85  GLU85      -0.2715
     86  CB        -6.7750   36.4630   -9.1790 C.3    85  GLU85       0.0429
     87  CG        -8.0850   37.0910   -9.6920 C.3    85  GLU85       0.1163
     88  CD        -8.8410   37.9330   -8.6460 C.2    85  GLU85       0.3649
     89  OE1       -8.6200   37.7010   -7.4230 O.co2  85  GLU85      -0.2457
     90  OE2       -9.6860   38.8070   -9.0490 O.co2  85  GLU85      -0.2457
     91  N         -3.5200   36.2900  -10.1400 N.am   86  LEU86      -0.1963
     92  CA        -2.1830   35.9800   -9.7060 C.3    86  LEU86       0.1728
     93  C         -2.0470   36.2580   -8.2130 C.2    86  LEU86       0.2616
     94  O         -2.4680   37.3040   -7.7100 O.2    86  LEU86      -0.2715
     95  CB        -1.1500   36.7870  -10.4650 C.3    86  LEU86       0.0311
     96  CG         0.3180   36.4010  -10.1910 C.3    86  LEU86       0.0022
     97  CD1        0.6920   35.0770  -10.8310 C.3    86  LEU86       0.0001
     98  CD2        1.2510   37.5100  -10.6740 C.3    86  LEU86       0.0001
     99  N         -1.4130   35.3200   -7.5240 N.am   87  VAL87      -0.1963
    100  CA        -1.1130   35.4390   -6.1120 C.3    87  VAL87       0.1727
    101  C          0.4060   35.6150   -6.0910 C.2    87  VAL87       0.2616
    102  O          1.1770   34.6360   -6.2360 O.2    87  VAL87      -0.2715
    103  CB        -1.6260   34.2050   -5.3560 C.3    87  VAL87       0.0290
    104  CG1       -1.6010   34.4680   -3.8740 C.3    87  VAL87       0.0023
    105  CG2       -3.0470   33.8560   -5.8140 C.3    87  VAL87       0.0023
    106  N          0.8330   36.8740   -5.9440 N.am   88  ASN88      -0.1958
    107  CA         2.1340   37.2980   -6.4840 C.3    88  ASN88       0.1819
    108  C          3.3840   36.8410   -5.7180 C.2    88  ASN88       0.2621
    109  O          4.4800   36.8130   -6.2840 O.2    88  ASN88      -0.2715
    110  CB         2.1630   38.8140   -6.7390 C.3    88  ASN88       0.1195
    111  CG         2.0850   39.6330   -5.4590 C.2    88  ASN88       0.2630
    112  OD1        1.0000   39.8460   -4.9040 O.2    88  ASN88      -0.2716
    113  ND2        3.2480   40.1010   -4.9870 N.am   88  ASN88      -0.0877
    114  N          3.2370   36.4450   -4.4580 N.am   89  GLN89      -0.1963
    115  CA         4.3900   35.9590   -3.6930 C.3    89  GLN89       0.1733
    116  C          4.6680   34.4670   -3.7950 C.2    89  GLN89       0.2617
    117  O          5.6790   34.0030   -3.3020 O.2    89  GLN89      -0.2715
    118  CB         4.2860   36.3810   -2.2400 C.3    89  GLN89       0.0408
    119  CG         3.9920   37.8860   -2.0890 C.3    89  GLN89       0.0908
    120  CD         4.8320   38.5660   -1.0520 C.2    89  GLN89       0.2608
    121  OE1        6.0580   38.6020   -1.1920 O.2    89  GLN89      -0.2717
    122  NE2        4.1890   39.0920    0.0050 N.am   89  GLN89      -0.0878
    123  N          3.8020   33.7120   -4.4570 N.am   90  GLY90      -0.1941
    124  CA         4.0170   32.2680   -4.5910 C.3    90  GLY90       0.1998
    125  C          3.7260   31.5170   -3.2910 C.2    90  GLY90       0.2480
    126  O          3.1370   32.0840   -2.3520 O.2    90  GLY90      -0.2729
    127  N          4.1190   30.2360   -3.2270 N.am   91  PRO91      -0.2726
    128  CA         3.8270   29.3960   -2.0700 C.3    91  PRO91       0.1402
    129  C          4.3960   29.9170   -0.7580 C.2    91  PRO91       0.2269
    130  O          5.3850   30.6410   -0.7680 O.2    91  PRO91      -0.2865
    131  CB         4.4940   28.0780   -2.4290 C.3    91  PRO91       0.0296
    132  CG         4.4780   28.0540   -3.9160 C.3    91  PRO91       0.0237
    133  CD         4.7560   29.4560   -4.3080 C.3    91  PRO91       0.0939
    134  N          8.7250   26.1350    0.7410 N.3    94  GLU94      -0.1245
    135  CA         9.1500   24.8690    0.1390 C.3    94  GLU94       0.1567
    136  C          9.4350   23.9020    1.2740 C.2    94  GLU94       0.2260
    137  O          9.9520   24.2920    2.3140 O.2    94  GLU94      -0.2867
    138  CB        10.3840   25.0690   -0.7550 C.3    94  GLU94       0.0388
    139  CG        10.2760   26.2110   -1.7730 C.3    94  GLU94       0.1160
    140  CD         9.1940   26.0040   -2.8240 C.2    94  GLU94       0.3649
    141  OE1        8.8870   24.8470   -3.1730 O.co2  94  GLU94      -0.2457
    142  OE2        8.6530   27.0060   -3.3210 O.co2  94  GLU94      -0.2457
    143  N          2.6990   23.8650   -0.4900 N.3   133  SER133     -0.1202
    144  CA         2.8320   24.3020   -1.8800 C.3   133  SER133      0.2020
    145  C          1.5020   24.6660   -2.5470 C.2   133  SER133      0.2618
    146  O          1.5070   25.3200   -3.5870 O.2   133  SER133     -0.2717
    147  CB         3.5840   23.2860   -2.7010 C.3   133  SER133      0.2103
    148  OG         3.0890   21.9990   -2.4620 O.3   133  SER133     -0.2182
    149  N          0.3640   24.2650   -1.9640 N.am  134  ASN134     -0.1974
    150  CA        -0.9510   24.7560   -2.4360 C.3   134  ASN134      0.1688
    151  C         -1.5120   26.0040   -1.7150 C.2   134  ASN134      0.2292
    152  O         -2.6670   26.4080   -1.9560 O.2   134  ASN134     -0.2864
    153  CB        -1.9600   23.6120   -2.4340 C.3   134  ASN134      0.1181
    154  CG        -1.6200   22.5660   -3.4710 C.2   134  ASN134      0.2629
    155  OD1       -0.9140   22.8620   -4.4390 O.2   134  ASN134     -0.2716
    156  ND2       -2.0990   21.3380   -3.2800 N.am  134  ASN134     -0.0877
    157  N         -0.8920   29.8370   -1.3440 N.3   136  LEU136     -0.1245
    158  CA        -0.1750   30.8840   -2.0450 C.3   136  LEU136      0.1561
    159  C         -0.3080   32.1870   -1.2790 C.2   136  LEU136      0.2260
    160  O         -1.4000   32.5790   -0.9300 O.2   136  LEU136     -0.2867
    161  CB        -0.6980   31.0390   -3.4680 C.3   136  LEU136      0.0270
    162  CG        -0.7080   29.7830   -4.3560 C.3   136  LEU136      0.0019
    163  CD1       -1.2860   30.0700   -5.7290 C.3   136  LEU136      0.0001
    164  CD2        0.6840   29.2310   -4.5340 C.3   136  LEU136      0.0001
    165  N         -5.1630   27.0500   -3.1410 N.3   146  ALA146     -0.1231
    166  CA        -5.1440   26.7400   -4.5570 C.3   146  ALA146      0.1694
    167  C         -5.1980   25.2040   -4.8340 C.2   146  ALA146      0.2592
    168  O         -5.0610   24.3370   -3.9020 O.2   146  ALA146     -0.2718
    169  CB        -3.8760   27.2940   -5.1340 C.3   146  ALA146      0.0304
    170  N         -5.3730   24.9240   -6.1350 N.am  147  ASP147     -0.1974
    171  CA        -5.3730   23.5610   -6.7320 C.3   147  ASP147      0.1709
    172  C         -6.4770   22.6120   -6.2730 C.2   147  ASP147      0.2293
    173  O         -6.2430   21.7110   -5.4460 O.2   147  ASP147     -0.2864
    174  CB        -4.0040   22.8860   -6.6150 C.3   147  ASP147      0.1436
    175  CG        -3.8630   21.6360   -7.5320 C.2   147  ASP147      0.3671
    176  OD1       -4.8700   21.1960   -8.1500 O.co2 147  ASP147     -0.2456
    177  OD2       -2.7640   21.0240   -7.5410 O.co2 147  ASP147     -0.2456
@<TRIPOS>BOND
     1    58    57    2
     2    45    44    2
     3    57    56    1
     4     8     7   ar
     5     1     2    1
     6    30    29    1
     7    44    43    1
     8     5     2    1
     9     5     6    1
    10     2     3    1
    11    56    55    1
    12    56    59    1
    13     7     6    1
    14     7     9   ar
    15    29    28    1
    16    42    43    1
    17    35    36    1
    18    43    46    1
    19    37    36    1
    20    37    38    2
    21    59    60    1
    22    60    61    1
    23    28    27    1
    24    46    47    1
    25    36    39    1
    26     3     4    2
    27     3    10   am
    28    49    47    1
    29    27    26    1
    30    47    48    1
    31    52    53    2
    32    52    51    1
    33    61    62    1
    34    10    11    1
    35    21    20    2
    36    62    63    1
    37    26    23    1
    38    39    41    1
    39    39    40    1
    40    71    72    1
    41    51    50    1
    42    51    54    1
    43    23    22    1
    44    23    24    1
    45    20    22   am
    46    20    19    1
    47    34    33    2
    48    11    14    1
    49    11    12    1
    50    15    14    1
    51    15    17    1
    52    31    24   am
    53    31    32    1
    54    18    19    1
    55    18    12   am
    56    79    77   ar
    57    79    81   ar
    58    74    73    2
    59    77    76   ar
    60    16    14    1
    61    33    32    1
    62    24    25    2
    63    72    73    1
    64    72    75    1
    65    12    13    2
    66    73    82   am
    67    81    80   ar
    68    76    75    1
    69    76    78   ar
    70    82    83    1
    71    80    78   ar
    72    97    96    1
    73    98    96    1
    74    95    96    1
    75    95    92    1
    76    83    84    1
    77    83    86    1
    78    91    84   am
    79    91    92    1
    80    84    85    2
    81    92    93    1
    82    87    86    1
    83    87    88    1
    84    90    88   ar
    85    88    89   ar
    86    93    94    2
    87    93    99   am
    88   176   175   ar
    89   177   175   ar
    90   175   174    1
    91    99   100    1
    92   110   107    1
    93   110   111    1
    94   171   174    1
    95   171   172    1
    96   171   170    1
    97   107   106    1
    98   107   108    1
    99    70    68    1
   100    66    67    2
   101    66    65    1
   102    68    69    1
   103    68    65    1
   104   109   108    2
   105   172   173    2
   106   102   101    2
   107   170   167   am
   108   100   101    1
   109   100   103    1
   110   101   106   am
   111   105   103    1
   112   163   162    1
   113   108   114   am
   114    65    64    1
   115   111   113   am
   116   111   112    2
   117   103   104    1
   118   169   166    1
   119   167   166    1
   120   167   168    2
   121   124   123    1
   122   124   125    1
   123   166   165    1
   124   164   162    1
   125   114   115    1
   126   123   116   am
   127   155   154    2
   128   162   161    1
   129   133   132    1
   130   133   127    1
   131   132   131    1
   132   116   115    1
   133   116   117    2
   134   115   118    1
   135   146   145    2
   136   154   156   am
   137   154   153    1
   138   161   158    1
   139   142   140   ar
   140   125   127   am
   141   125   126    2
   142   127   128    1
   143   141   140   ar
   144   140   139    1
   145   147   148    1
   146   147   144    1
   147   145   149   am
   148   145   144    1
   149   150   153    1
   150   150   149    1
   151   150   151    1
   152   131   128    1
   153   118   119    1
   154   119   120    1
   155   128   129    1
   156   158   157    1
   157   158   159    1
   158   152   151    2
   159   144   143    1
   160   139   138    1
   161   159   160    2
   162   121   120    2
   163   120   122   am
   164   130   129    2
   165   138   135    1
   166   135   134    1
   167   135   136    1
   168   136   137    2
