@<TRIPOS>MOLECULE
tmp/6brfD01.pdb
 152 142 0 0 0
SMALL
GASTEIGER

@<TRIPOS>ATOM
      1  N         10.9440   -3.8980   30.2240 N.3   236  VAL236     -0.1245
      2  CA        11.9760   -4.1200   29.2150 C.3   236  VAL236      0.1561
      3  C         12.7510   -5.4040   29.4660 C.2   236  VAL236      0.2260
      4  O         13.3550   -5.9420   28.5290 O.2   236  VAL236     -0.2867
      5  CB        12.9590   -2.9350   29.1140 C.3   236  VAL236      0.0252
      6  CG1       12.2190   -1.6390   28.7880 C.3   236  VAL236      0.0019
      7  CG2       13.7950   -2.8080   30.3850 C.3   236  VAL236      0.0019
      8  N         11.2690  -10.1830   28.5510 N.3   239  CYS239     -0.1221
      9  CA        11.7500  -11.2410   27.6780 C.3   239  CYS239      0.1808
     10  C         13.0990  -11.8160   28.0970 C.2   239  CYS239      0.2601
     11  O         13.5180  -12.8260   27.5230 O.2   239  CYS239     -0.2717
     12  CB        11.8030  -10.7290   26.2450 C.3   239  CYS239      0.0970
     13  SG        10.1630  -10.2370   25.6890 S.3   239  CYS239     -0.0800
     14  N         13.7810  -11.2220   29.0780 N.am  240  LEU240     -0.1979
     15  CA        14.9460  -11.8890   29.6510 C.3   240  LEU240      0.1596
     16  C         14.5460  -12.8920   30.7310 C.2   240  LEU240      0.2287
     17  O         15.1710  -13.9570   30.8460 O.2   240  LEU240     -0.2864
     18  CB        15.9310  -10.8640   30.2390 C.3   240  LEU240      0.0297
     19  CG        16.4270   -9.7020   29.3640 C.3   240  LEU240      0.0022
     20  CD1       17.2300   -8.6950   30.1790 C.3   240  LEU240      0.0001
     21  CD2       17.2430  -10.1910   28.1740 C.3   240  LEU240      0.0001
     22  N         10.4480  -16.0550   21.5870 N.3   246  LEU246     -0.1245
     23  CA        11.8490  -15.7010   21.4310 C.3   246  LEU246      0.1561
     24  C         12.5370  -15.8520   22.7790 C.2   246  LEU246      0.2260
     25  O         12.0340  -15.3600   23.7950 O.2   246  LEU246     -0.2867
     26  CB        12.0200  -14.2850   20.8720 C.3   246  LEU246      0.0270
     27  CG        11.2920  -13.0930   21.4920 C.3   246  LEU246      0.0019
     28  CD1       12.1030  -12.5120   22.6290 C.3   246  LEU246      0.0001
     29  CD2       10.9970  -12.0300   20.4370 C.3   246  LEU246      0.0001
     30  N         15.0220  -14.5040   24.3850 N.3   248  ALA248     -0.1231
     31  CA        15.8600  -13.3300   24.2110 C.3   248  ALA248      0.1694
     32  C         16.8730  -13.1720   25.3350 C.2   248  ALA248      0.2592
     33  O         16.6380  -13.5540   26.4850 O.2   248  ALA248     -0.2718
     34  CB        15.0010  -12.0700   24.1340 C.3   248  ALA248      0.0304
     35  N         17.9860  -12.5310   24.9890 N.am  249  ASP249     -0.1974
     36  CA        19.0570  -12.1880   25.9040 C.3   249  ASP249      0.1709
     37  C         19.6080  -10.8280   25.4930 C.2   249  ASP249      0.2293
     38  O         19.1950  -10.2480   24.4790 O.2   249  ASP249     -0.2864
     39  CB        20.1420  -13.2570   25.8610 C.3   249  ASP249      0.1436
     40  CG        20.6030  -13.5250   24.4500 C.2   249  ASP249      0.3671
     41  OD1       21.0000  -12.5450   23.7830 O.co2 249  ASP249     -0.2456
     42  OD2       20.5500  -14.6940   24.0010 O.co2 249  ASP249     -0.2456
     43  N         21.1530  -10.6660   21.7150 N.3   252  LYS252     -0.1231
     44  CA        20.1350  -10.6900   20.6740 C.3   252  LYS252      0.1693
     45  C         19.3860   -9.3640   20.6150 C.2   252  LYS252      0.2591
     46  O         19.0180   -8.9020   19.5290 O.2   252  LYS252     -0.2718
     47  CB        19.1550  -11.8380   20.9220 C.3   252  LYS252      0.0285
     48  CG        19.6050  -13.2290   20.4790 C.3   252  LYS252      0.0035
     49  CD        18.4880  -14.2320   20.7950 C.3   252  LYS252      0.0206
     50  CE        18.9110  -15.6920   20.6760 C.3   252  LYS252      0.1093
     51  NZ        18.2080  -16.4030   19.5360 N.3   252  LYS252     -0.1314
     52  N         19.1250   -8.7480   21.7720 N.am  253  LEU253     -0.1980
     53  CA        18.5030   -7.4260   21.7660 C.3   253  LEU253      0.1596
     54  C         19.4140   -6.4010   21.0990 C.2   253  LEU253      0.2287
     55  O         18.9700   -5.6030   20.2670 O.2   253  LEU253     -0.2864
     56  CB        18.1620   -6.9930   23.1930 C.3   253  LEU253      0.0297
     57  CG        17.6110   -5.5770   23.3690 C.3   253  LEU253      0.0022
     58  CD1       16.1760   -5.4620   22.8400 C.3   253  LEU253      0.0001
     59  CD2       17.6880   -5.1450   24.8260 C.3   253  LEU253      0.0001
     60  N         19.6420   -6.7560   17.2120 N.3   256  ASN256     -0.1225
     61  CA        18.4540   -6.3910   16.4570 C.3   256  ASN256      0.1785
     62  C         18.0480   -4.9360   16.6270 C.2   256  ASN256      0.2597
     63  O         17.3910   -4.3830   15.7380 O.2   256  ASN256     -0.2718
     64  CB        17.2880   -7.3090   16.8480 C.3   256  ASN256      0.1169
     65  CG        17.4370   -8.6990   16.2780 C.2   256  ASN256      0.2627
     66  OD1       17.1420   -8.9330   15.1070 O.2   256  ASN256     -0.2716
     67  ND2       17.9240   -9.6260   17.0880 N.am  256  ASN256     -0.0877
     68  N         18.4120   -4.3050   17.7470 N.am  257  MET257     -0.1979
     69  CA        18.0110   -2.9310   18.0240 C.3   257  MET257      0.1605
     70  C         19.0450   -1.8940   17.6100 C.2   257  MET257      0.2287
     71  O         18.6930   -0.7140   17.4940 O.2   257  MET257     -0.2864
     72  CB        17.7060   -2.7580   19.5190 C.3   257  MET257      0.0413
     73  CG        16.4560   -3.4850   19.9700 C.3   257  MET257      0.0598
     74  SD        14.9740   -2.7980   19.2100 S.3   257  MET257     -0.1393
     75  CE        14.8780   -1.2060   20.0100 C.3   257  MET257      0.0692
     76  N         14.5460    1.1950   14.9020 N.3   302  THR302     -0.1203
     77  CA        14.0160   -0.0810   15.3540 C.3   302  THR302      0.1994
     78  C         13.1090    0.1450   16.5530 C.2   302  THR302      0.2618
     79  O         13.2460    1.1230   17.2920 O.2   302  THR302     -0.2717
     80  CB        15.1300   -1.0470   15.7410 C.3   302  THR302      0.1784
     81  OG1       15.8890   -0.4680   16.8030 O.3   302  THR302     -0.2211
     82  CG2       16.0440   -1.2970   14.5560 C.3   302  THR302      0.0376
     83  N         12.2010   -0.8000   16.7580 N.am  303  VAL303     -0.1965
     84  CA        11.2890   -0.7800   17.8910 C.3   303  VAL303      0.1727
     85  C         11.1130   -2.1980   18.4100 C.2   303  VAL303      0.2616
     86  O         11.0380   -3.1570   17.6340 O.2   303  VAL303     -0.2715
     87  CB         9.9240   -0.1720   17.5130 C.3   303  VAL303      0.0290
     88  CG1        8.9640   -0.3120   18.6720 C.3   303  VAL303      0.0023
     89  CG2       10.0840    1.2880   17.1420 C.3   303  VAL303      0.0023
     90  N         11.0610   -2.3290   19.7290 N.am  304  ALA304     -0.1963
     91  CA        10.6620   -3.5640   20.3850 C.3   304  ALA304      0.1728
     92  C          9.5460   -3.2190   21.3600 C.2   304  ALA304      0.2616
     93  O          9.6910   -2.2960   22.1680 O.2   304  ALA304     -0.2715
     94  CB        11.8350   -4.2300   21.1040 C.3   304  ALA304      0.0334
     95  N          8.4290   -3.9320   21.2620 N.am  305  ALA305     -0.1963
     96  CA         7.2550   -3.6940   22.0930 C.3   305  ALA305      0.1728
     97  C          6.9200   -4.9620   22.8670 C.2   305  ALA305      0.2616
     98  O          6.9730   -6.0660   22.3120 O.2   305  ALA305     -0.2715
     99  CB         6.0590   -3.2670   21.2420 C.3   305  ALA305      0.0334
    100  N          6.5760   -4.8080   24.1460 N.am  306  ILE306     -0.1977
    101  CA         6.2150   -5.9430   24.9950 C.3   306  ILE306      0.1596
    102  C          4.7870   -5.7590   25.4890 C.2   306  ILE306      0.2287
    103  O          4.4910   -4.7930   26.2040 O.2   306  ILE306     -0.2864
    104  CB         7.1600   -6.1030   26.1970 C.3   306  ILE306      0.0276
    105  CG1        8.6160   -6.1960   25.7440 C.3   306  ILE306      0.0022
    106  CG2        6.7630   -7.3290   27.0070 C.3   306  ILE306      0.0022
    107  CD1        9.2930   -4.8420   25.6010 C.3   306  ILE306      0.0001
    108  N         10.9010   -4.4870    8.3380 N.3   337  ASN337     -0.1225
    109  CA        10.3670   -5.2420    9.4680 C.3   337  ASN337      0.1785
    110  C         11.1250   -4.8990   10.7470 C.2   337  ASN337      0.2597
    111  O         11.6330   -5.7680   11.4650 O.2   337  ASN337     -0.2718
    112  CB        10.4070   -6.7430    9.1630 C.3   337  ASN337      0.1169
    113  CG         9.8570   -7.0660    7.7710 C.2   337  ASN337      0.2627
    114  OD1       10.5820   -7.5380    6.8830 O.2   337  ASN337     -0.2716
    115  ND2        8.5620   -6.8130    7.5790 N.am  337  ASN337     -0.0877
    116  N         11.2200   -3.6020   11.0180 N.am  338  ASN338     -0.1960
    117  CA        12.0450   -3.1080   12.1060 C.3   338  ASN338      0.1819
    118  C         11.2770   -2.9260   13.4060 C.2   338  ASN338      0.2621
    119  O         11.8210   -2.3370   14.3480 O.2   338  ASN338     -0.2715
    120  CB        12.7190   -1.7990   11.6860 C.3   338  ASN338      0.1195
    121  CG        11.7260   -0.7490   11.2610 C.2   338  ASN338      0.2630
    122  OD1       10.5740   -1.0610   10.9910 O.2   338  ASN338     -0.2716
    123  ND2       12.1660    0.5060   11.2000 N.am  338  ASN338     -0.0877
    124  N         10.0370   -3.4130   13.4820 N.am  339  VAL339     -0.1963
    125  CA         9.2320   -3.3790   14.7020 C.3   339  VAL339      0.1727
    126  C          8.9200   -4.8150   15.1050 C.2   339  VAL339      0.2616
    127  O          8.3400   -5.5700   14.3170 O.2   339  VAL339     -0.2715
    128  CB         7.9390   -2.5710   14.5240 C.3   339  VAL339      0.0290
    129  CG1        7.1540   -2.5520   15.8260 C.3   339  VAL339      0.0023
    130  CG2        8.2480   -1.1620   14.0620 C.3   339  VAL339      0.0023
    131  N          9.3120   -5.1950   16.3230 N.am  340  LYS340     -0.1977
    132  CA         9.1350   -6.5510   16.8230 C.3   340  LYS340      0.1596
    133  C          8.2630   -6.5480   18.0750 C.2   340  LYS340      0.2287
    134  O          8.3980   -5.6740   18.9410 O.2   340  LYS340     -0.2864
    135  CB        10.4980   -7.1990   17.1280 C.3   340  LYS340      0.0298
    136  CG        10.4410   -8.6660   17.4930 C.3   340  LYS340      0.0038
    137  CD        10.4430   -9.5530   16.2580 C.3   340  LYS340      0.0206
    138  CE        10.1180  -11.0060   16.6080 C.3   340  LYS340      0.1093
    139  NZ         8.6410  -11.2500   16.6860 N.3   340  LYS340     -0.1314
    140  N          6.5190   -8.8380   21.3720 N.3   342  ALA342     -0.1245
    141  CA         6.5080  -10.0170   22.2220 C.3   342  ALA342      0.1562
    142  C          5.2910   -9.9320   23.1270 C.2   342  ALA342      0.2260
    143  O          4.8350   -8.8380   23.4790 O.2   342  ALA342     -0.2867
    144  CB         7.7910  -10.1430   23.0550 C.3   342  ALA342      0.0290
    145  N         10.2630   -0.0450   23.6350 N.3   358  ILE358     -0.1245
    146  CA        11.6910    0.2160   23.5120 C.3   358  ILE358      0.1561
    147  C         11.9170    0.7290   22.1010 C.2   358  ILE358      0.2260
    148  O         11.8000   -0.0350   21.1290 O.2   358  ILE358     -0.2867
    149  CB        12.5440   -1.0310   23.7590 C.3   358  ILE358      0.0252
    150  CG1       12.1670   -1.7170   25.0730 C.3   358  ILE358      0.0019
    151  CG2       14.0190   -0.6330   23.7780 C.3   358  ILE358      0.0019
    152  CD1       12.8630   -3.0750   25.2590 C.3   358  ILE358      0.0001
@<TRIPOS>BOND
     1   114   113    2
     2   115   113   am
     3   113   112    1
     4   108   109    1
     5   112   109    1
     6   109   110    1
     7   110   116   am
     8   110   111    2
     9   122   121    2
    10   116   117    1
    11   123   121   am
    12   121   120    1
    13   120   117    1
    14   117   118    1
    15   118   124   am
    16   118   119    2
    17   124   125    1
    18   130   128    1
    19   127   126    2
    20   128   125    1
    21   128   129    1
    22    82    80    1
    23   125   126    1
    24    76    77    1
    25   126   131   am
    26    66    65    2
    27    77    80    1
    28    77    78    1
    29    63    62    2
    30    80    81    1
    31   137   138    1
    32   137   136    1
    33    65    64    1
    34    65    67   am
    35   131   132    1
    36    61    62    1
    37    61    64    1
    38    61    60    1
    39    78    83   am
    40    78    79    2
    41   138   139    1
    42    62    68   am
    43    83    84    1
    44   132   135    1
    45   132   133    1
    46   135   136    1
    47    89    87    1
    48    71    70    2
    49    87    84    1
    50    87    88    1
    51    70    69    1
    52    86    85    2
    53    68    69    1
    54    84    85    1
    55    69    72    1
    56   133   134    2
    57    85    90   am
    58    74    73    1
    59    74    75    1
    60    72    73    1
    61    46    45    2
    62    51    50    1
    63    90    91    1
    64    55    54    2
    65    91    94    1
    66    91    92    1
    67    29    27    1
    68    48    49    1
    69    48    47    1
    70    45    44    1
    71    45    52   am
    72    44    47    1
    73    44    43    1
    74    50    49    1
    75    26    23    1
    76    26    27    1
    77    54    53    1
    78   148   147    2
    79    99    96    1
    80    95    92   am
    81    95    96    1
    82    92    93    2
    83   140   141    1
    84    23    22    1
    85    23    24    1
    86    27    28    1
    87    53    52    1
    88    53    56    1
    89    96    97    1
    90   147   146    1
    91   141   144    1
    92   141   142    1
    93    98    97    2
    94    24    25    2
    95    58    57    1
    96    97   100   am
    97   142   143    2
    98    56    57    1
    99    57    59    1
   100   146   145    1
   101   146   149    1
   102   149   151    1
   103   149   150    1
   104    41    40   ar
   105    42    40   ar
   106    34    31    1
   107   100   101    1
   108    31    30    1
   109    31    32    1
   110    40    39    1
   111    38    37    2
   112    35    32   am
   113    35    36    1
   114   101   102    1
   115   101   104    1
   116   150   152    1
   117    32    33    2
   118   102   103    2
   119    37    36    1
   120   107   105    1
   121    13    12    1
   122   105   104    1
   123    39    36    1
   124   104   106    1
   125    12     9    1
   126    11    10    2
   127     9    10    1
   128     9     8    1
   129    10    14   am
   130    21    19    1
   131     4     3    2
   132     6     5    1
   133    14    15    1
   134     5     2    1
   135     5     7    1
   136     2     3    1
   137     2     1    1
   138    19    20    1
   139    19    18    1
   140    15    18    1
   141    15    16    1
   142    16    17    2
