@<TRIPOS>MOLECULE
tmp/6brhB01.pdb
 101 96 0 0 0
SMALL
GASTEIGER

@<TRIPOS>ATOM
      1  N         59.6350  166.0060  126.1040 N.3     4  ARG4       -0.1245
      2  CA        58.2920  165.9950  125.5600 C.3     4  ARG4        0.1563
      3  C         57.3960  166.9710  126.3180 C.2     4  ARG4        0.2260
      4  O         56.5720  167.6630  125.7210 O.2     4  ARG4       -0.2867
      5  CB        57.7210  164.5870  125.5910 C.3     4  ARG4        0.0307
      6  CG        58.4410  163.6170  124.6640 C.3     4  ARG4        0.0489
      7  CD        57.5670  162.4200  124.2910 C.3     4  ARG4        0.2205
      8  NE        57.1810  161.6520  125.4670 N.pl3   4  ARG4       -0.0865
      9  CZ        57.8360  160.6300  126.0050 C.cat   4  ARG4        0.5346
     10  NH1       58.9410  160.2230  125.4830 N.pl3   4  ARG4        0.1354
     11  NH2       57.3690  160.0140  127.0660 N.pl3   4  ARG4        0.1354
     12  N         61.3970  157.7110  119.2150 N.3    76  MET76      -0.1230
     13  CA        60.7650  156.9630  118.1380 C.3    76  MET76       0.1702
     14  C         59.5940  156.2410  118.7740 C.2    76  MET76       0.2592
     15  O         59.6070  156.0310  119.9900 O.2    76  MET76      -0.2718
     16  CB        61.7330  155.9750  117.4950 C.3    76  MET76       0.0401
     17  CG        63.0450  156.5750  117.0310 C.3    76  MET76       0.0596
     18  SD        62.8590  157.7540  115.6860 S.3    76  MET76      -0.1393
     19  CE        63.5310  156.8170  114.3070 C.3    76  MET76       0.0692
     20  N         58.5830  155.8710  117.9930 N.am   77  LYS77      -0.1966
     21  CA        57.5280  155.0220  118.5500 C.3    77  LYS77       0.1728
     22  C         57.4650  153.6810  117.8420 C.2    77  LYS77       0.2616
     23  O         57.5850  153.6090  116.6210 O.2    77  LYS77      -0.2715
     24  CB        56.1760  155.7250  118.5020 C.3    77  LYS77       0.0311
     25  CG        55.8550  156.4220  119.8070 C.3    77  LYS77       0.0038
     26  CD        54.4090  156.8560  119.8650 C.3    77  LYS77       0.0206
     27  CE        54.2140  158.0150  120.8570 C.3    77  LYS77       0.1093
     28  NZ        54.5540  157.6010  122.2360 N.3    77  LYS77      -0.1314
     29  N         57.2750  152.6260  118.6350 N.am   78  VAL78      -0.1963
     30  CA        57.2990  151.2630  118.1220 C.3    78  VAL78       0.1727
     31  C         55.9140  150.6350  118.0490 C.2    78  VAL78       0.2616
     32  O         55.3170  150.3110  119.0740 O.2    78  VAL78      -0.2715
     33  CB        58.1780  150.3560  118.9800 C.3    78  VAL78       0.0290
     34  CG1       58.2020  148.9410  118.3990 C.3    78  VAL78       0.0023
     35  CG2       59.5800  150.9070  119.0590 C.3    78  VAL78       0.0023
     36  N         55.4290  150.4340  116.8280 N.am   79  PHE79      -0.1974
     37  CA        54.1990  149.6890  116.5980 C.3    79  PHE79       0.1639
     38  C         54.5040  148.2040  116.4680 C.2    79  PHE79       0.2290
     39  O         55.5300  147.8320  115.9010 O.2    79  PHE79      -0.2864
     40  CB        53.4840  150.1760  115.3500 C.3    79  PHE79       0.0560
     41  CG        52.8840  151.5410  115.5050 C.ar   79  PHE79      -0.0200
     42  CD1       53.7010  152.6740  115.4000 C.ar   79  PHE79      -0.0042
     43  CD2       51.5280  151.7130  115.7200 C.ar   79  PHE79      -0.0042
     44  CE1       53.1460  153.9360  115.5160 C.ar   79  PHE79      -0.0003
     45  CE2       51.0030  152.9670  115.8630 C.ar   79  PHE79      -0.0003
     46  CZ        51.7860  154.0790  115.7320 C.ar   79  PHE79      -0.0000
     47  N         54.3260  160.0990  113.5760 N.3    94  ILE94      -0.1245
     48  CA        53.2990  159.9510  114.6030 C.3    94  ILE94       0.1561
     49  C         52.3690  161.1600  114.6090 C.2    94  ILE94       0.2260
     50  O         51.1520  161.0050  114.7170 O.2    94  ILE94      -0.2867
     51  CB        53.9080  159.7650  116.0020 C.3    94  ILE94       0.0252
     52  CG1       54.2080  158.3030  116.2860 C.3    94  ILE94       0.0019
     53  CG2       52.9620  160.2550  117.0890 C.3    94  ILE94       0.0019
     54  CD1       55.1360  157.6740  115.2970 C.3    94  ILE94       0.0001
     55  N         50.1190  160.7010  111.8880 N.3    97  ILE97      -0.1231
     56  CA        49.2590  159.5720  112.2450 C.3    97  ILE97       0.1692
     57  C         48.1660  159.9490  113.2460 C.2    97  ILE97       0.2592
     58  O         47.0170  159.5430  113.0950 O.2    97  ILE97      -0.2718
     59  CB        50.0970  158.4050  112.8290 C.3    97  ILE97       0.0266
     60  CG1       50.9250  157.7330  111.7360 C.3    97  ILE97       0.0019
     61  CG2       49.2180  157.3610  113.4980 C.3    97  ILE97       0.0020
     62  CD1       52.1800  157.0480  112.2450 C.3    97  ILE97       0.0001
     63  N         48.5250  160.7170  114.2670 N.am   98  ASP98      -0.1974
     64  CA        47.5870  161.0550  115.3270 C.3    98  ASP98       0.1709
     65  C         46.7240  162.2680  114.9730 C.2    98  ASP98       0.2293
     66  O         46.7300  163.2770  115.6730 O.2    98  ASP98      -0.2864
     67  CB        48.3420  161.3200  116.6280 C.3    98  ASP98       0.1436
     68  CG        48.8250  160.0480  117.2910 C.2    98  ASP98       0.3671
     69  OD1       48.2200  158.9800  117.0370 O.co2  98  ASP98      -0.2456
     70  OD2       49.7870  160.1270  118.0880 O.co2  98  ASP98      -0.2456
     71  N         43.4160  158.9950  111.4170 N.3   103  GLN103     -0.1245
     72  CA        42.7410  158.0310  112.2690 C.3   103  GLN103      0.1566
     73  C         41.4720  157.5260  111.6080 C.2   103  GLN103      0.2260
     74  O         41.0490  156.3930  111.8560 O.2   103  GLN103     -0.2867
     75  CB        42.4020  158.6480  113.6160 C.3   103  GLN103      0.0367
     76  CG        43.6050  158.9120  114.4790 C.3   103  GLN103      0.0905
     77  CD        44.3220  157.6420  114.8750 C.2   103  GLN103      0.2608
     78  OE1       43.6880  156.7130  115.4150 O.2   103  GLN103     -0.2717
     79  NE2       45.6220  157.6130  114.6310 N.am  103  GLN103     -0.0878
     80  N         40.9660  153.9860  110.3090 N.3   106  ARG106     -0.1245
     81  CA        40.6390  152.8490  111.1590 C.3   106  ARG106      0.1563
     82  C         39.2610  152.2770  110.8460 C.2   106  ARG106      0.2260
     83  O         38.9450  151.1560  111.2580 O.2   106  ARG106     -0.2867
     84  CB        40.6780  153.2570  112.6270 C.3   106  ARG106      0.0307
     85  CG        42.0400  153.2590  113.2560 C.3   106  ARG106      0.0489
     86  CD        41.9580  153.6720  114.7090 C.3   106  ARG106      0.2205
     87  NE        43.2590  153.9240  115.3190 N.pl3 106  ARG106     -0.0865
     88  CZ        44.0390  152.9780  115.8280 C.cat 106  ARG106      0.5346
     89  NH1       43.6660  151.6980  115.7980 N.pl3 106  ARG106      0.1354
     90  NH2       45.2110  153.3100  116.3620 N.pl3 106  ARG106      0.1354
     91  N         44.0480  151.7110  107.8940 N.3   126  PHE126     -0.1241
     92  CA        44.9610  152.2690  108.8800 C.3   126  PHE126      0.1605
     93  C         46.2630  151.4730  109.0310 C.2   126  PHE126      0.2264
     94  O         47.3670  151.9860  108.7740 O.2   126  PHE126     -0.2867
     95  CB        44.2210  152.3560  110.2030 C.3   126  PHE126      0.0534
     96  CG        45.0650  152.7340  111.3620 C.ar  126  PHE126     -0.0203
     97  CD1       45.3710  154.0680  111.5840 C.ar  126  PHE126     -0.0042
     98  CD2       45.5020  151.7840  112.2470 C.ar  126  PHE126     -0.0042
     99  CE1       46.1270  154.4310  112.6670 C.ar  126  PHE126     -0.0003
    100  CE2       46.2620  152.1520  113.3330 C.ar  126  PHE126     -0.0003
    101  CZ        46.5690  153.4820  113.5440 C.ar  126  PHE126     -0.0000
@<TRIPOS>BOND
     1    91    92    1
     2    94    93    2
     3    92    93    1
     4    92    95    1
     5    95    96    1
     6    80    81    1
     7    82    81    1
     8    82    83    2
     9    81    84    1
    10    96    97   ar
    11    96    98   ar
    12    71    72    1
    13    97    99   ar
    14    73    74    2
    15    73    72    1
    16    60    62    1
    17    60    59    1
    18    55    56    1
    19    56    59    1
    20    56    57    1
    21    98   100   ar
    22    72    75    1
    23    84    85    1
    24    99   101   ar
    25    59    61    1
    26    58    57    2
    27    57    63   am
    28    85    86    1
    29   100   101   ar
    30    47    48    1
    31    75    76    1
    32    63    64    1
    33    19    18    1
    34    76    77    1
    35    48    49    1
    36    48    51    1
    37    49    50    2
    38    79    77   am
    39    86    87    1
    40    77    78    2
    41    65    64    1
    42    65    66    2
    43    54    52    1
    44    87    88    2
    45    64    67    1
    46    40    41    1
    47    40    37    1
    48    42    41   ar
    49    42    44   ar
    50    41    43   ar
    51    44    46   ar
    52    18    17    1
    53    43    45   ar
    54    46    45   ar
    55    89    88    1
    56    88    90    1
    57    39    38    2
    58    51    52    1
    59    51    53    1
    60    38    37    1
    61    37    36    1
    62    23    22    2
    63    67    68    1
    64    36    31   am
    65    17    16    1
    66    69    68   ar
    67    68    70   ar
    68    16    13    1
    69    22    21    1
    70    22    29   am
    71    20    21    1
    72    20    14   am
    73    31    30    1
    74    31    32    2
    75    30    29    1
    76    30    33    1
    77    13    14    1
    78    13    12    1
    79    34    33    1
    80    24    21    1
    81    24    25    1
    82    14    15    2
    83    33    35    1
    84    25    26    1
    85    26    27    1
    86    27    28    1
    87     7     6    1
    88     7     8    1
    89     6     5    1
    90     8     9    2
    91    10     9    1
    92     2     5    1
    93     2     1    1
    94     2     3    1
    95     4     3    2
    96     9    11    1
