@<TRIPOS>MOLECULE
tmp/6brhB00.pdb
 93 91 0 0 0
SMALL
GASTEIGER

@<TRIPOS>ATOM
      1  N         35.0490  141.4360  103.6340 N.3   115  TYR115     -0.1227
      2  CA        34.7990  141.0160  105.0040 C.3   115  TYR115      0.1736
      3  C         33.5420  140.1570  105.1190 C.2   115  TYR115      0.2595
      4  O         33.4430  139.3020  105.9970 O.2   115  TYR115     -0.2718
      5  CB        34.6950  142.2390  105.9180 C.3   115  TYR115      0.0548
      6  CG        34.5150  141.9220  107.3760 C.ar  115  TYR115     -0.0200
      7  CD1       35.1870  140.8540  107.9610 C.ar  115  TYR115     -0.0009
      8  CD2       33.6970  142.6870  108.1810 C.ar  115  TYR115     -0.0009
      9  CE1       35.0230  140.5540  109.3000 C.ar  115  TYR115      0.0417
     10  CE2       33.5120  142.3890  109.5150 C.ar  115  TYR115      0.0417
     11  CZ        34.1930  141.3370  110.0660 C.ar  115  TYR115      0.1957
     12  OH        34.0750  141.0430  111.4020 O.3   115  TYR115     -0.2866
     13  N         32.6020  140.3660  104.2070 N.am  116  TYR116     -0.1962
     14  CA        31.3310  139.6620  104.2440 C.3   116  TYR116      0.1771
     15  C         31.3850  138.3420  103.4910 C.2   116  TYR116      0.2619
     16  O         30.3960  137.6200  103.4160 O.2   116  TYR116     -0.2715
     17  CB        30.2410  140.5630  103.6840 C.3   116  TYR116      0.0574
     18  CG        30.1070  141.8270  104.4830 C.ar  116  TYR116     -0.0198
     19  CD1       29.2490  141.8940  105.5440 C.ar  116  TYR116     -0.0009
     20  CD2       30.8640  142.9500  104.1790 C.ar  116  TYR116     -0.0009
     21  CE1       29.1050  143.0690  106.2870 C.ar  116  TYR116      0.0417
     22  CE2       30.7710  144.0930  104.9180 C.ar  116  TYR116      0.0417
     23  CZ        29.8770  144.1440  105.9810 C.ar  116  TYR116      0.1957
     24  OH        29.7720  145.2880  106.7390 O.3   116  TYR116     -0.2866
     25  N         32.5480  138.0360  102.9330 N.am  117  VAL117     -0.1977
     26  CA        32.7850  136.7580  102.2870 C.3   117  VAL117      0.1596
     27  C         33.9400  136.0520  102.9820 C.2   117  VAL117      0.2287
     28  O         33.9160  134.8340  103.1690 O.2   117  VAL117     -0.2864
     29  CB        33.0950  136.9180  100.7970 C.3   117  VAL117      0.0276
     30  CG1       33.1850  135.5600  100.1170 C.3   117  VAL117      0.0022
     31  CG2       32.0340  137.7690  100.1360 C.3   117  VAL117      0.0022
     32  N         35.6190  136.0910  106.4650 N.3   119  PRO119     -0.2116
     33  CA        35.4820  136.6390  107.8110 C.3   119  PRO119      0.1372
     34  C         36.8290  137.0170  108.4220 C.2   119  PRO119      0.2244
     35  O         36.8770  137.7500  109.4060 O.2   119  PRO119     -0.2868
     36  CB        34.8100  135.5020  108.5780 C.3   119  PRO119      0.0268
     37  CG        35.3120  134.2660  107.8840 C.3   119  PRO119      0.0207
     38  CD        35.3540  134.6410  106.4370 C.3   119  PRO119      0.0892
     39  N         36.1940  138.3830   93.5020 N.3   338  HIS338     -0.1226
     40  CA        35.3020  137.3300   93.9820 C.3   338  HIS338      0.1752
     41  C         33.8470  137.6760   93.7030 C.2   338  HIS338      0.2596
     42  O         33.3870  138.7630   94.0380 O.2   338  HIS338     -0.2718
     43  CB        35.5380  137.0830   95.4730 C.3   338  HIS338      0.0759
     44  CG        34.7590  135.9360   96.0450 C.ar  338  HIS338      0.0818
     45  ND1       33.3970  135.7970   95.8790 N.ar  338  HIS338     -0.2268
     46  CD2       35.1510  134.8940   96.8060 C.ar  338  HIS338      0.1154
     47  CE1       32.9880  134.7060   96.5000 C.ar  338  HIS338      0.1986
     48  NE2       34.0290  134.1350   97.0670 N.ar  338  HIS338     -0.2212
     49  N         33.1250  136.7340   93.1040 N.am  339  LYS339     -0.1966
     50  CA        31.7830  136.9810   92.5720 C.3   339  LYS339      0.1728
     51  C         30.7640  137.4800   93.6090 C.2   339  LYS339      0.2616
     52  O         29.8540  138.2320   93.2650 O.2   339  LYS339     -0.2715
     53  CB        31.2620  135.7120   91.8960 C.3   339  LYS339      0.0311
     54  CG        30.9450  134.5610   92.8520 C.3   339  LYS339      0.0038
     55  CD        30.9260  133.2140   92.1060 C.3   339  LYS339      0.0206
     56  CE        30.0690  132.1690   92.8270 C.3   339  LYS339      0.1093
     57  NZ        30.4780  131.8590   94.2140 N.3   339  LYS339     -0.1314
     58  N         30.9020  137.0500   94.8580 N.am  340  ILE340     -0.1977
     59  CA        29.9950  137.4680   95.9240 C.3   340  ILE340      0.1596
     60  C         30.4230  138.7840   96.5660 C.2   340  ILE340      0.2287
     61  O         29.6020  139.6840   96.7510 O.2   340  ILE340     -0.2864
     62  CB        29.8930  136.3810   97.0200 C.3   340  ILE340      0.0276
     63  CG1       29.3400  135.0820   96.4370 C.3   340  ILE340      0.0022
     64  CG2       29.0280  136.8470   98.1830 C.3   340  ILE340      0.0022
     65  CD1       27.8460  135.1360   96.1030 C.3   340  ILE340      0.0001
     66  N         21.3290  138.1640  104.4000 N.3   413  ARG413     -0.1245
     67  CA        21.9140  137.3840  103.3170 C.3   413  ARG413      0.1563
     68  C         20.8840  137.0590  102.2460 C.2   413  ARG413      0.2260
     69  O         20.7660  135.9260  101.7710 O.2   413  ARG413     -0.2867
     70  CB        22.5410  136.1120  103.8720 C.3   413  ARG413      0.0307
     71  CG        23.8150  135.6650  103.1580 C.3   413  ARG413      0.0489
     72  CD        24.9280  136.6920  103.2760 C.3   413  ARG413      0.2205
     73  NE        26.1360  136.2950  102.5620 N.pl3 413  ARG413     -0.0865
     74  CZ        27.3070  136.9050  102.6970 C.cat 413  ARG413      0.5346
     75  NH1       28.3600  136.4790  102.0150 N.pl3 413  ARG413      0.1354
     76  NH2       27.4280  137.9400  103.5160 N.pl3 413  ARG413      0.1354
     77  N         20.7120  138.3170   99.0250 N.3   415  LEU415     -0.1245
     78  CA        21.4050  139.0640   97.9760 C.3   415  LEU415      0.1561
     79  C         20.8500  138.7730   96.5880 C.2   415  LEU415      0.2260
     80  O         20.1890  137.7450   96.3820 O.2   415  LEU415     -0.2867
     81  CB        22.8970  138.7380   97.9920 C.3   415  LEU415      0.0270
     82  CG        23.5160  138.4680   99.3680 C.3   415  LEU415      0.0019
     83  CD1       24.9960  138.1480   99.2360 C.3   415  LEU415      0.0001
     84  CD2       23.2920  139.6770  100.2870 C.3   415  LEU415      0.0001
     85  N         20.7350  137.2640   93.0900 N.3   417  LYS417     -0.1245
     86  CA        21.3460  135.9810   92.7590 C.3   417  LYS417      0.1561
     87  C         22.1380  136.0270   91.4640 C.2   417  LYS417      0.2260
     88  O         21.7590  136.6550   90.4800 O.2   417  LYS417     -0.2867
     89  CB        20.3330  134.8460   92.7100 C.3   417  LYS417      0.0271
     90  CG        20.9270  133.5250   93.2690 C.3   417  LYS417      0.0035
     91  CD        21.5580  133.6830   94.7110 C.3   417  LYS417      0.0206
     92  CE        23.0840  133.7420   94.7000 C.3   417  LYS417      0.1093
     93  NZ        23.7030  134.2060   95.9740 N.3   417  LYS417     -0.1314
@<TRIPOS>BOND
     1    88    87    2
     2    87    86    1
     3    53    50    1
     4    53    54    1
     5    55    56    1
     6    55    54    1
     7    50    49    1
     8    50    51    1
     9    89    86    1
    10    89    90    1
    11    86    85    1
    12    56    57    1
    13    49    41   am
    14    52    51    2
    15    90    91    1
    16    39    40    1
    17    51    58   am
    18    41    40    1
    19    41    42    2
    20    40    43    1
    21    92    91    1
    22    92    93    1
    23    58    59    1
    24    43    44    1
    25    45    44   ar
    26    45    47   ar
    27    59    60    1
    28    59    62    1
    29    44    46   ar
    30    65    63    1
    31    80    79    2
    32    63    62    1
    33    47    48   ar
    34    60    61    2
    35    79    78    1
    36    46    48   ar
    37    62    64    1
    38    78    81    1
    39    78    77    1
    40    81    82    1
    41    83    82    1
    42    82    84    1
    43    30    29    1
    44    31    29    1
    45    29    26    1
    46    69    68    2
    47    75    74    1
    48    68    67    1
    49    26    25    1
    50    26    27    1
    51    73    74    2
    52    73    72    1
    53    74    76    1
    54    25    15   am
    55    27    28    2
    56    71    72    1
    57    71    70    1
    58    67    70    1
    59    67    66    1
    60    16    15    2
    61    15    14    1
    62     1     2    1
    63    17    14    1
    64    17    18    1
    65    20    18   ar
    66    20    22   ar
    67    13    14    1
    68    13     3   am
    69    18    19   ar
    70    22    23   ar
    71     2     3    1
    72     2     5    1
    73     3     4    2
    74    19    21   ar
    75     5     6    1
    76    23    21   ar
    77    23    24    1
    78    38    32    1
    79    38    37    1
    80    32    33    1
    81     6     7   ar
    82     6     8   ar
    83    33    34    1
    84    33    36    1
    85    37    36    1
    86     7     9   ar
    87     8    10   ar
    88    34    35    2
    89     9    11   ar
    90    10    11   ar
    91    11    12    1
