@<TRIPOS>MOLECULE
tmp/6brjA00.pdb
 163 155 0 0 0
SMALL
GASTEIGER

@<TRIPOS>ATOM
      1  N        -14.5430  -10.4400    5.8130 N.3    10  GLU10      -0.1245
      2  CA       -13.6940   -9.3590    6.2350 C.3    10  GLU10       0.1567
      3  C        -14.4980   -8.1270    6.4290 C.2    10  GLU10       0.2260
      4  O        -15.4200   -7.8830    5.7050 O.2    10  GLU10      -0.2867
      5  CB       -12.6900   -9.0690    5.1340 C.3    10  GLU10       0.0388
      6  CG       -11.2370   -9.1670    5.4970 C.3    10  GLU10       0.1160
      7  CD       -10.3500   -9.1860    4.2560 C.2    10  GLU10       0.3649
      8  OE1       -9.4840  -10.0630    4.1380 O.co2  10  GLU10      -0.2457
      9  OE2      -10.5220   -8.3280    3.3750 O.co2  10  GLU10      -0.2457
     10  N        -14.4190   -4.4530    5.7030 N.3    12  LEU12      -0.1231
     11  CA       -13.7620   -3.4190    4.9350 C.3    12  LEU12       0.1693
     12  C        -13.6790   -2.0290    5.5250 C.2    12  LEU12       0.2592
     13  O        -12.6870   -1.3910    5.4390 O.2    12  LEU12      -0.2718
     14  CB       -14.3480   -3.3760    3.5420 C.3    12  LEU12       0.0284
     15  CG       -14.4890   -4.7430    2.9120 C.3    12  LEU12       0.0019
     16  CD1      -15.3810   -4.7440    1.7020 C.3    12  LEU12       0.0001
     17  CD2      -13.1300   -5.2670    2.5680 C.3    12  LEU12       0.0001
     18  N        -14.7710   -1.5600    6.0740 N.am   13  GLY13      -0.1957
     19  CA       -14.8590   -0.2040    6.5240 C.3    13  GLY13       0.1869
     20  C        -16.0170    0.0470    7.4280 C.2    13  GLY13       0.2309
     21  O        -16.8890   -0.7390    7.5180 O.2    13  GLY13      -0.2863
     22  N        -19.2520   -1.8030    6.4200 N.3    20  VAL20      -0.1245
     23  CA       -19.2160   -2.5180    5.1760 C.3    20  VAL20       0.1561
     24  C        -18.3420   -3.7540    5.2830 C.2    20  VAL20       0.2260
     25  O        -17.2570   -3.6730    5.7490 O.2    20  VAL20      -0.2867
     26  CB       -18.7880   -1.6070    4.0200 C.3    20  VAL20       0.0252
     27  CG1      -18.5040   -2.3850    2.8010 C.3    20  VAL20       0.0019
     28  CG2      -19.8400   -0.6420    3.7250 C.3    20  VAL20       0.0019
     29  N        -20.2510   -6.8760   -1.5460 N.3    29  ALA29      -0.1245
     30  CA       -20.0500   -5.9530   -0.4590 C.3    29  ALA29       0.1562
     31  C        -21.3380   -5.7490    0.2790 C.2    29  ALA29       0.2260
     32  O        -22.3530   -5.5680   -0.2700 O.2    29  ALA29      -0.2867
     33  CB       -19.4970   -4.6480   -0.9400 C.3    29  ALA29       0.0290
     34  N        -24.2410   -4.9270   -2.3250 N.3    77  THR77      -0.1203
     35  CA       -23.7430   -4.1720   -3.4610 C.3    77  THR77       0.1994
     36  C        -22.5440   -4.7890   -4.1020 C.2    77  THR77       0.2618
     37  O        -22.0290   -5.7530   -3.6180 O.2    77  THR77      -0.2717
     38  CB       -23.3870   -2.7200   -3.1280 C.3    77  THR77       0.1784
     39  OG1      -22.3500   -2.6530   -2.1540 O.3    77  THR77      -0.2211
     40  CG2      -24.5360   -2.0540   -2.6230 C.3    77  THR77       0.0376
     41  N        -22.1160   -4.2150   -5.2110 N.am   78  ASP78      -0.1959
     42  CA       -20.9620   -4.7090   -5.9110 C.3    78  ASP78       0.1840
     43  C        -19.7560   -4.6420   -5.0220 C.2    78  ASP78       0.2622
     44  O        -19.5030   -3.6490   -4.3870 O.2    78  ASP78      -0.2715
     45  CB       -20.6400   -3.8690   -7.1390 C.3    78  ASP78       0.1450
     46  CG       -21.7740   -3.7820   -8.1230 C.2    78  ASP78       0.3671
     47  OD1      -22.2910   -4.8140   -8.5260 O.co2  78  ASP78      -0.2456
     48  OD2      -22.1210   -2.6880   -8.5180 O.co2  78  ASP78      -0.2456
     49  N        -18.9920   -5.7090   -5.0110 N.am   79  TYR79      -0.1960
     50  CA       -17.7120   -5.6780   -4.4030 C.3    79  TYR79       0.1771
     51  C        -16.6990   -5.1530   -5.4070 C.2    79  TYR79       0.2619
     52  O        -16.5630   -5.6600   -6.4860 O.2    79  TYR79      -0.2715
     53  CB       -17.3170   -7.0430   -3.9050 C.3    79  TYR79       0.0574
     54  CG       -15.9360   -7.0560   -3.3880 C.ar   79  TYR79      -0.0198
     55  CD1      -15.5850   -6.2890   -2.3250 C.ar   79  TYR79      -0.0009
     56  CD2      -14.9690   -7.7890   -3.9890 C.ar   79  TYR79      -0.0009
     57  CE1      -14.3220   -6.2840   -1.8660 C.ar   79  TYR79       0.0417
     58  CE2      -13.7010   -7.7850   -3.5300 C.ar   79  TYR79       0.0417
     59  CZ       -13.3940   -7.0330   -2.4660 C.ar   79  TYR79       0.1957
     60  OH       -12.1390   -7.0110   -2.0210 O.3    79  TYR79      -0.2866
     61  N        -16.0000   -4.1120   -5.0140 N.am   80  MET80      -0.1963
     62  CA       -15.0040   -3.5010   -5.8520 C.3    80  MET80       0.1736
     63  C        -13.6110   -3.7270   -5.2830 C.2    80  MET80       0.2616
     64  O        -13.2780   -3.3030   -4.2250 O.2    80  MET80      -0.2715
     65  CB       -15.2920   -2.0150   -6.0470 C.3    80  MET80       0.0427
     66  CG       -16.6650   -1.6740   -6.5940 C.3    80  MET80       0.0599
     67  SD       -16.9560   -2.0750   -8.3040 S.3    80  MET80      -0.1393
     68  CE       -16.2750   -0.6630   -9.0890 C.3    80  MET80       0.0692
     69  N        -12.8330   -4.4630   -6.0420 N.am   81  GLU81      -0.1963
     70  CA       -11.5610   -5.0360   -5.6430 C.3    81  GLU81       0.1733
     71  C        -10.5590   -4.0680   -5.1040 C.2    81  GLU81       0.2616
     72  O         -9.8170   -4.3860   -4.2430 O.2    81  GLU81      -0.2715
     73  CB       -10.9200   -5.6560   -6.8480 C.3    81  GLU81       0.0429
     74  CG       -10.9830   -7.1360   -6.8890 C.3    81  GLU81       0.1163
     75  CD       -10.3140   -7.6900   -8.1210 C.2    81  GLU81       0.3649
     76  OE1       -9.4120   -7.0480   -8.6640 O.co2  81  GLU81      -0.2457
     77  OE2      -10.6980   -8.7720   -8.5450 O.co2  81  GLU81      -0.2457
     78  N        -10.5420   -2.8850   -5.6640 N.am   82  ASN82      -0.1958
     79  CA        -9.5690   -1.9060   -5.3280 C.3    82  ASN82       0.1819
     80  C        -10.0130   -0.8050   -4.3880 C.2    82  ASN82       0.2622
     81  O         -9.3450    0.1770   -4.2480 O.2    82  ASN82      -0.2715
     82  CB        -8.9650   -1.3790   -6.6090 C.3    82  ASN82       0.1195
     83  CG        -8.2740   -2.4660   -7.3910 C.2    82  ASN82       0.2630
     84  OD1       -7.2820   -3.0090   -6.9670 O.2    82  ASN82      -0.2716
     85  ND2       -8.8150   -2.7970   -8.5190 N.am   82  ASN82      -0.0877
     86  N        -11.1300   -0.9980   -3.7240 N.am   83  GLY83      -0.1940
     87  CA       -11.6130   -0.0420   -2.7620 C.3    83  GLY83       0.2014
     88  C        -11.9670    1.2990   -3.3380 C.2    83  GLY83       0.2638
     89  O        -12.4190    1.3760   -4.4360 O.2    83  GLY83      -0.2714
     90  N        -11.7560    2.3460   -2.5790 N.am   84  ASP84      -0.1971
     91  CA       -12.1480    3.6640   -3.0290 C.3    84  ASP84       0.1709
     92  C        -11.1400    4.3430   -3.9380 C.2    84  ASP84       0.2293
     93  O         -9.9870    4.0510   -3.8940 O.2    84  ASP84      -0.2864
     94  CB       -12.7060    4.5260   -1.9030 C.3    84  ASP84       0.1436
     95  CG       -11.6730    5.2790   -1.1220 C.2    84  ASP84       0.3671
     96  OD1      -10.9040    6.0450   -1.6550 O.co2  84  ASP84      -0.2456
     97  OD2      -11.6930    5.1420    0.0860 O.co2  84  ASP84      -0.2456
     98  N        -13.3130   10.0600   -2.8090 N.3   131  ARG131     -0.1231
     99  CA       -13.5750    9.2130   -1.6460 C.3   131  ARG131      0.1694
    100  C        -14.9050    8.4680   -1.7720 C.2   131  ARG131      0.2592
    101  O        -15.1040    7.4350   -1.1360 O.2   131  ARG131     -0.2718
    102  CB       -13.5710   10.0420   -0.3580 C.3   131  ARG131      0.0321
    103  CG       -14.6620   11.0900   -0.3040 C.3   131  ARG131      0.0489
    104  CD       -14.6660   11.8550    1.0050 C.3   131  ARG131      0.2205
    105  NE       -15.6820   12.9000    0.9760 N.pl3 131  ARG131     -0.0865
    106  CZ       -15.4840   14.1130    0.4730 C.cat 131  ARG131      0.5346
    107  NH1      -14.3000   14.4370   -0.0280 N.pl3 131  ARG131      0.1354
    108  NH2      -16.4670   15.0010    0.4750 N.pl3 131  ARG131      0.1354
    109  N        -15.8130    8.9880   -2.5910 N.am  132  ASN132     -0.1974
    110  CA       -17.1100    8.3460   -2.7740 C.3   132  ASN132      0.1688
    111  C        -17.2190    7.6220   -4.1100 C.2   132  ASN132      0.2292
    112  O        -18.3170    7.3060   -4.5690 O.2   132  ASN132     -0.2864
    113  CB       -18.2320    9.3740   -2.6340 C.3   132  ASN132      0.1181
    114  CG       -18.3410    9.9150   -1.2250 C.2   132  ASN132      0.2629
    115  OD1      -17.9950    9.2310   -0.2600 O.2   132  ASN132     -0.2716
    116  ND2      -18.8180   11.1460   -1.0940 N.am  132  ASN132     -0.0877
    117  N        -15.6110    4.1730   -6.3480 N.3   134  LEU134     -0.1245
    118  CA       -15.0260    2.8600   -6.1020 C.3   134  LEU134      0.1561
    119  C        -14.3410    2.3200   -7.3500 C.2   134  LEU134      0.2260
    120  O        -14.7460    2.6210   -8.4730 O.2   134  LEU134     -0.2867
    121  CB       -16.0970    1.8780   -5.6220 C.3   134  LEU134      0.0270
    122  CG       -16.7410    2.1610   -4.2620 C.3   134  LEU134      0.0019
    123  CD1      -17.9490    1.2650   -4.0460 C.3   134  LEU134      0.0001
    124  CD2      -15.7320    1.9680   -3.1460 C.3   134  LEU134      0.0001
    125  N        -20.4740    5.7480   -5.7590 N.3   144  ALA144     -0.1245
    126  CA       -21.3150    5.2510   -4.6800 C.3   144  ALA144      0.1562
    127  C        -22.5180    6.1670   -4.5110 C.2   144  ALA144      0.2260
    128  O        -22.3720    7.3870   -4.4430 O.2   144  ALA144     -0.2867
    129  CB       -20.5300    5.1510   -3.3840 C.3   144  ALA144      0.0290
    130  N        -24.6440    5.6890   -1.9570 N.3   146  PHE146     -0.1227
    131  CA       -24.9960    5.6320   -0.5450 C.3   146  PHE146      0.1736
    132  C        -23.8680    6.2830    0.2460 C.2   146  PHE146      0.2596
    133  O        -22.8290    6.6200   -0.3190 O.2   146  PHE146     -0.2718
    134  CB       -25.2420    4.1910   -0.0870 C.3   146  PHE146      0.0547
    135  CG       -24.0110    3.3310   -0.0810 C.ar  146  PHE146     -0.0202
    136  CD1      -23.2820    3.1550    1.0830 C.ar  146  PHE146     -0.0042
    137  CD2      -23.5920    2.6860   -1.2330 C.ar  146  PHE146     -0.0042
    138  CE1      -22.1510    2.3630    1.0970 C.ar  146  PHE146     -0.0003
    139  CE2      -22.4630    1.8910   -1.2250 C.ar  146  PHE146     -0.0003
    140  CZ       -21.7410    1.7290   -0.0580 C.ar  146  PHE146     -0.0000
    141  N        -24.0690    6.4690    1.5460 N.am  147  GLY147     -0.1942
    142  CA       -23.0840    7.1590    2.3570 C.3   147  GLY147      0.2014
    143  C        -22.6180    6.3740    3.5660 C.2   147  GLY147      0.2638
    144  O        -23.2860    5.4410    4.0120 O.2   147  GLY147     -0.2714
    145  N        -21.4550    6.7540    4.0870 N.am  148  MET148     -0.1976
    146  CA       -20.9420    6.1980    5.3320 C.3   148  MET148      0.1605
    147  C        -19.8840    7.1340    5.9080 C.2   148  MET148      0.2287
    148  O        -18.9150    7.4830    5.2320 O.2   148  MET148     -0.2864
    149  CB       -20.3650    4.7940    5.1190 C.3   148  MET148      0.0413
    150  CG       -20.1610    4.0220    6.4140 C.3   148  MET148      0.0598
    151  SD       -19.7710    2.2720    6.1930 S.3   148  MET148     -0.1393
    152  CE       -18.1160    2.3660    5.5100 C.3   148  MET148      0.0692
    153  N        -17.0330    7.5920    7.3280 N.3   150  ARG150     -0.1245
    154  CA       -15.7220    7.0500    7.6500 C.3   150  ARG150      0.1563
    155  C        -14.8240    8.1210    8.2610 C.2   150  ARG150      0.2260
    156  O        -14.7550    9.2470    7.7680 O.2   150  ARG150     -0.2867
    157  CB       -15.0670    6.4560    6.4020 C.3   150  ARG150      0.0307
    158  CG       -15.7250    5.1770    5.9070 C.3   150  ARG150      0.0489
    159  CD       -14.9830    4.6010    4.7130 C.3   150  ARG150      0.2205
    160  NE       -15.2100    5.3770    3.4990 N.pl3 150  ARG150     -0.0865
    161  CZ       -14.4910    5.2520    2.3880 C.cat 150  ARG150      0.5346
    162  NH1      -13.4870    4.3860    2.3420 N.pl3 150  ARG150      0.1354
    163  NH2      -14.7690    5.9970    1.3280 N.pl3 150  ARG150      0.1354
@<TRIPOS>BOND
     1    68    67    1
     2    76    75   ar
     3    77    75   ar
     4    47    46   ar
     5    85    83   am
     6    48    46   ar
     7   120   119    2
     8    67    66    1
     9    46    45    1
    10    75    74    1
    11    83    84    2
    12    83    82    1
    13   119   118    1
    14    45    42    1
    15    74    73    1
    16    73    70    1
    17    82    79    1
    18    66    65    1
    19    52    51    2
    20   117   118    1
    21   118   121    1
    22    65    62    1
    23    69    70    1
    24    69    63   am
    25    42    41    1
    26    42    43    1
    27    62    63    1
    28    62    61    1
    29   125   126    1
    30    78    79    1
    31    78    71   am
    32    70    71    1
    33   121   122    1
    34    51    61   am
    35    51    50    1
    36    79    80    1
    37    63    64    2
    38    41    36   am
    39    71    72    2
    40    43    49   am
    41    43    44    2
    42    49    50    1
    43   126   127    1
    44   126   129    1
    45   112   111    2
    46   127   128    2
    47    89    88    2
    48    50    53    1
    49    80    81    2
    50    80    86   am
    51   122   123    1
    52   122   124    1
    53   111   110    1
    54    36    37    2
    55    36    35    1
    56    56    58   ar
    57    56    54   ar
    58    92    93    2
    59    92    91    1
    60    53    54    1
    61    86    87    1
    62    58    59   ar
    63    35    38    1
    64    35    34    1
    65    54    55   ar
    66    88    87    1
    67    88    90   am
    68    38    40    1
    69    38    39    1
    70    91    90    1
    71    91    94    1
    72    98    99    1
    73   110   113    1
    74   110   109    1
    75   113   114    1
    76   109   100   am
    77    59    60    1
    78    59    57   ar
    79    55    57   ar
    80   130   131    1
    81    94    95    1
    82   100    99    1
    83   100   101    2
    84    96    95   ar
    85    99   102    1
    86    29    30    1
    87   137   139   ar
    88   137   135   ar
    89   114   116   am
    90   114   115    2
    91   139   140   ar
    92    95    97   ar
    93    33    30    1
    94   131   134    1
    95   131   132    1
    96    30    31    1
    97   102   103    1
    98   133   132    2
    99   103   104    1
   100    32    31    2
   101   134   135    1
   102   135   136   ar
   103   140   138   ar
   104   107   106    1
   105   132   141   am
   106   106   108    1
   107   106   105    2
   108   105   104    1
   109   136   138   ar
   110   163   161    1
   111   141   142    1
   112    16    15    1
   113   162   161    1
   114   142   143    1
   115   161   160    2
   116    17    15    1
   117    27    26    1
   118    15    14    1
   119     9     7   ar
   120   160   159    1
   121    14    11    1
   122   143   144    2
   123   143   145   am
   124    28    26    1
   125    26    23    1
   126   145   146    1
   127     8     7   ar
   128     7     6    1
   129   159   158    1
   130    11    12    1
   131    11    10    1
   132   149   146    1
   133   149   150    1
   134     5     6    1
   135     5     2    1
   136    23    24    1
   137    23    22    1
   138   148   147    2
   139    24    25    2
   140   146   147    1
   141    13    12    2
   142   152   151    1
   143    12    18   am
   144     4     3    2
   145     1     2    1
   146   158   157    1
   147    18    19    1
   148   151   150    1
   149     2     3    1
   150   157   154    1
   151    19    20    1
   152   153   154    1
   153    20    21    2
   154   154   155    1
   155   156   155    2
