@<TRIPOS>MOLECULE
tmp/6brkA00.pdb
 232 221 0 0 0
SMALL
GASTEIGER

@<TRIPOS>ATOM
      1  N        -50.0450  -99.9360  167.1690 N.3   110  GLN110     -0.1231
      2  CA       -51.0990  -99.3020  166.3760 C.3   110  GLN110      0.1698
      3  C        -52.3390 -100.1780  166.3740 C.2   110  GLN110      0.2592
      4  O        -53.4180  -99.6890  166.6970 O.2   110  GLN110     -0.2718
      5  CB       -50.6050  -99.0930  164.9410 C.3   110  GLN110      0.0381
      6  CG       -51.6260  -98.4760  163.9840 C.3   110  GLN110      0.0905
      7  CD       -51.4510  -96.9930  163.7830 C.2   110  GLN110      0.2608
      8  OE1      -50.9940  -96.2940  164.6760 O.2   110  GLN110     -0.2717
      9  NE2      -51.8070  -96.4950  162.5790 N.am  110  GLN110     -0.0878
     10  N        -52.1720 -101.4570  166.0180 N.am  111  LEU111     -0.1980
     11  CA       -53.3240 -102.3360  165.8650 C.3   111  LEU111      0.1596
     12  C        -53.6310 -103.1320  167.1310 C.2   111  LEU111      0.2287
     13  O        -54.4410 -104.0640  167.1190 O.2   111  LEU111     -0.2864
     14  CB       -53.1070 -103.2350  164.6700 C.3   111  LEU111      0.0297
     15  CG       -52.8370 -102.4870  163.3730 C.3   111  LEU111      0.0022
     16  CD1      -52.6370 -103.4470  162.2290 C.3   111  LEU111      0.0001
     17  CD2      -53.9380 -101.5040  163.0210 C.3   111  LEU111      0.0001
     18  N        -53.9520 -106.7400  167.1100 N.3   114  GLY114     -0.1225
     19  CA       -53.5360 -107.0850  165.7640 C.3   114  GLY114      0.1811
     20  C        -52.1680 -107.7410  165.6840 C.2   114  GLY114      0.2280
     21  O        -51.9710 -108.6440  164.8810 O.2   114  GLY114     -0.2866
     22  N        -47.8760  -96.1250  167.4300 N.3   125  ARG125     -0.1245
     23  CA       -48.4780  -94.8460  167.1290 C.3   125  ARG125      0.1563
     24  C        -47.4540  -93.7710  166.7070 C.2   125  ARG125      0.2260
     25  O        -47.7510  -92.8810  165.9290 O.2   125  ARG125     -0.2867
     26  CB       -49.2750  -94.3340  168.3200 C.3   125  ARG125      0.0307
     27  CG       -50.5330  -95.1330  168.5530 C.3   125  ARG125      0.0489
     28  CD       -51.6080  -94.8430  167.5230 C.3   125  ARG125      0.2205
     29  NE       -52.6090  -95.9040  167.4620 N.pl3 125  ARG125     -0.0865
     30  CZ       -53.6440  -95.8930  166.6370 C.cat 125  ARG125      0.5346
     31  NH1      -53.8300  -94.8750  165.8130 N.pl3 125  ARG125      0.1354
     32  NH2      -54.5000  -96.8870  166.6380 N.pl3 125  ARG125      0.1354
     33  N        -46.5480  -93.5760  162.9690 N.3   128  HIS128     -0.1241
     34  CA       -47.7470  -93.1950  162.2490 C.3   128  HIS128      0.1621
     35  C        -48.0720  -91.7160  162.4760 C.2   128  HIS128      0.2264
     36  O        -48.3740  -91.0060  161.5170 O.2   128  HIS128     -0.2867
     37  CB       -48.9080  -94.0480  162.7610 C.3   128  HIS128      0.0745
     38  CG       -50.2560  -93.4310  162.5510 C.ar  128  HIS128      0.0817
     39  ND1      -50.7600  -93.1280  161.3020 N.ar  128  HIS128     -0.2268
     40  CD2      -51.1950  -93.0390  163.4400 C.ar  128  HIS128      0.1154
     41  CE1      -51.9520  -92.5780  161.4290 C.ar  128  HIS128      0.1986
     42  NE2      -52.2370  -92.5070  162.7160 N.ar  128  HIS128     -0.2212
     43  N        -52.4290  -85.6940  166.9180 N.3   167  ARG167     -0.1231
     44  CA       -53.8400  -86.1520  166.9570 C.3   167  ARG167      0.1694
     45  C        -53.9300  -87.4070  167.8160 C.2   167  ARG167      0.2592
     46  O        -54.8200  -87.5270  168.6540 O.2   167  ARG167     -0.2718
     47  CB       -54.3460  -86.4560  165.5550 C.3   167  ARG167      0.0321
     48  CG       -55.7720  -87.0070  165.5740 C.3   167  ARG167      0.0489
     49  CD       -56.3020  -87.3730  164.2190 C.3   167  ARG167      0.2205
     50  NE       -57.6710  -87.8920  164.2970 N.pl3 167  ARG167     -0.0865
     51  CZ       -58.4180  -88.1810  163.2310 C.cat 167  ARG167      0.5346
     52  NH1      -57.9470  -87.9990  162.0020 N.pl3 167  ARG167      0.1354
     53  NH2      -59.6440  -88.6360  163.3740 N.pl3 167  ARG167      0.1354
     54  N        -52.8990  -88.2480  167.6770 N.am  168  ASN168     -0.1974
     55  CA       -52.9140  -89.5540  168.3640 C.3   168  ASN168      0.1688
     56  C        -52.1630  -89.5050  169.7140 C.2   168  ASN168      0.2292
     57  O        -51.6590  -90.5100  170.1730 O.2   168  ASN168     -0.2864
     58  CB       -52.3720  -90.6520  167.4650 C.3   168  ASN168      0.1181
     59  CG       -53.1710  -90.7980  166.1760 C.2   168  ASN168      0.2629
     60  OD1      -52.6090  -90.8340  165.0900 O.2   168  ASN168     -0.2716
     61  ND2      -54.4900  -90.8590  166.2880 N.am  168  ASN168     -0.0877
     62  N        -53.8050  -91.7270  172.8300 N.3   171  HIS171     -0.1241
     63  CA       -54.1920  -93.1280  172.7650 C.3   171  HIS171      0.1621
     64  C        -53.6900  -93.9020  173.9870 C.2   171  HIS171      0.2264
     65  O        -52.6120  -93.5850  174.4910 O.2   171  HIS171     -0.2867
     66  CB       -53.6450  -93.7680  171.4950 C.3   171  HIS171      0.0745
     67  CG       -54.6430  -93.8980  170.3940 C.ar  171  HIS171      0.0817
     68  ND1      -54.3810  -93.5670  169.0830 N.ar  171  HIS171     -0.2268
     69  CD2      -55.9240  -94.3160  170.4210 C.ar  171  HIS171      0.1154
     70  CE1      -55.4680  -93.7690  168.3520 C.ar  171  HIS171      0.1986
     71  NE2      -56.4130  -94.2520  169.1370 N.ar  171  HIS171     -0.2212
     72  N        -53.9400  -99.0380  171.8860 N.3   175  SER175     -0.1202
     73  CA       -54.6990  -98.1300  171.0340 C.3   175  SER175      0.2020
     74  C        -56.2200  -98.1380  171.3200 C.2   175  SER175      0.2618
     75  O        -56.6970  -97.6380  172.3530 O.2   175  SER175     -0.2717
     76  CB       -54.4490  -98.4700  169.5760 C.3   175  SER175      0.2103
     77  OG       -53.1500  -98.1010  169.1730 O.3   175  SER175     -0.2182
     78  N        -56.9780  -98.6890  170.3700 N.am  176  HIS176     -0.1975
     79  CA       -58.4270  -98.5250  170.3690 C.3   176  HIS176      0.1656
     80  C        -59.1060  -99.4720  171.3220 C.2   176  HIS176      0.2291
     81  O        -60.2600  -99.2100  171.6920 O.2   176  HIS176     -0.2864
     82  CB       -58.9750  -98.7490  168.9840 C.3   176  HIS176      0.0771
     83  CG       -59.2610  -97.4840  168.2490 C.ar  176  HIS176      0.0820
     84  ND1      -58.7990  -97.2510  166.9680 N.ar  176  HIS176     -0.2267
     85  CD2      -59.9590  -96.3810  168.6190 C.ar  176  HIS176      0.1154
     86  CE1      -59.1950  -96.0530  166.5910 C.ar  176  HIS176      0.1986
     87  NE2      -59.8990  -95.5080  167.5720 N.ar  176  HIS176     -0.2212
     88  N        -62.9810 -100.4390  174.3860 N.3   181  ARG181     -0.1245
     89  CA       -63.4620 -101.5990  175.1390 C.3   181  ARG181      0.1563
     90  C        -63.2370 -101.4690  176.6050 C.2   181  ARG181      0.2260
     91  O        -64.1540 -101.7410  177.4100 O.2   181  ARG181     -0.2867
     92  CB       -62.7130 -102.8280  174.6480 C.3   181  ARG181      0.0307
     93  CG       -63.1700 -103.3450  173.2950 C.3   181  ARG181      0.0489
     94  CD       -62.5510 -104.6930  173.0090 C.3   181  ARG181      0.2205
     95  NE       -62.7880 -105.1180  171.6360 N.pl3 181  ARG181     -0.0865
     96  CZ       -63.8840 -105.7450  171.2090 C.cat 181  ARG181      0.5346
     97  NH1      -63.9590 -106.1040  169.9190 N.pl3 181  ARG181      0.1354
     98  NH2      -64.8860 -106.0240  172.0560 N.pl3 181  ARG181      0.1354
     99  N        -60.1370  -90.8480  172.6100 N.3   194  HIS194     -0.1226
    100  CA       -58.6900  -90.7230  172.6700 C.3   194  HIS194      0.1752
    101  C        -58.2850  -89.2960  172.2650 C.2   194  HIS194      0.2595
    102  O        -57.2340  -88.8070  172.6950 O.2   194  HIS194     -0.2718
    103  CB       -58.0080  -91.7570  171.7880 C.3   194  HIS194      0.0759
    104  CG       -58.2730  -91.5940  170.3140 C.ar  194  HIS194      0.0818
    105  ND1      -57.4690  -90.8310  169.4870 N.ar  194  HIS194     -0.2268
    106  CD2      -59.2370  -92.1130  169.5170 C.ar  194  HIS194      0.1154
    107  CE1      -57.9220  -90.8860  168.2480 C.ar  194  HIS194      0.1986
    108  NE2      -58.9940  -91.6580  168.2390 N.ar  194  HIS194     -0.2212
    109  N        -59.1420  -88.6230  171.4880 N.am  195  GLU195     -0.1979
    110  CA       -58.8800  -87.2500  171.0840 C.3   195  GLU195      0.1602
    111  C        -58.8630  -86.3020  172.2800 C.2   195  GLU195      0.2287
    112  O        -58.0070  -85.4120  172.3740 O.2   195  GLU195     -0.2864
    113  CB       -59.8310  -86.7770  169.9950 C.3   195  GLU195      0.0415
    114  CG       -59.6930  -87.4760  168.6450 C.3   195  GLU195      0.1163
    115  CD       -60.6860  -88.6230  168.4530 C.2   195  GLU195      0.3649
    116  OE1      -61.6790  -88.7610  169.2280 O.co2 195  GLU195     -0.2457
    117  OE2      -60.4720  -89.4000  167.5020 O.co2 195  GLU195     -0.2457
    118  N        -63.7900  -85.5070  159.9300 N.3   257  LYS257     -0.1245
    119  CA       -64.7860  -86.4980  160.3170 C.3   257  LYS257      0.1561
    120  C        -66.1080  -86.2740  159.6130 C.2   257  LYS257      0.2260
    121  O        -66.9770  -87.1390  159.6530 O.2   257  LYS257     -0.2867
    122  CB       -64.8940  -86.5520  161.8370 C.3   257  LYS257      0.0271
    123  CG       -63.5600  -86.8880  162.5470 C.3   257  LYS257      0.0035
    124  CD       -63.4280  -86.0960  163.8470 C.3   257  LYS257      0.0206
    125  CE       -62.5050  -86.7180  164.8610 C.3   257  LYS257      0.1093
    126  NZ       -62.7600  -86.1440  166.2020 N.3   257  LYS257     -0.1314
    127  N        -54.8540  -88.5660  158.2070 N.3   264  ASP264     -0.1225
    128  CA       -54.6820  -89.5790  159.2410 C.3   264  ASP264      0.1805
    129  C        -55.0160  -90.9070  158.6020 C.2   264  ASP264      0.2597
    130  O        -54.1910  -91.8420  158.6440 O.2   264  ASP264     -0.2718
    131  CB       -55.5840  -89.2740  160.4250 C.3   264  ASP264      0.1424
    132  CG       -55.4990  -90.3380  161.5330 C.2   264  ASP264      0.3668
    133  OD1      -54.4780  -91.0350  161.6600 O.co2 264  ASP264     -0.2456
    134  OD2      -56.4640  -90.4880  162.3010 O.co2 264  ASP264     -0.2456
    135  N        -56.1890  -90.9810  157.9710 N.am  265  LYS265     -0.1979
    136  CA       -56.6030  -92.1860  157.2870 C.3   265  LYS265      0.1596
    137  C        -55.6170  -92.6350  156.1850 C.2   265  LYS265      0.2287
    138  O        -55.2990  -93.7920  156.0390 O.2   265  LYS265     -0.2864
    139  CB       -57.9930  -91.9990  156.6820 C.3   265  LYS265      0.0298
    140  CG       -59.0970  -91.8950  157.7210 C.3   265  LYS265      0.0038
    141  CD       -60.4510  -91.6100  157.0890 C.3   265  LYS265      0.0206
    142  CE       -61.3440  -90.8510  158.0640 C.3   265  LYS265      0.1093
    143  NZ       -61.3930  -91.4690  159.4220 N.3   265  LYS265     -0.1314
    144  N        -52.4150  -94.0790  157.9900 N.3   268  TYR268     -0.1241
    145  CA       -52.5400  -95.3910  158.6380 C.3   268  TYR268      0.1605
    146  C        -53.0230  -96.4640  157.6560 C.2   268  TYR268      0.2264
    147  O        -52.6890  -97.6310  157.8320 O.2   268  TYR268     -0.2867
    148  CB       -53.4300  -95.3610  159.8880 C.3   268  TYR268      0.0534
    149  CG       -54.9530  -95.2350  159.7320 C.ar  268  TYR268     -0.0201
    150  CD1      -55.7120  -96.2480  159.1270 C.ar  268  TYR268     -0.0009
    151  CD2      -55.6250  -94.1700  160.2980 C.ar  268  TYR268     -0.0009
    152  CE1      -57.0840  -96.1560  159.0220 C.ar  268  TYR268      0.0417
    153  CE2      -57.0020  -94.0590  160.2050 C.ar  268  TYR268      0.0417
    154  CZ       -57.7340  -95.0620  159.5560 C.ar  268  TYR268      0.1957
    155  OH       -59.1140  -94.9550  159.4420 O.3   268  TYR268     -0.2866
    156  N        -50.4830  -99.4090  157.6740 N.3   272  ASP272     -0.1239
    157  CA       -51.0400 -100.6750  158.1450 C.3   272  ASP272      0.1674
    158  C        -50.9780 -101.6710  156.9900 C.2   272  ASP272      0.2266
    159  O        -50.4900 -102.7880  157.2590 O.2   272  ASP272     -0.2867
    160  CB       -52.5140 -100.4740  158.5240 C.3   272  ASP272      0.1410
    161  CG       -52.6930  -99.5950  159.7480 C.2   272  ASP272      0.3668
    162  OD1      -51.6730  -99.0090  160.1920 O.co2 272  ASP272     -0.2456
    163  OD2      -53.8390  -99.4790  160.2350 O.co2 272  ASP272     -0.2456
    164  N        -60.6130  -98.9590  153.0090 N.3   325  ARG325     -0.1245
    165  CA       -61.0970  -98.7760  154.3590 C.3   325  ARG325      0.1563
    166  C        -61.8550 -100.0320  154.8090 C.2   325  ARG325      0.2260
    167  O        -61.5820 -100.5490  155.8810 O.2   325  ARG325     -0.2867
    168  CB       -61.9830  -97.5360  154.4470 C.3   325  ARG325      0.0307
    169  CG       -62.3490  -97.1680  155.8660 C.3   325  ARG325      0.0489
    170  CD       -63.7620  -96.6430  155.9650 C.3   325  ARG325      0.2205
    171  NE       -64.1350  -96.3390  157.3550 N.pl3 325  ARG325     -0.0865
    172  CZ       -65.1250  -96.9330  158.0450 C.cat 325  ARG325      0.5346
    173  NH1      -65.8710  -97.8840  157.5000 N.pl3 325  ARG325      0.1354
    174  NH2      -65.3920  -96.5730  159.2930 N.pl3 325  ARG325      0.1354
    175  N        -60.8260 -102.9870  157.3150 N.3   329  HIS329     -0.1241
    176  CA       -61.7600 -103.2660  158.4240 C.3   329  HIS329      0.1621
    177  C        -62.2130 -104.6820  158.4180 C.2   329  HIS329      0.2264
    178  O        -62.0900 -105.4390  159.3550 O.2   329  HIS329     -0.2867
    179  CB       -62.9030 -102.2750  158.3590 C.3   329  HIS329      0.0745
    180  CG       -62.6350 -101.0100  159.1240 C.ar  329  HIS329      0.0817
    181  ND1      -62.4250 -100.9960  160.4940 N.ar  329  HIS329     -0.2268
    182  CD2      -62.5350  -99.7210  158.7100 C.ar  329  HIS329      0.1154
    183  CE1      -62.2040  -99.7520  160.8860 C.ar  329  HIS329      0.1986
    184  NE2      -62.2670  -98.9590  159.8240 N.ar  329  HIS329     -0.2212
    185  N        -58.7840 -107.1520  158.6760 N.3   332  ALA332     -0.1231
    186  CA       -57.7080 -106.9220  159.6570 C.3   332  ALA332      0.1694
    187  C        -58.1500 -106.2710  160.9700 C.2   332  ALA332      0.2592
    188  O        -57.9130 -106.8030  162.0480 O.2   332  ALA332     -0.2718
    189  CB       -56.6720 -106.0090  159.0180 C.3   332  ALA332      0.0304
    190  N        -58.8190 -105.1320  160.8830 N.am  333  TYR333     -0.1962
    191  CA       -59.2120 -104.3920  162.0840 C.3   333  TYR333      0.1771
    192  C        -60.2440 -105.1360  162.9240 C.2   333  TYR333      0.2619
    193  O        -60.0850 -105.3400  164.1280 O.2   333  TYR333     -0.2715
    194  CB       -59.7480 -103.0200  161.7150 C.3   333  TYR333      0.0574
    195  CG       -58.7560 -102.1450  160.9920 C.ar  333  TYR333     -0.0198
    196  CD1      -57.3900 -102.2700  161.2020 C.ar  333  TYR333     -0.0009
    197  CD2      -59.1840 -101.1590  160.1360 C.ar  333  TYR333     -0.0009
    198  CE1      -56.4870 -101.4280  160.5470 C.ar  333  TYR333      0.0417
    199  CE2      -58.2910 -100.3250  159.4720 C.ar  333  TYR333      0.0417
    200  CZ       -56.9470 -100.4660  159.6840 C.ar  333  TYR333      0.1957
    201  OH       -56.0630  -99.6600  159.0290 O.3   333  TYR333     -0.2866
    202  N        -61.3340 -105.5420  162.2870 N.am  334  GLN334     -0.1977
    203  CA       -62.3740 -106.3250  162.9770 C.3   334  GLN334      0.1601
    204  C        -62.1380 -107.8070  162.7200 C.2   334  GLN334      0.2287
    205  O        -63.0730 -108.5900  162.5580 O.2   334  GLN334     -0.2864
    206  CB       -63.7850 -105.8790  162.5830 C.3   334  GLN334      0.0394
    207  CG       -64.2590 -106.3880  161.2170 C.3   334  GLN334      0.0908
    208  CD       -64.9790 -105.3200  160.4050 C.2   334  GLN334      0.2608
    209  OE1      -64.8200 -104.1010  160.6560 O.2   334  GLN334     -0.2717
    210  NE2      -65.7560 -105.7630  159.3940 N.am  334  GLN334     -0.0878
    211  N        -57.9980 -111.0720  166.5450 N.3   338  SER338     -0.1202
    212  CA       -57.4360 -109.8130  167.0340 C.3   338  SER338      0.2020
    213  C        -58.3550 -109.2000  168.0830 C.2   338  SER338      0.2618
    214  O        -57.9160 -108.8310  169.1920 O.2   338  SER338     -0.2717
    215  CB       -57.2900 -108.8070  165.8770 C.3   338  SER338      0.2103
    216  OG       -56.2820 -109.1960  164.9750 O.3   338  SER338     -0.2182
    217  N        -59.6500 -109.1250  167.7380 N.am  339  ASN339     -0.1974
    218  CA       -60.6200 -108.5710  168.6600 C.3   339  ASN339      0.1688
    219  C        -60.7650 -109.4260  169.9210 C.2   339  ASN339      0.2292
    220  O        -60.8480 -108.8600  171.0280 O.2   339  ASN339     -0.2864
    221  CB       -61.9750 -108.4770  168.0060 C.3   339  ASN339      0.1181
    222  CG       -61.9840 -107.4380  166.9380 C.2   339  ASN339      0.2629
    223  OD1      -60.9990 -107.2700  166.2000 O.2   339  ASN339     -0.2716
    224  ND2      -63.0780 -106.7080  166.8540 N.am  339  ASN339     -0.0877
    225  N        -57.9450 -108.4350  172.0320 N.3   342  ASP342     -0.1239
    226  CA       -58.2850 -107.1540  172.6450 C.3   342  ASP342      0.1674
    227  C        -59.2380 -107.3450  173.8070 C.2   342  ASP342      0.2266
    228  O        -59.0740 -106.7340  174.8610 O.2   342  ASP342     -0.2867
    229  CB       -58.9300 -106.2510  171.5820 C.3   342  ASP342      0.1410
    230  CG       -57.9120 -105.5100  170.7230 C.2   342  ASP342      0.3668
    231  OD1      -56.7580 -105.3080  171.1790 O.co2 342  ASP342     -0.2456
    232  OD2      -58.2740 -105.1190  169.5800 O.co2 342  ASP342     -0.2456
@<TRIPOS>BOND
     1   164   165    1
     2   165   168    1
     3   165   166    1
     4   168   169    1
     5   166   167    2
     6   169   170    1
     7   170   171    1
     8   138   137    2
     9   137   136    1
    10   139   136    1
    11   139   140    1
    12   158   159    2
    13   158   157    1
    14   141   140    1
    15   141   142    1
    16   136   135    1
    17   175   176    1
    18   171   172    2
    19   173   172    1
    20   146   147    2
    21   146   145    1
    22   156   157    1
    23   135   129   am
    24   144   145    1
    25   172   174    1
    26   142   143    1
    27   157   160    1
    28   127   128    1
    29   179   176    1
    30   179   180    1
    31   177   176    1
    32   177   178    2
    33   160   161    1
    34   129   130    2
    35   129   128    1
    36   145   148    1
    37   185   186    1
    38   182   180   ar
    39   182   184   ar
    40   189   186    1
    41   152   150   ar
    42   152   154   ar
    43   201   200    1
    44   180   181   ar
    45   150   149   ar
    46   128   131    1
    47   210   208   am
    48   155   154    1
    49   199   200   ar
    50   199   197   ar
    51   154   153   ar
    52   120   121    2
    53   120   119    1
    54   186   187    1
    55   200   198   ar
    56   149   148    1
    57   149   151   ar
    58   161   162   ar
    59   161   163   ar
    60   184   183   ar
    61   118   119    1
    62   197   195   ar
    63   153   151   ar
    64   119   122    1
    65   208   209    2
    66   208   207    1
    67   131   132    1
    68   181   183   ar
    69   198   196   ar
    70   190   187   am
    71   190   191    1
    72   187   188    2
    73   195   196   ar
    74   195   194    1
    75   207   206    1
    76    39    41   ar
    77    39    38   ar
    78    41    42   ar
    79    36    35    2
    80   132   133   ar
    81   132   134   ar
    82   194   191    1
    83   122   123    1
    84    52    51    1
    85   191   192    1
    86    16    15    1
    87    34    35    1
    88    34    37    1
    89    34    33    1
    90   202   192   am
    91   202   203    1
    92   123   124    1
    93    38    37    1
    94    38    40   ar
    95   205   204    2
    96     9     7   am
    97   206   203    1
    98    42    40   ar
    99   204   203    1
   100   192   193    2
   101    17    15    1
   102    51    53    1
   103    51    50    2
   104    15    14    1
   105     7     6    1
   106     7     8    2
   107   124   125    1
   108     6     5    1
   109    49    50    1
   110    49    48    1
   111    14    11    1
   112   125   126    1
   113    21    20    2
   114     5     2    1
   115   216   215    1
   116    60    59    2
   117    47    48    1
   118    47    44    1
   119    20    19    1
   120    19    18    1
   121    31    30    1
   122    11    10    1
   123    11    12    1
   124   215   212    1
   125    25    24    2
   126    10     3   am
   127    59    61   am
   128    59    58    1
   129   223   222    2
   130     3     2    1
   131     3     4    2
   132     2     1    1
   133   211   212    1
   134    86    84   ar
   135    86    87   ar
   136    30    32    1
   137    30    29    2
   138    24    23    1
   139   224   222   am
   140    43    44    1
   141   222   221    1
   142    44    45    1
   143    84    83   ar
   144   212   213    1
   145    13    12    2
   146    23    22    1
   147    23    26    1
   148    29    28    1
   149    58    55    1
   150   117   115   ar
   151    28    27    1
   152    87    85   ar
   153    54    45   am
   154    54    55    1
   155   217   213   am
   156   217   218    1
   157    45    46    2
   158   221   218    1
   159   213   214    2
   160   108   107   ar
   161   108   106   ar
   162   107   105   ar
   163    83    85   ar
   164    83    82    1
   165    26    27    1
   166    70    68   ar
   167    70    71   ar
   168    55    56    1
   169   115   114    1
   170   115   116   ar
   171   114   113    1
   172   218   219    1
   173    82    79    1
   174    68    67   ar
   175    71    69   ar
   176    77    76    1
   177   105   104   ar
   178   106   104   ar
   179    76    73    1
   180   232   230   ar
   181    56    57    2
   182    97    96    1
   183   219   220    2
   184   113   110    1
   185   104   103    1
   186    79    78    1
   187    79    80    1
   188    78    74   am
   189    67    69   ar
   190    67    66    1
   191   230   231   ar
   192   230   229    1
   193    73    74    1
   194    73    72    1
   195   110   109    1
   196   110   111    1
   197    96    95    2
   198    96    98    1
   199    74    75    2
   200    80    81    2
   201   109   101   am
   202    66    63    1
   203   229   226    1
   204    95    94    1
   205   103   100    1
   206   225   226    1
   207   101   100    1
   208   101   102    2
   209   111   112    2
   210    99   100    1
   211   226   227    1
   212    63    62    1
   213    63    64    1
   214    94    93    1
   215    93    92    1
   216   227   228    2
   217    64    65    2
   218    88    89    1
   219    92    89    1
   220    89    90    1
   221    90    91    2
