@<TRIPOS>MOLECULE
tmp/6brlA00.pdb
 100 97 0 0 0
SMALL
GASTEIGER

@<TRIPOS>ATOM
      1  N         40.4130   95.4110   52.4810 N.3     6  ARG6       -0.1245
      2  CA        39.0720   94.8190   52.5350 C.3     6  ARG6        0.1563
      3  C         38.9300   93.7510   51.4640 C.2     6  ARG6        0.2260
      4  O         39.3090   93.9660   50.3100 O.2     6  ARG6       -0.2867
      5  CB        37.9520   95.8570   52.3600 C.3     6  ARG6        0.0307
      6  CG        37.6890   96.3920   50.9320 C.3     6  ARG6        0.0489
      7  CD        38.8750   97.1550   50.2810 C.3     6  ARG6        0.2205
      8  NE        38.4650   97.7460   49.0020 N.pl3   6  ARG6       -0.0865
      9  CZ        38.3340   97.0400   47.8760 C.cat   6  ARG6        0.5346
     10  NH1       38.6030   95.7170   47.8670 N.pl3   6  ARG6        0.1354
     11  NH2       37.9220   97.6360   46.7550 N.pl3   6  ARG6        0.1354
     12  N         36.0980   92.2290   49.4290 N.3     8  ALA8       -0.1231
     13  CA        34.8170   92.8250   49.0480 C.3     8  ALA8        0.1679
     14  C         34.0710   91.9380   48.0500 C.2     8  ALA8        0.2434
     15  O         33.7480   92.3710   46.9470 O.2     8  ALA8       -0.2733
     16  CB        35.0430   94.2140   48.4550 C.3     8  ALA8        0.0304
     17  N         33.8030   90.6840   48.3840 N.am    9  PRO9       -0.2718
     18  CA        33.0820   89.8390   47.4300 C.3     9  PRO9        0.1535
     19  C         31.6130   90.2380   47.3530 C.2     9  PRO9        0.2599
     20  O         30.9990   90.6600   48.3460 O.2     9  PRO9       -0.2715
     21  CB        33.2250   88.4320   48.0200 C.3     9  PRO9        0.0310
     22  CG        33.0470   88.6920   49.5130 C.3     9  PRO9        0.0237
     23  CD        33.8650   90.0590   49.7160 C.3     9  PRO9        0.0939
     24  N         31.0540   90.0880   46.1400 N.am   10  SER10      -0.1950
     25  CA        29.6120   90.1550   45.9410 C.3    10  SER10       0.1924
     26  C         28.9730   88.8060   46.2840 C.2    10  SER10       0.2314
     27  O         29.5760   87.7540   46.0620 O.2    10  SER10      -0.2863
     28  CB        29.2960   90.5350   44.4920 C.3    10  SER10       0.2116
     29  OG        30.0570   91.6720   44.0720 O.3    10  SER10      -0.2180
     30  N         29.2550   93.1500   48.9520 N.3    42  GLU42      -0.1245
     31  CA        29.0170   94.0710   47.8240 C.3    42  GLU42       0.1567
     32  C         27.7380   93.6430   47.1120 C.2    42  GLU42       0.2260
     33  O         27.7380   93.0010   46.0610 O.2    42  GLU42      -0.2867
     34  CB        30.2360   94.1270   46.9150 C.3    42  GLU42       0.0388
     35  CG        31.3570   94.8340   47.7080 C.3    42  GLU42       0.1160
     36  CD        32.1800   95.8420   46.9240 C.2    42  GLU42       0.3649
     37  OE1       32.1740   95.8380   45.6870 O.co2  42  GLU42      -0.2457
     38  OE2       32.8980   96.6310   47.5530 O.co2  42  GLU42      -0.2457
     39  N         28.7360   99.1380   40.9300 N.3   201  TYR201     -0.1241
     40  CA        29.9280   98.7020   41.6200 C.3   201  TYR201      0.1605
     41  C         31.0200   99.7810   41.6290 C.2   201  TYR201      0.2264
     42  O         31.6960   99.9880   42.6480 O.2   201  TYR201     -0.2867
     43  CB        30.4360   97.4090   40.9380 C.3   201  TYR201      0.0534
     44  CG        31.8950   97.2210   41.2020 C.ar  201  TYR201     -0.0201
     45  CD1       32.3330   96.6870   42.4150 C.ar  201  TYR201     -0.0009
     46  CD2       32.8600   97.6220   40.2670 C.ar  201  TYR201     -0.0009
     47  CE1       33.7010   96.5210   42.6880 C.ar  201  TYR201      0.0417
     48  CE2       34.2300   97.4610   40.5280 C.ar  201  TYR201      0.0417
     49  CZ        34.6410   96.9140   41.7440 C.ar  201  TYR201      0.1957
     50  OH        35.9750   96.7760   42.0240 O.3   201  TYR201     -0.2866
     51  N         32.2650  101.4280   45.1560 N.3   205  ASN205     -0.1240
     52  CA        33.6060  100.9710   45.5680 C.3   205  ASN205      0.1653
     53  C         34.4800  102.1310   46.0420 C.2   205  ASN205      0.2266
     54  O         35.1130  102.0860   47.1070 O.2   205  ASN205     -0.2867
     55  CB        34.3040  100.2710   44.3830 C.3   205  ASN205      0.1155
     56  CG        35.4640   99.3600   44.8130 C.2   205  ASN205      0.2627
     57  OD1       36.6390   99.5490   44.4270 O.2   205  ASN205     -0.2716
     58  ND2       35.1310   98.3570   45.6080 N.am  205  ASN205     -0.0877
     59  N         43.5110   95.2020   47.0460 N.3   218  ILE218     -0.1231
     60  CA        44.0960   94.0010   46.4340 C.3   218  ILE218      0.1692
     61  C         42.9510   93.2150   45.8040 C.2   218  ILE218      0.2591
     62  O         42.0300   92.7890   46.5090 O.2   218  ILE218     -0.2718
     63  CB        44.8460   93.1550   47.4760 C.3   218  ILE218      0.0266
     64  CG1       45.9380   93.9760   48.1640 C.3   218  ILE218      0.0019
     65  CG2       45.3860   91.7990   46.8690 C.3   218  ILE218      0.0020
     66  CD1       46.4390   93.3250   49.4560 C.3   218  ILE218      0.0001
     67  N         42.9900   93.0280   44.4890 N.am  219  ARG219     -0.1980
     68  CA        41.9000   92.3400   43.8070 C.3   219  ARG219      0.1597
     69  C         42.4390   91.6750   42.5500 C.2   219  ARG219      0.2287
     70  O         43.6140   91.8390   42.1920 O.2   219  ARG219     -0.2864
     71  CB        40.7610   93.3110   43.4760 C.3   219  ARG219      0.0334
     72  CG        41.2220   94.4260   42.5940 C.3   219  ARG219      0.0492
     73  CD        40.1590   95.5310   42.5790 C.3   219  ARG219      0.2205
     74  NE        40.5050   96.5670   41.6060 N.pl3 219  ARG219     -0.0865
     75  CZ        39.9290   97.7700   41.5840 C.cat 219  ARG219      0.5346
     76  NH1       38.9980   98.0670   42.4990 N.pl3 219  ARG219      0.1354
     77  NH2       40.2720   98.6660   40.6570 N.pl3 219  ARG219      0.1354
     78  N         40.8540   90.9460   36.6630 N.3   222  GLU222     -0.1231
     79  CA        39.6780   91.2860   35.8580 C.3   222  GLU222      0.1699
     80  C         39.2540   92.7480   36.0460 C.2   222  GLU222      0.2592
     81  O         38.5970   93.3150   35.1700 O.2   222  GLU222     -0.2718
     82  CB        38.5180   90.3310   36.1920 C.3   222  GLU222      0.0402
     83  CG        37.9090   90.5300   37.5750 C.3   222  GLU222      0.1161
     84  CD        38.6060   89.7260   38.6780 C.2   222  GLU222      0.3649
     85  OE1       39.7520   89.2370   38.4550 O.co2 222  GLU222     -0.2457
     86  OE2       37.9910   89.5980   39.7700 O.co2 222  GLU222     -0.2457
     87  N         39.6230   93.3720   37.1570 N.am  223  TRP223     -0.1976
     88  CA        39.3120   94.7630   37.4510 C.3   223  TRP223      0.1640
     89  C         40.3420   95.7350   36.8890 C.2   223  TRP223      0.2290
     90  O         40.1240   96.9420   36.9450 O.2   223  TRP223     -0.2864
     91  CB        39.2090   94.9670   38.9750 C.3   223  TRP223      0.0576
     92  CG        38.0350   94.2420   39.5330 C.ar  223  TRP223      0.0006
     93  CD1       38.0390   93.1910   40.4300 C.ar  223  TRP223      0.0946
     94  CD2       36.6720   94.4310   39.1400 C.ar  223  TRP223      0.0152
     95  NE1       36.7400   92.7700   40.6560 N.ar  223  TRP223     -0.2442
     96  CE2       35.8890   93.5030   39.8710 C.ar  223  TRP223      0.0810
     97  CE3       36.0260   95.3240   38.2590 C.ar  223  TRP223      0.0012
     98  CZ2       34.4910   93.4400   39.7460 C.ar  223  TRP223      0.0191
     99  CZ3       34.6400   95.2490   38.1260 C.ar  223  TRP223      0.0001
    100  CH2       33.8920   94.3120   38.8720 C.ar  223  TRP223      0.0015
@<TRIPOS>BOND
     1    81    80    2
     2    79    80    1
     3    79    82    1
     4    79    78    1
     5    80    87   am
     6    82    83    1
     7    89    90    2
     8    89    88    1
     9    87    88    1
    10    88    91    1
    11    83    84    1
    12    99    97   ar
    13    99   100   ar
    14    97    94   ar
    15    85    84   ar
    16    84    86   ar
    17   100    98   ar
    18    91    92    1
    19    94    92   ar
    20    94    96   ar
    21    92    93   ar
    22    98    96   ar
    23    96    95   ar
    24    46    48   ar
    25    46    44   ar
    26    93    95   ar
    27    48    49   ar
    28    77    75    1
    29    39    40    1
    30    43    44    1
    31    43    40    1
    32    44    45   ar
    33    75    74    2
    34    75    76    1
    35    74    73    1
    36    40    41    1
    37    41    42    2
    38    49    50    1
    39    49    47   ar
    40    70    69    2
    41    45    47   ar
    42    69    68    1
    43    73    72    1
    44    72    71    1
    45    71    68    1
    46    68    67    1
    47    29    28    1
    48    55    56    1
    49    55    52    1
    50    57    56    2
    51    67    61   am
    52    28    25    1
    53    56    58   am
    54    51    52    1
    55    52    53    1
    56    37    36   ar
    57    61    60    1
    58    61    62    2
    59    25    24    1
    60    25    26    1
    61    53    54    2
    62    33    32    2
    63    27    26    2
    64    24    19   am
    65    60    59    1
    66    60    63    1
    67    11     9    1
    68    65    63    1
    69    34    35    1
    70    34    31    1
    71    36    38   ar
    72    36    35    1
    73    15    14    2
    74    32    31    1
    75    19    18    1
    76    19    20    2
    77    18    21    1
    78    18    17    1
    79    63    64    1
    80    31    30    1
    81    10     9    1
    82     9     8    2
    83    21    22    1
    84    14    17   am
    85    14    13    1
    86    64    66    1
    87    17    23    1
    88    16    13    1
    89     8     7    1
    90    13    12    1
    91    22    23    1
    92     7     6    1
    93     4     3    2
    94     6     5    1
    95     3     2    1
    96     5     2    1
    97     1     2    1
