@<TRIPOS>MOLECULE
tmp/6brtA00.pdb
 119 116 0 0 0
SMALL
GASTEIGER

@<TRIPOS>ATOM
      1  N        120.8020  161.3310   15.7280 N.3    45  PHE45      -0.1241
      2  CA       120.0150  162.4300   15.2170 C.3    45  PHE45       0.1605
      3  C        118.9590  162.9230   16.1930 C.2    45  PHE45       0.2264
      4  O        118.2120  162.1480   16.7670 O.2    45  PHE45      -0.2867
      5  CB       119.3260  162.0460   13.9020 C.3    45  PHE45       0.0534
      6  CG       118.3080  163.0620   13.4400 C.ar   45  PHE45      -0.0203
      7  CD1      118.7100  164.2590   12.8830 C.ar   45  PHE45      -0.0042
      8  CD2      116.9520  162.8350   13.6000 C.ar   45  PHE45      -0.0042
      9  CE1      117.7830  165.2020   12.4810 C.ar   45  PHE45      -0.0003
     10  CE2      116.0340  163.7660   13.1920 C.ar   45  PHE45      -0.0003
     11  CZ       116.4420  164.9480   12.6270 C.ar   45  PHE45      -0.0000
     12  N        122.3890  154.9080   16.4510 N.3   114  SER114     -0.1202
     13  CA       121.9070  155.2850   15.1270 C.3   114  SER114      0.2020
     14  C        123.0230  155.7570   14.1880 C.2   114  SER114      0.2618
     15  O        124.0000  155.0470   13.9710 O.2   114  SER114     -0.2717
     16  CB       120.8370  156.3680   15.2560 C.3   114  SER114      0.2103
     17  OG       119.9850  156.3670   14.1270 O.3   114  SER114     -0.2182
     18  N        122.8780  156.9500   13.6270 N.am  115  VAL115     -0.1979
     19  CA       123.8680  157.4300   12.6880 C.3   115  VAL115      0.1595
     20  C        125.2620  157.3760   13.2930 C.2   115  VAL115      0.2287
     21  O        126.2450  157.1230   12.6000 O.2   115  VAL115     -0.2864
     22  CB       123.5670  158.8380   12.2320 C.3   115  VAL115      0.0276
     23  CG1      123.3020  159.7320   13.4180 C.3   115  VAL115      0.0022
     24  CG2      124.7210  159.3570   11.4480 C.3   115  VAL115      0.0022
     25  N        119.1670  152.7670    5.2640 N.3   143  PHE143     -0.1241
     26  CA       117.7860  153.0080    5.6460 C.3   143  PHE143      0.1605
     27  C        116.8000  152.8300    4.5120 C.2   143  PHE143      0.2264
     28  O        115.6870  152.3400    4.7260 O.2   143  PHE143     -0.2867
     29  CB       117.6660  154.3960    6.2480 C.3   143  PHE143      0.0534
     30  CG       118.1190  154.4500    7.6670 C.ar  143  PHE143     -0.0203
     31  CD1      117.2920  153.9990    8.6830 C.ar  143  PHE143     -0.0042
     32  CD2      119.3890  154.8860    7.9790 C.ar  143  PHE143     -0.0042
     33  CE1      117.7110  154.0110    9.9880 C.ar  143  PHE143     -0.0003
     34  CE2      119.8150  154.9150    9.2860 C.ar  143  PHE143     -0.0003
     35  CZ       118.9780  154.4720   10.2960 C.ar  143  PHE143     -0.0000
     36  N        112.3500  152.2980    4.6390 N.3   153  PHE153     -0.1241
     37  CA       112.0010  153.5910    4.0730 C.3   153  PHE153      0.1605
     38  C        112.0570  153.6060    2.5570 C.2   153  PHE153      0.2264
     39  O        113.0210  153.1370    1.9730 O.2   153  PHE153     -0.2867
     40  CB       112.9310  154.6760    4.6040 C.3   153  PHE153      0.0534
     41  CG       112.7760  154.9620    6.0630 C.ar  153  PHE153     -0.0203
     42  CD1      113.4830  154.2250    7.0090 C.ar  153  PHE153     -0.0042
     43  CD2      111.9640  155.9950    6.4950 C.ar  153  PHE153     -0.0042
     44  CE1      113.3630  154.5040    8.3710 C.ar  153  PHE153     -0.0003
     45  CE2      111.8390  156.2830    7.8440 C.ar  153  PHE153     -0.0003
     46  CZ       112.5410  155.5350    8.7870 C.ar  153  PHE153     -0.0000
     47  N        108.7320  163.4600    4.3140 N.3   161  VAL161     -0.1245
     48  CA       109.2960  163.8820    5.5860 C.3   161  VAL161      0.1561
     49  C        109.9770  165.2350    5.4490 C.2   161  VAL161      0.2260
     50  O        109.6350  166.1870    6.1350 O.2   161  VAL161     -0.2867
     51  CB       110.2970  162.8340    6.1120 C.3   161  VAL161      0.0252
     52  CG1      111.0680  163.3620    7.3120 C.3   161  VAL161      0.0019
     53  CG2      109.5640  161.5450    6.4730 C.3   161  VAL161      0.0019
     54  N        106.3840  169.7470   12.9300 N.3   172  TRP172     -0.1241
     55  CA       106.8570  168.4300   12.5190 C.3   172  TRP172      0.1605
     56  C        107.5270  167.6510   13.6590 C.2   172  TRP172      0.2264
     57  O        107.2730  166.4780   13.8540 O.2   172  TRP172     -0.2867
     58  CB       107.8360  168.5570   11.3500 C.3   172  TRP172      0.0550
     59  CG       108.5520  167.2810   11.1310 C.ar  172  TRP172      0.0003
     60  CD1      108.0990  166.2050   10.4460 C.ar  172  TRP172      0.0946
     61  CD2      109.8310  166.9130   11.6490 C.ar  172  TRP172      0.0152
     62  NE1      109.0130  165.1920   10.5020 N.ar  172  TRP172     -0.2442
     63  CE2      110.0910  165.6040   11.2380 C.ar  172  TRP172      0.0810
     64  CE3      110.7780  167.5590   12.4430 C.ar  172  TRP172      0.0012
     65  CZ2      111.2440  164.9330   11.5690 C.ar  172  TRP172      0.0191
     66  CZ3      111.9480  166.8830   12.7540 C.ar  172  TRP172      0.0001
     67  CH2      112.1580  165.5930   12.3320 C.ar  172  TRP172      0.0015
     68  N        106.8100  164.1760   15.4920 N.3   176  TYR176     -0.1241
     69  CA       107.7750  163.1260   15.2440 C.3   176  TYR176      0.1605
     70  C        108.2380  162.4210   16.5180 C.2   176  TYR176      0.2264
     71  O        108.3080  161.1930   16.5570 O.2   176  TYR176     -0.2867
     72  CB       108.9840  163.6850   14.5010 C.3   176  TYR176      0.0534
     73  CG       110.0220  162.6320   14.2470 C.ar  176  TYR176     -0.0201
     74  CD1      109.7260  161.5320   13.4810 C.ar  176  TYR176     -0.0009
     75  CD2      111.2760  162.7090   14.8200 C.ar  176  TYR176     -0.0009
     76  CE1      110.6530  160.5410   13.2620 C.ar  176  TYR176      0.0417
     77  CE2      112.2300  161.7190   14.5860 C.ar  176  TYR176      0.0417
     78  CZ       111.9040  160.6400   13.8080 C.ar  176  TYR176      0.1957
     79  OH       112.8250  159.6510   13.5720 O.3   176  TYR176     -0.2866
     80  N        119.5810  164.6480    7.9260 N.3   208  CYS208     -0.1235
     81  CA       118.7000  163.5290    7.5770 C.3   208  CYS208      0.1677
     82  C        118.9610  163.0820    6.1470 C.2   208  CYS208      0.2270
     83  O        119.0600  161.8940    5.8590 O.2   208  CYS208     -0.2867
     84  CB       117.2260  163.9000    7.7510 C.3   208  CYS208      0.0956
     85  SG       116.7770  164.2160    9.4340 S.3   208  CYS208     -0.0801
     86  N        121.9300  160.9650    6.2700 N.3   211  VAL211     -0.1231
     87  CA       121.7610  159.6600    6.8570 C.3   211  VAL211      0.1692
     88  C        121.0950  158.7560    5.8280 C.2   211  VAL211      0.2592
     89  O        121.6600  157.7360    5.4200 O.2   211  VAL211     -0.2718
     90  CB       120.9160  159.7280    8.1590 C.3   211  VAL211      0.0266
     91  CG1      120.5920  158.3600    8.6600 C.3   211  VAL211      0.0020
     92  CG2      121.6340  160.5030    9.2190 C.3   211  VAL211      0.0020
     93  N        119.9000  159.1400    5.3910 N.am  212  PHE212     -0.1976
     94  CA       119.1520  158.3390    4.4330 C.3   212  PHE212      0.1639
     95  C        119.9370  158.0540    3.1690 C.2   212  PHE212      0.2290
     96  O        119.6590  157.1010    2.4500 O.2   212  PHE212     -0.2864
     97  CB       117.8400  159.0270    4.0780 C.3   212  PHE212      0.0560
     98  CG       116.8030  158.8850    5.1260 C.ar  212  PHE212     -0.0200
     99  CD1      116.6150  157.6820    5.7590 C.ar  212  PHE212     -0.0042
    100  CD2      116.0360  159.9540    5.5090 C.ar  212  PHE212     -0.0042
    101  CE1      115.6650  157.5490    6.7530 C.ar  212  PHE212     -0.0003
    102  CE2      115.0850  159.8220    6.5040 C.ar  212  PHE212     -0.0003
    103  CZ       114.9080  158.6220    7.1240 C.ar  212  PHE212     -0.0000
    104  N        112.5300  152.8030   12.8510 N.3   237  SER237     -0.1217
    105  CA       113.4480  153.1150   11.7820 C.3   237  SER237      0.1889
    106  C        114.4230  151.9730   11.5430 C.2   237  SER237      0.2288
    107  O        115.2630  152.0470   10.6600 O.2   237  SER237     -0.2866
    108  CB       114.1930  154.3930   12.0930 C.3   237  SER237      0.2089
    109  OG       115.0180  154.1840   13.2080 O.3   237  SER237     -0.2183
    110  N        113.0400  153.4120   19.3340 N.3   264  HIS264     -0.1241
    111  CA       114.3520  153.6010   18.7220 C.3   264  HIS264      0.1621
    112  C        115.3970  154.2490   19.6550 C.2   264  HIS264      0.2264
    113  O        116.5900  154.1850   19.3800 O.2   264  HIS264     -0.2867
    114  CB       114.1610  154.4490   17.4490 C.3   264  HIS264      0.0745
    115  CG       115.4040  154.6440   16.6400 C.ar  264  HIS264      0.0817
    116  ND1      116.2420  153.6080   16.3010 N.ar  264  HIS264     -0.2268
    117  CD2      115.9450  155.7620   16.1050 C.ar  264  HIS264      0.1154
    118  CE1      117.2550  154.0810   15.5920 C.ar  264  HIS264      0.1986
    119  NE2      117.0930  155.3810   15.4570 N.ar  264  HIS264     -0.2212
@<TRIPOS>BOND
     1    39    38    2
     2    96    95    2
     3    38    37    1
     4    95    94    1
     5    37    40    1
     6    37    36    1
     7    97    94    1
     8    97    98    1
     9    47    48    1
    10    94    93    1
    11    27    28    2
    12    27    26    1
    13    40    41    1
    14    98   100   ar
    15    98    99   ar
    16    25    26    1
    17    93    88   am
    18    89    88    2
    19    49    48    1
    20    49    50    2
    21   100   102   ar
    22    48    51    1
    23    26    29    1
    24    99   101   ar
    25    88    87    1
    26    83    82    2
    27    41    43   ar
    28    41    42   ar
    29    51    53    1
    30    51    52    1
    31    82    81    1
    32    29    30    1
    33    86    87    1
    34    43    45   ar
    35   102   103   ar
    36   101   103   ar
    37    87    90    1
    38    42    44   ar
    39    81    84    1
    40    81    80    1
    41    30    32   ar
    42    30    31   ar
    43    84    85    1
    44    45    46   ar
    45    32    34   ar
    46    90    91    1
    47    90    92    1
    48    44    46   ar
    49    31    33   ar
    50    34    35   ar
    51    33    35   ar
    52    60    62   ar
    53    60    59   ar
    54    62    63   ar
    55   107   106    2
    56    59    58    1
    57    59    61   ar
    58    63    65   ar
    59    63    61   ar
    60    58    55    1
    61    24    22    1
    62   106   105    1
    63    65    67   ar
    64    61    64   ar
    65   105   108    1
    66   105   104    1
    67   108   109    1
    68    22    19    1
    69    22    23    1
    70    67    66   ar
    71    64    66   ar
    72     9    11   ar
    73     9     7   ar
    74    55    54    1
    75    55    56    1
    76    21    20    2
    77    11    10   ar
    78    19    20    1
    79    19    18    1
    80     7     6   ar
    81    10     8   ar
    82    76    74   ar
    83    76    78   ar
    84     6     8   ar
    85     6     5    1
    86    74    73   ar
    87    79    78    1
    88    18    14   am
    89    56    57    2
    90    78    77   ar
    91     5     2    1
    92    15    14    2
    93    17    16    1
    94    14    13    1
    95    73    72    1
    96    73    75   ar
    97    72    69    1
    98    77    75   ar
    99    13    16    1
   100    13    12    1
   101     2     1    1
   102     2     3    1
   103    69    68    1
   104    69    70    1
   105   119   118   ar
   106   119   117   ar
   107   118   116   ar
   108   117   115   ar
   109     3     4    2
   110   116   115   ar
   111    70    71    2
   112   115   114    1
   113   114   111    1
   114   111   110    1
   115   111   112    1
   116   113   112    2
