@<TRIPOS>MOLECULE
tmp/6bruD00.pdb
 154 145 0 0 0
SMALL
GASTEIGER

@<TRIPOS>ATOM
      1  N        -29.5270   10.8010    0.2400 N.3    22  ILE22      -0.1245
      2  CA       -28.1570   10.2820    0.1350 C.3    22  ILE22       0.1561
      3  C        -27.8980    9.4790   -1.1360 C.2    22  ILE22       0.2260
      4  O        -28.8380    9.0540   -1.8090 O.2    22  ILE22      -0.2867
      5  CB       -27.8030    9.4550    1.3790 C.3    22  ILE22       0.0252
      6  CG1      -28.9110    8.4350    1.7170 C.3    22  ILE22       0.0019
      7  CG2      -27.5550   10.3700    2.5850 C.3    22  ILE22       0.0019
      8  CD1      -28.6340    7.6450    2.9840 C.3    22  ILE22       0.0001
      9  N        -33.6360    7.5570   -1.6810 N.3    24  ILE24      -0.1245
     10  CA       -33.3220    7.1090   -0.3410 C.3    24  ILE24       0.1561
     11  C        -32.9360    8.3060    0.5200 C.2    24  ILE24       0.2260
     12  O        -32.0780    9.1190    0.1230 O.2    24  ILE24      -0.2867
     13  CB       -32.1660    6.0800   -0.3170 C.3    24  ILE24       0.0252
     14  CG1      -32.5470    4.8490   -1.1730 C.3    24  ILE24       0.0019
     15  CG2      -31.8300    5.6740    1.1350 C.3    24  ILE24       0.0019
     16  CD1      -31.5840    3.6760   -1.1390 C.3    24  ILE24       0.0001
     17  N        -32.8490    4.5710    7.1930 N.3    39  VAL39      -0.1245
     18  CA       -33.1340    5.2450    5.9550 C.3    39  VAL39       0.1561
     19  C        -34.5670    4.9560    5.5730 C.2    39  VAL39       0.2260
     20  O        -35.1570    3.9760    6.0170 O.2    39  VAL39      -0.2867
     21  CB       -32.2050    4.7950    4.8040 C.3    39  VAL39       0.0252
     22  CG1      -30.7580    5.1220    5.1420 C.3    39  VAL39       0.0019
     23  CG2      -32.3780    3.3120    4.4620 C.3    39  VAL39       0.0019
     24  N        -36.7140    4.3430    2.0640 N.3    41  LYS41      -0.1245
     25  CA       -36.7270    4.1180    0.6220 C.3    41  LYS41       0.1561
     26  C        -38.1320    4.4190    0.1500 C.2    41  LYS41       0.2260
     27  O        -39.1270    4.0200    0.7930 O.2    41  LYS41      -0.2867
     28  CB       -36.4250    2.6600    0.2830 C.3    41  LYS41       0.0271
     29  CG       -35.0590    2.1790    0.7590 C.3    41  LYS41       0.0035
     30  CD       -34.9310    0.6640    0.7060 C.3    41  LYS41       0.0206
     31  CE       -34.9420    0.0990   -0.7000 C.3    41  LYS41       0.1093
     32  NZ       -34.3720   -1.2620   -0.7460 N.3    41  LYS41      -0.1314
     33  N        -40.3860   -6.2790   -2.1540 N.3    53  GLU53      -0.1245
     34  CA       -39.4450   -6.2240   -1.0480 C.3    53  GLU53       0.1567
     35  C        -40.1580   -6.3060    0.2960 C.2    53  GLU53       0.2260
     36  O        -39.7560   -7.0460    1.1740 O.2    53  GLU53      -0.2867
     37  CB       -38.6380   -4.9290   -1.1290 C.3    53  GLU53       0.0388
     38  CG       -37.4260   -4.8760   -0.2280 C.3    53  GLU53       0.1160
     39  CD       -36.2950   -4.0350   -0.7970 C.2    53  GLU53       0.3649
     40  OE1      -36.5470   -3.0100   -1.4480 O.co2  53  GLU53      -0.2457
     41  OE2      -35.1450   -4.4020   -0.5810 O.co2  53  GLU53      -0.2457
     42  N        -39.7100   -9.1250    3.3300 N.3    57  TYR57      -0.1241
     43  CA       -39.3490   -8.8200    4.7160 C.3    57  TYR57       0.1605
     44  C        -40.4000   -9.3100    5.7220 C.2    57  TYR57       0.2264
     45  O        -40.0550   -9.8780    6.7880 O.2    57  TYR57      -0.2867
     46  CB       -39.0380   -7.3540    4.8960 C.3    57  TYR57       0.0534
     47  CG       -37.6270   -6.9800    4.4880 C.ar   57  TYR57      -0.0201
     48  CD1      -36.5620   -7.3040    5.3110 C.ar   57  TYR57      -0.0009
     49  CD2      -37.3460   -6.3360    3.2840 C.ar   57  TYR57      -0.0009
     50  CE1      -35.2640   -6.9360    4.9780 C.ar   57  TYR57       0.0417
     51  CE2      -36.0610   -6.0300    2.9060 C.ar   57  TYR57       0.0417
     52  CZ       -35.0060   -6.3640    3.7340 C.ar   57  TYR57       0.1957
     53  OH       -33.7040   -6.0530    3.4060 O.3    57  TYR57      -0.2866
     54  N        -30.6970   -7.1640    6.3660 N.3    81  PRO81      -0.2116
     55  CA       -31.0620   -5.9080    7.0270 C.3    81  PRO81       0.1372
     56  C        -32.2940   -6.0110    7.8960 C.2    81  PRO81       0.2244
     57  O        -33.1970   -6.7970    7.6060 O.2    81  PRO81      -0.2868
     58  CB       -31.3700   -4.9570    5.8460 C.3    81  PRO81       0.0268
     59  CG       -30.6090   -5.5160    4.7150 C.3    81  PRO81       0.0207
     60  CD       -30.6930   -7.0120    4.9000 C.3    81  PRO81       0.0892
     61  N        -35.6530    1.1280    6.7750 N.3   101  MET101     -0.1230
     62  CA       -34.6520    0.0550    6.9030 C.3   101  MET101      0.1702
     63  C        -33.4220    0.5800    7.6170 C.2   101  MET101      0.2592
     64  O        -33.2780    1.8000    7.8190 O.2   101  MET101     -0.2718
     65  CB       -34.1900   -0.3710    5.5020 C.3   101  MET101      0.0401
     66  CG       -35.2410   -0.6660    4.4540 C.3   101  MET101      0.0596
     67  SD       -36.2460   -2.0700    4.9330 S.3   101  MET101     -0.1393
     68  CE       -34.9760   -3.3670    5.1430 C.3   101  MET101      0.0692
     69  N        -32.5520   -0.3490    8.0240 N.am  102  ASP102     -0.1960
     70  CA       -31.2740   -0.0180    8.6270 C.3   102  ASP102      0.1840
     71  C        -30.5160    0.9440    7.7350 C.2   102  ASP102      0.2622
     72  O        -30.5150    0.8070    6.4920 O.2   102  ASP102     -0.2715
     73  CB       -30.3700   -1.2810    8.7980 C.3   102  ASP102      0.1450
     74  CG       -30.7020   -2.1110   10.0220 C.2   102  ASP102      0.3671
     75  OD1      -31.2600   -1.5670   11.0190 O.co2 102  ASP102     -0.2456
     76  OD2      -30.3330   -3.3160    9.9720 O.co2 102  ASP102     -0.2456
     77  N        -29.8470    1.9060    8.3780 N.am  103  ARG103     -0.1963
     78  CA       -28.8330    2.6920    7.7140 C.3   103  ARG103      0.1729
     79  C        -27.4950    1.9210    7.7590 C.2   103  ARG103      0.2616
     80  O        -27.1060    1.4120    8.7840 O.2   103  ARG103     -0.2715
     81  CB       -28.7130    4.0480    8.3760 C.3   103  ARG103      0.0348
     82  CG       -27.7240    4.9790    7.6910 C.3   103  ARG103      0.0492
     83  CD       -26.3200    4.8600    8.2780 C.3   103  ARG103      0.2205
     84  NE       -25.4530    5.8830    7.7010 N.pl3 103  ARG103     -0.0865
     85  CZ       -25.4550    7.1650    8.1050 C.cat 103  ARG103      0.5346
     86  NH1      -24.6320    8.0350    7.5350 N.pl3 103  ARG103      0.1354
     87  NH2      -26.2570    7.5840    9.0850 N.pl3 103  ARG103      0.1354
     88  N        -26.8220    1.8840    6.6240 N.am  104  PHE104     -0.1960
     89  CA       -25.5380    1.2010    6.4880 C.3   104  PHE104      0.1771
     90  C        -24.4320    2.1950    6.1230 C.2   104  PHE104      0.2620
     91  O        -24.6770    3.3640    5.8360 O.2   104  PHE104     -0.2715
     92  CB       -25.6620    0.1070    5.4160 C.3   104  PHE104      0.0574
     93  CG       -26.5390   -1.0290    5.8280 C.ar  104  PHE104     -0.0200
     94  CD1      -26.1510   -1.9000    6.8330 C.ar  104  PHE104     -0.0042
     95  CD2      -27.7190   -1.2460    5.1900 C.ar  104  PHE104     -0.0042
     96  CE1      -26.9430   -3.0120    7.1990 C.ar  104  PHE104     -0.0003
     97  CE2      -28.5710   -2.3230    5.5700 C.ar  104  PHE104     -0.0003
     98  CZ       -28.1670   -3.1940    6.5800 C.ar  104  PHE104     -0.0000
     99  N        -23.2020    1.6790    6.1240 N.am  105  GLY105     -0.1940
    100  CA       -22.0520    2.4030    5.6040 C.3   105  GLY105      0.2014
    101  C        -21.9080    2.2090    4.1060 C.2   105  GLY105      0.2640
    102  O        -22.9020    2.1550    3.3570 O.2   105  GLY105     -0.2714
    103  N        -20.6630    2.0900    3.6620 N.am  106  SER106     -0.1935
    104  CA       -20.3630    2.0840    2.2500 C.3   106  SER106      0.2055
    105  C        -20.8080    0.7670    1.5780 C.2   106  SER106      0.2643
    106  O        -20.8210   -0.2790    2.2100 O.2   106  SER106     -0.2714
    107  CB       -18.8520    2.2350    2.0460 C.3   106  SER106      0.2130
    108  OG       -18.5760    2.2910    0.6730 O.3   106  SER106     -0.2179
    109  N        -21.1220    0.8480    0.2990 N.am  107  ASP107     -0.1971
    110  CA       -21.2800   -0.3430   -0.5240 C.3   107  ASP107      0.1709
    111  C        -19.9010   -0.8450   -0.9260 C.2   107  ASP107      0.2293
    112  O        -18.9160   -0.0910   -0.8810 O.2   107  ASP107     -0.2864
    113  CB       -22.2160   -0.1200   -1.7290 C.3   107  ASP107      0.1436
    114  CG       -21.6630    0.8450   -2.7610 C.2   107  ASP107      0.3671
    115  OD1      -20.8260    0.4530   -3.5930 O.co2 107  ASP107     -0.2456
    116  OD2      -22.1180    2.0030   -2.7640 O.co2 107  ASP107     -0.2456
    117  N        -17.9570    0.7810   -4.3030 N.3   110  LYS110     -0.1245
    118  CA       -17.1110    1.9710   -4.0560 C.3   110  LYS110      0.1561
    119  C        -15.7090    1.5810   -3.5850 C.2   110  LYS110      0.2260
    120  O        -14.7150    2.0600   -4.1220 O.2   110  LYS110     -0.2867
    121  CB       -17.7500    2.9240   -3.0340 C.3   110  LYS110      0.0271
    122  CG       -18.8070    3.8350   -3.6500 C.3   110  LYS110      0.0035
    123  CD       -19.2390    4.9520   -2.7060 C.3   110  LYS110      0.0206
    124  CE       -20.6580    5.3920   -3.0680 C.3   110  LYS110      0.1093
    125  NZ       -21.1440    6.4820   -2.1900 N.3   110  LYS110     -0.1314
    126  N        -22.4820   -3.6000   -5.4470 N.3   151  SER151     -0.1217
    127  CA       -23.3290   -2.4380   -5.1860 C.3   151  SER151      0.1889
    128  C        -24.5490   -2.7570   -4.2700 C.2   151  SER151      0.2288
    129  O        -25.1180   -1.8480   -3.6890 O.2   151  SER151     -0.2866
    130  CB       -23.7680   -1.7620   -6.4660 C.3   151  SER151      0.2089
    131  OG       -24.6310   -2.5410   -7.2270 O.3   151  SER151     -0.2183
    132  N        -23.5390   -3.9230    1.4990 N.3   154  LEU154     -0.1245
    133  CA       -23.2170   -2.7440    2.2960 C.3   154  LEU154      0.1561
    134  C        -22.6620   -3.1560    3.6310 C.2   154  LEU154      0.2260
    135  O        -23.0700   -4.1610    4.2030 O.2   154  LEU154     -0.2867
    136  CB       -24.4420   -1.8270    2.4920 C.3   154  LEU154      0.0270
    137  CG       -24.7420   -0.9520    1.2760 C.3   154  LEU154      0.0019
    138  CD1      -25.0620   -1.6820    0.0100 C.3   154  LEU154      0.0001
    139  CD2      -25.8390    0.0490    1.6060 C.3   154  LEU154      0.0001
    140  N        -28.4820   -6.2640    0.3880 N.3   166  VAL166     -0.1231
    141  CA       -29.6760   -5.4380    0.3190 C.3   166  VAL166      0.1692
    142  C        -30.3510   -5.6030   -1.0360 C.2   166  VAL166      0.2592
    143  O        -29.8360   -6.2710   -1.9300 O.2   166  VAL166     -0.2718
    144  CB       -29.3670   -3.9430    0.5800 C.3   166  VAL166      0.0266
    145  CG1      -28.5190   -3.7940    1.8260 C.3   166  VAL166      0.0020
    146  CG2      -28.6300   -3.2790   -0.6040 C.3   166  VAL166      0.0020
    147  N        -31.5210   -4.9860   -1.1420 N.am  167  ASP167     -0.1974
    148  CA       -32.3610   -4.9320   -2.3330 C.3   167  ASP167      0.1709
    149  C        -33.0270   -6.2690   -2.6970 C.2   167  ASP167      0.2293
    150  O        -32.5110   -7.0360   -3.4630 O.2   167  ASP167     -0.2864
    151  CB       -31.6050   -4.3100   -3.5160 C.3   167  ASP167      0.1436
    152  CG       -32.5390   -3.9130   -4.6590 C.2   167  ASP167      0.3671
    153  OD1      -33.7080   -4.3360   -4.6810 O.co2 167  ASP167     -0.2456
    154  OD2      -32.0710   -3.1870   -5.5570 O.co2 167  ASP167     -0.2456
@<TRIPOS>BOND
     1   131   130    1
     2   130   127    1
     3   154   152   ar
     4   126   127    1
     5   127   128    1
     6   153   152   ar
     7   152   151    1
     8   117   118    1
     9   128   129    2
    10   120   119    2
    11   118   119    1
    12   118   121    1
    13   122   121    1
    14   122   123    1
    15   115   114   ar
    16   151   148    1
    17   150   149    2
    18   124   123    1
    19   124   125    1
    20   116   114   ar
    21   114   113    1
    22   149   148    1
    23   148   147    1
    24    33    34    1
    25   143   142    2
    26     4     3    2
    27   113   110    1
    28     9    10    1
    29    40    39   ar
    30    14    16    1
    31    14    13    1
    32   147   142   am
    33     3     2    1
    34    37    34    1
    35    37    38    1
    36    34    35    1
    37   142   141    1
    38   111   112    2
    39   111   110    1
    40    39    41   ar
    41    39    38    1
    42    32    31    1
    43    31    30    1
    44   146   144    1
    45   110   109    1
    46    10    13    1
    47    10    11    1
    48    13    15    1
    49   138   137    1
    50    12    11    2
    51     2     1    1
    52     2     5    1
    53    26    25    1
    54    26    27    2
    55    28    25    1
    56    28    29    1
    57    35    36    2
    58   109   105   am
    59   141   140    1
    60   141   144    1
    61   144   145    1
    62    25    24    1
    63   108   107    1
    64    30    29    1
    65   137   139    1
    66   137   136    1
    67     5     6    1
    68     5     7    1
    69   132   133    1
    70   105   106    2
    71   105   104    1
    72     6     8    1
    73   107   104    1
    74   104   103    1
    75   133   136    1
    76   133   134    1
    77    51    49   ar
    78    51    52   ar
    79    49    47   ar
    80    42    43    1
    81   102   101    2
    82    53    52    1
    83   134   135    2
    84   103   101   am
    85    52    50   ar
    86   101   100    1
    87    66    67    1
    88    66    65    1
    89    23    21    1
    90    47    46    1
    91    47    48   ar
    92    59    60    1
    93    59    58    1
    94    43    46    1
    95    43    44    1
    96    21    22    1
    97    21    18    1
    98    60    54    1
    99    67    68    1
   100    50    48   ar
   101    95    97   ar
   102    95    93   ar
   103    92    93    1
   104    92    89    1
   105    65    62    1
   106    97    98   ar
   107    19    18    1
   108    19    20    2
   109   100    99    1
   110    44    45    2
   111    93    94   ar
   112    91    90    2
   113    58    55    1
   114    18    17    1
   115    90    99   am
   116    90    89    1
   117    54    55    1
   118    89    88    1
   119    72    71    2
   120    98    96   ar
   121    88    79   am
   122    61    62    1
   123    94    96   ar
   124    62    63    1
   125    55    56    1
   126    86    85    1
   127    57    56    2
   128    63    64    2
   129    63    69   am
   130    82    83    1
   131    82    81    1
   132    84    85    2
   133    84    83    1
   134    78    79    1
   135    78    81    1
   136    78    77    1
   137    71    77   am
   138    71    70    1
   139    79    80    2
   140    69    70    1
   141    85    87    1
   142    70    73    1
   143    73    74    1
   144    76    74   ar
   145    74    75   ar
