@<TRIPOS>MOLECULE
tmp/6brwA00.pdb
 152 144 0 0 0
SMALL
GASTEIGER

@<TRIPOS>ATOM
      1  N        -10.4000   14.3240   27.6050 N.3    15  LEU15      -0.1245
      2  CA       -10.7770   13.5760   26.4190 C.3    15  LEU15       0.1561
      3  C        -10.0330   12.2470   26.3310 C.2    15  LEU15       0.2260
      4  O         -9.8330   11.7170   25.2380 O.2    15  LEU15      -0.2867
      5  CB       -10.5230   14.4040   25.1610 C.3    15  LEU15       0.0270
      6  CG       -11.3620   15.6690   24.9910 C.3    15  LEU15       0.0019
      7  CD1      -10.9320   16.4290   23.7540 C.3    15  LEU15       0.0001
      8  CD2      -12.8350   15.2940   24.9130 C.3    15  LEU15       0.0001
      9  N         -5.1210   13.6650   28.0620 N.3    23  ILE23      -0.1245
     10  CA        -5.5680   14.5220   26.9750 C.3    23  ILE23       0.1561
     11  C         -6.7850   15.2960   27.4530 C.2    23  ILE23       0.2260
     12  O         -7.6490   14.7380   28.1340 O.2    23  ILE23      -0.2867
     13  CB        -5.8840   13.6990   25.7090 C.3    23  ILE23       0.0252
     14  CG1       -4.6680   12.8570   25.3190 C.3    23  ILE23       0.0019
     15  CG2       -6.2720   14.6040   24.5720 C.3    23  ILE23       0.0019
     16  CD1       -4.9130   11.9110   24.1420 C.3    23  ILE23       0.0001
     17  N         -6.6160   21.2340   21.6730 N.3    43  LEU43      -0.1245
     18  CA        -6.3870   19.9510   22.3080 C.3    43  LEU43       0.1561
     19  C         -5.0820   20.0310   23.0810 C.2    43  LEU43       0.2260
     20  O         -4.0660   20.4870   22.5450 O.2    43  LEU43      -0.2867
     21  CB        -6.3100   18.8190   21.2820 C.3    43  LEU43       0.0270
     22  CG        -6.3080   17.5350   22.1050 C.3    43  LEU43       0.0019
     23  CD1       -7.6820   16.8720   22.0740 C.3    43  LEU43       0.0001
     24  CD2       -5.1810   16.5950   21.7460 C.3    43  LEU43       0.0001
     25  N         -2.2600   17.9850   25.3380 N.3    45  LYS45      -0.1245
     26  CA        -1.6650   16.7100   25.7090 C.3    45  LYS45       0.1561
     27  C         -0.6430   16.9700   26.7980 C.2    45  LYS45       0.2260
     28  O          0.3140   17.7160   26.5810 O.2    45  LYS45      -0.2867
     29  CB        -1.0150   16.0330   24.5050 C.3    45  LYS45       0.0271
     30  CG        -2.0060   15.5090   23.5140 C.3    45  LYS45       0.0035
     31  CD        -1.3100   14.9320   22.2940 C.3    45  LYS45       0.0206
     32  CE        -2.2740   14.0990   21.4780 C.3    45  LYS45       0.1093
     33  NZ        -1.6650   13.6940   20.1820 N.3    45  LYS45      -0.1314
     34  N         -2.3700   16.8840   11.4180 N.3    74  VAL74      -0.1245
     35  CA        -2.8950   17.7470   12.4690 C.3    74  VAL74       0.1561
     36  C         -1.9320   18.8960   12.7260 C.2    74  VAL74       0.2260
     37  O         -0.7080   18.7370   12.6520 O.2    74  VAL74      -0.2867
     38  CB        -3.1340   16.9300   13.7520 C.3    74  VAL74       0.0252
     39  CG1       -1.8050   16.4820   14.3580 C.3    74  VAL74       0.0019
     40  CG2       -3.9550   17.7230   14.7690 C.3    74  VAL74       0.0019
     41  N         -2.3590   21.3640   20.3180 N.3    90  GLN90      -0.1231
     42  CA        -2.6780   21.0010   18.9480 C.3    90  GLN90       0.1698
     43  C         -4.0930   21.4600   18.6150 C.2    90  GLN90       0.2592
     44  O         -4.8740   21.8500   19.4930 O.2    90  GLN90      -0.2718
     45  CB        -2.5290   19.4870   18.7360 C.3    90  GLN90       0.0381
     46  CG        -1.2060   18.9330   19.2650 C.3    90  GLN90       0.0905
     47  CD        -1.0260   17.4410   19.0190 C.2    90  GLN90       0.2608
     48  OE1       -1.8850   16.6300   19.3640 O.2    90  GLN90      -0.2717
     49  NE2        0.1020   17.0750   18.4190 N.am   90  GLN90      -0.0878
     50  N         -4.4080   21.4230   17.3250 N.am   91  GLU91      -0.1966
     51  CA        -5.7450   21.7750   16.8730 C.3    91  GLU91       0.1733
     52  C         -6.7710   20.8010   17.4370 C.2    91  GLU91       0.2616
     53  O         -6.5030   19.6070   17.6100 O.2    91  GLU91      -0.2715
     54  CB        -5.8070   21.7920   15.3410 C.3    91  GLU91       0.0429
     55  CG        -6.3030   20.5170   14.6840 C.3    91  GLU91       0.1163
     56  CD        -6.1840   20.5600   13.1650 C.2    91  GLU91       0.3649
     57  OE1       -7.1840   20.8690   12.4790 O.co2  91  GLU91      -0.2457
     58  OE2       -5.0730   20.2960   12.6630 O.co2  91  GLU91      -0.2457
     59  N         -7.9500   21.3250   17.7470 N.am   92  PHE92      -0.1960
     60  CA        -9.0410   20.5090   18.2570 C.3    92  PHE92       0.1771
     61  C         -9.8990   20.0760   17.0760 C.2    92  PHE92       0.2619
     62  O        -10.5370   20.9060   16.4220 O.2    92  PHE92      -0.2715
     63  CB        -9.8630   21.2670   19.2950 C.3    92  PHE92       0.0574
     64  CG       -11.0700   20.5140   19.7510 C.ar   92  PHE92      -0.0200
     65  CD1      -10.9550   19.5200   20.7170 C.ar   92  PHE92      -0.0042
     66  CD2      -12.3170   20.7730   19.1970 C.ar   92  PHE92      -0.0042
     67  CE1      -12.0690   18.8050   21.1420 C.ar   92  PHE92      -0.0003
     68  CE2      -13.4380   20.0660   19.6180 C.ar   92  PHE92      -0.0003
     69  CZ       -13.3110   19.0750   20.5950 C.ar   92  PHE92      -0.0000
     70  N         -9.9090   18.7850   16.8080 N.am   93  VAL93      -0.1963
     71  CA       -10.6620   18.2120   15.7040 C.3    93  VAL93       0.1727
     72  C        -12.0430   17.8440   16.2220 C.2    93  VAL93       0.2616
     73  O        -12.1710   17.1850   17.2600 O.2    93  VAL93      -0.2715
     74  CB        -9.9260   16.9940   15.1260 C.3    93  VAL93       0.0290
     75  CG1      -10.6930   16.4150   13.9740 C.3    93  VAL93       0.0023
     76  CG2       -8.5230   17.4020   14.6850 C.3    93  VAL93       0.0023
     77  N        -13.0820   18.2870   15.5090 N.am   94  LYS94      -0.1963
     78  CA       -14.4160   18.3400   16.1010 C.3    94  LYS94       0.1728
     79  C        -14.9390   16.9570   16.4750 C.2    94  LYS94       0.2616
     80  O        -15.5420   16.7800   17.5370 O.2    94  LYS94      -0.2715
     81  CB       -15.3840   19.0350   15.1440 C.3    94  LYS94       0.0311
     82  CG       -16.7870   19.2250   15.7020 C.3    94  LYS94       0.0038
     83  CD       -17.5790   20.2210   14.8600 C.3    94  LYS94       0.0206
     84  CE       -19.0080   20.3560   15.3550 C.3    94  LYS94       0.1093
     85  NZ       -19.8280   21.2600   14.4940 N.3    94  LYS94      -0.1314
     86  N        -14.7310   15.9630   15.6210 N.am   95  PHE95      -0.1960
     87  CA       -15.4200   14.6950   15.7970 C.3    95  PHE95       0.1771
     88  C        -14.5450   13.6170   16.4160 C.2    95  PHE95       0.2620
     89  O        -14.9620   12.4570   16.4790 O.2    95  PHE95      -0.2715
     90  CB       -16.0030   14.2470   14.4630 C.3    95  PHE95       0.0574
     91  CG       -16.9940   15.2170   13.9120 C.ar   95  PHE95      -0.0200
     92  CD1      -18.2940   15.2340   14.3820 C.ar   95  PHE95      -0.0042
     93  CD2      -16.6180   16.1460   12.9590 C.ar   95  PHE95      -0.0042
     94  CE1      -19.2050   16.1400   13.8920 C.ar   95  PHE95      -0.0003
     95  CE2      -17.5220   17.0530   12.4690 C.ar   95  PHE95      -0.0003
     96  CZ       -18.8200   17.0520   12.9350 C.ar   95  PHE95      -0.0000
     97  N        -13.3590   13.9720   16.8920 N.am   96  GLY96      -0.1940
     98  CA       -12.5700   13.0490   17.6700 C.3    96  GLY96       0.2014
     99  C        -11.8840   11.9650   16.8620 C.2    96  GLY96       0.2639
    100  O        -11.7910   11.9870   15.6250 O.2    96  GLY96      -0.2714
    101  N        -11.3970   10.9820   17.6120 N.am   97  SER97      -0.1949
    102  CA       -10.6060    9.9190   17.0210 C.3    97  SER97       0.1924
    103  C        -11.4780    8.9790   16.1940 C.2    97  SER97       0.2314
    104  O        -12.6690    8.7830   16.4590 O.2    97  SER97      -0.2863
    105  CB        -9.8590    9.1440   18.1060 C.3    97  SER97       0.2116
    106  OG       -10.7590    8.5520   19.0150 O.3    97  SER97      -0.2180
    107  N        -13.1650    5.5130   17.8590 N.3   100  THR100     -0.1218
    108  CA       -14.4210    5.7890   18.5440 C.3   100  THR100      0.1862
    109  C        -15.5280    6.0630   17.5420 C.2   100  THR100      0.2287
    110  O        -16.6370    5.5240   17.6560 O.2   100  THR100     -0.2866
    111  CB       -14.2450    6.9820   19.4840 C.3   100  THR100      0.1770
    112  OG1      -13.1890    6.7080   20.4150 O.3   100  THR100     -0.2211
    113  CG2      -15.5320    7.2450   20.2400 C.3   100  THR100      0.0375
    114  N         -6.8780    5.2470   16.3980 N.3   141  LYS141     -0.1231
    115  CA        -6.9720    6.2270   17.4730 C.3   141  LYS141      0.1693
    116  C         -6.1900    7.4880   17.1450 C.2   141  LYS141      0.2592
    117  O         -6.5490    8.5660   17.6220 O.2   141  LYS141     -0.2718
    118  CB        -6.4900    5.6320   18.8010 C.3   141  LYS141      0.0285
    119  CG        -6.4520    6.7440   19.8790 C.3   141  LYS141      0.0035
    120  CD        -6.4280    6.1000   21.2300 C.3   141  LYS141      0.0206
    121  CE        -6.4350    7.0450   22.3650 C.3   141  LYS141      0.1093
    122  NZ        -5.5290    8.2150   22.1730 N.3   141  LYS141     -0.1314
    123  N         -5.1660    7.3900   16.3040 N.am  142  ASN142     -0.1974
    124  CA        -4.4030    8.5620   15.9150 C.3   142  ASN142      0.1688
    125  C         -4.9410    9.2250   14.6520 C.2   142  ASN142      0.2292
    126  O         -4.2740   10.0960   14.0910 O.2   142  ASN142     -0.2864
    127  CB        -2.9250    8.1940   15.7510 C.3   142  ASN142      0.1181
    128  CG        -2.2210    8.0750   17.0700 C.2   142  ASN142      0.2629
    129  OD1       -2.7210    8.5530   18.0880 O.2   142  ASN142     -0.2716
    130  ND2       -1.0600    7.4380   17.0760 N.am  142  ASN142     -0.0877
    131  N         -8.0710   11.5430   13.2290 N.3   144  LEU144     -0.1245
    132  CA        -9.1210   12.4210   13.7100 C.3   144  LEU144      0.1561
    133  C        -10.0250   12.8410   12.5580 C.2   144  LEU144      0.2260
    134  O         -9.5720   13.0540   11.4240 O.2   144  LEU144     -0.2867
    135  CB        -8.5110   13.6420   14.3960 C.3   144  LEU144      0.0270
    136  CG        -7.4980   13.2110   15.4670 C.3   144  LEU144      0.0019
    137  CD1       -6.4910   14.2880   15.7230 C.3   144  LEU144      0.0001
    138  CD2       -8.2010   12.8400   16.7470 C.3   144  LEU144      0.0001
    139  N         -2.6950   12.2310   13.3330 N.3   162  SER162     -0.1202
    140  CA        -2.1050   12.9530   14.4440 C.3   162  SER162      0.2020
    141  C         -0.6560   12.5070   14.6210 C.2   162  SER162      0.2618
    142  O         -0.1640   11.6090   13.9260 O.2   162  SER162     -0.2717
    143  CB        -2.9270   12.7430   15.7110 C.3   162  SER162      0.2103
    144  OG        -2.6360   13.7590   16.6650 O.3   162  SER162     -0.2182
    145  N          0.0450   13.1620   15.5380 N.am  163  ASP163     -0.1973
    146  CA         1.4020   12.7720   15.8710 C.3   163  ASP163      0.1709
    147  C          1.3990   11.4060   16.5490 C.2   163  ASP163      0.2293
    148  O          0.3930   10.9970   17.1320 O.2   163  ASP163     -0.2864
    149  CB         2.0460   13.8060   16.7860 C.3   163  ASP163      0.1436
    150  CG         1.5540   13.6980   18.2190 C.2   163  ASP163      0.3671
    151  OD1        0.4310   14.1730   18.4940 O.co2 163  ASP163     -0.2456
    152  OD2        2.2770   13.1110   19.0560 O.co2 163  ASP163     -0.2456
@<TRIPOS>BOND
     1    34    35    1
     2   134   133    2
     3    35    36    1
     4    35    38    1
     5    95    96   ar
     6    95    93   ar
     7    57    56   ar
     8   133   132    1
     9    37    36    2
    10    58    56   ar
    11    96    94   ar
    12    93    91   ar
    13    56    55    1
    14   131   132    1
    15   139   140    1
    16   132   135    1
    17    38    39    1
    18    38    40    1
    19    94    92   ar
    20    91    92   ar
    21    91    90    1
    22   142   141    2
    23    75    74    1
    24   126   125    2
    25   135   136    1
    26   140   141    1
    27   140   143    1
    28    90    87    1
    29    85    84    1
    30   141   145   am
    31   125   124    1
    32    55    54    1
    33    76    74    1
    34    83    84    1
    35    83    82    1
    36    74    71    1
    37    81    82    1
    38    81    78    1
    39    54    51    1
    40   136   137    1
    41   136   138    1
    42    77    78    1
    43    77    72   am
    44   145   146    1
    45    86    87    1
    46    86    79   am
    47   100    99    2
    48    71    72    1
    49    71    70    1
    50   143   144    1
    51   127   124    1
    52   127   128    1
    53    87    88    1
    54   146   147    1
    55   146   149    1
    56   124   123    1
    57    78    79    1
    58   103   104    2
    59   103   102    1
    60    72    73    2
    61   123   116   am
    62   114   115    1
    63    88    89    2
    64    88    97   am
    65    62    61    2
    66    79    80    2
    67   147   148    2
    68   149   150    1
    69    70    61   am
    70    99   101   am
    71    99    98    1
    72    51    50    1
    73    51    52    1
    74    97    98    1
    75   102   101    1
    76   102   105    1
    77   128   130   am
    78   128   129    2
    79    61    60    1
    80   116   115    1
    81   116   117    2
    82    50    43   am
    83    52    53    2
    84    52    59   am
    85   115   118    1
    86   109   110    2
    87   109   108    1
    88    59    60    1
    89   107   108    1
    90   105   106    1
    91   150   151   ar
    92   150   152   ar
    93    60    63    1
    94    49    47   am
    95   108   111    1
    96    43    42    1
    97    43    44    2
    98    45    42    1
    99    45    46    1
   100   118   119    1
   101    42    41    1
   102    47    46    1
   103    47    48    2
   104    66    68   ar
   105    66    64   ar
   106    63    64    1
   107   111   113    1
   108   111   112    1
   109    68    69   ar
   110    64    65   ar
   111   119   120    1
   112    33    32    1
   113    69    67   ar
   114    65    67   ar
   115   120   121    1
   116    21    22    1
   117    21    18    1
   118    32    31    1
   119    17    18    1
   120    24    22    1
   121    23    22    1
   122   122   121    1
   123    31    30    1
   124    18    19    1
   125    20    19    2
   126    30    29    1
   127     7     6    1
   128    16    14    1
   129    29    26    1
   130    15    13    1
   131     8     6    1
   132     6     5    1
   133     5     2    1
   134     4     3    2
   135    14    13    1
   136    25    26    1
   137    13    10    1
   138    26    27    1
   139     3     2    1
   140     2     1    1
   141    28    27    2
   142    10    11    1
   143    10     9    1
   144    11    12    2
