@<TRIPOS>MOLECULE
tmp/6bryB03.pdb
 137 126 0 0 0
SMALL
GASTEIGER

@<TRIPOS>ATOM
      1  N         11.3120  -64.3790  -33.3170 N.3   236  VAL236     -0.1245
      2  CA        12.5150  -64.1430  -34.1030 C.3   236  VAL236      0.1561
      3  C         13.5970  -65.1830  -33.8200 C.2   236  VAL236      0.2260
      4  O         14.5450  -65.3070  -34.5990 O.2   236  VAL236     -0.2867
      5  CB        13.0450  -62.7040  -33.8910 C.3   236  VAL236      0.0252
      6  CG1       11.9530  -61.6710  -34.2170 C.3   236  VAL236      0.0019
      7  CG2       13.6300  -62.5010  -32.4830 C.3   236  VAL236      0.0019
      8  N         13.7180  -69.9850  -35.6210 N.3   239  CYS239     -0.1221
      9  CA        14.6010  -70.7170  -36.5280 C.3   239  CYS239      0.1808
     10  C         15.9720  -71.0040  -35.9330 C.2   239  CYS239      0.2601
     11  O         16.7750  -71.6710  -36.5940 O.2   239  CYS239     -0.2717
     12  CB        14.7740  -69.9780  -37.8560 C.3   239  CYS239      0.0970
     13  SG        13.2290  -69.8390  -38.7530 S.3   239  CYS239     -0.0800
     14  N         16.2920  -70.4570  -34.7590 N.am  240  LEU240     -0.1979
     15  CA        17.4980  -70.8620  -34.0420 C.3   240  LEU240      0.1596
     16  C         17.2550  -72.0520  -33.1290 C.2   240  LEU240      0.2287
     17  O         18.1750  -72.8550  -32.9320 O.2   240  LEU240     -0.2864
     18  CB        18.0520  -69.7000  -33.2040 C.3   240  LEU240      0.0297
     19  CG        18.2660  -68.3650  -33.9170 C.3   240  LEU240      0.0022
     20  CD1       18.6440  -67.2650  -32.9220 C.3   240  LEU240      0.0001
     21  CD2       19.3410  -68.5380  -34.9800 C.3   240  LEU240      0.0001
     22  N         15.5300  -74.4910  -42.9750 N.3   246  LEU246     -0.1245
     23  CA        16.5780  -73.4760  -43.0080 C.3   246  LEU246      0.1561
     24  C         17.7710  -73.8180  -42.1280 C.2   246  LEU246      0.2260
     25  O         18.9160  -73.5810  -42.5340 O.2   246  LEU246     -0.2867
     26  CB        16.0190  -72.1270  -42.5580 C.3   246  LEU246      0.0270
     27  CG        15.8010  -71.0690  -43.6220 C.3   246  LEU246      0.0019
     28  CD1       15.3750  -69.7830  -42.9740 C.3   246  LEU246      0.0001
     29  CD2       17.0640  -70.8790  -44.4310 C.3   246  LEU246      0.0001
     30  N         19.0480  -72.4080  -39.1350 N.3   248  ALA248     -0.1245
     31  CA        19.6190  -71.0730  -39.1590 C.3   248  ALA248      0.1562
     32  C         20.4380  -70.8610  -37.9000 C.2   248  ALA248      0.2260
     33  O         20.2610  -71.5630  -36.8970 O.2   248  ALA248     -0.2867
     34  CB        18.5350  -69.9920  -39.2660 C.3   248  ALA248      0.0290
     35  N         24.4420  -66.7540  -40.1660 N.3   252  LYS252     -0.1231
     36  CA        23.6820  -66.7440  -41.4060 C.3   252  LYS252      0.1693
     37  C         22.6600  -65.6150  -41.3950 C.2   252  LYS252      0.2591
     38  O         22.4610  -64.9390  -42.4170 O.2   252  LYS252     -0.2718
     39  CB        23.0110  -68.1000  -41.6460 C.3   252  LYS252      0.0285
     40  CG        23.9070  -69.1480  -42.3400 C.3   252  LYS252      0.0035
     41  CD        23.3900  -70.5190  -41.9890 C.3   252  LYS252      0.0206
     42  CE        24.0720  -71.6620  -42.7120 C.3   252  LYS252      0.1093
     43  NZ        23.4340  -72.9440  -42.2070 N.3   252  LYS252     -0.1314
     44  N         22.0360  -65.3560  -40.2350 N.am  253  LEU253     -0.1980
     45  CA        21.0440  -64.2830  -40.1920 C.3   253  LEU253      0.1596
     46  C         21.6850  -62.9340  -40.5050 C.2   253  LEU253      0.2287
     47  O         21.1130  -62.1330  -41.2570 O.2   253  LEU253     -0.2864
     48  CB        20.3280  -64.2650  -38.8450 C.3   253  LEU253      0.0297
     49  CG        19.2850  -63.1700  -38.6280 C.3   253  LEU253      0.0022
     50  CD1       18.0320  -63.3510  -39.4940 C.3   253  LEU253      0.0001
     51  CD2       18.9070  -63.1340  -37.1620 C.3   253  LEU253      0.0001
     52  N         22.6900  -62.6640  -44.3270 N.3   256  ASN256     -0.1225
     53  CA        21.6160  -62.4360  -45.2750 C.3   256  ASN256      0.1785
     54  C         20.8070  -61.1810  -44.9920 C.2   256  ASN256      0.2597
     55  O         20.1940  -60.6390  -45.9250 O.2   256  ASN256     -0.2718
     56  CB        20.6770  -63.6490  -45.3270 C.3   256  ASN256      0.1169
     57  CG        21.3650  -64.8960  -45.8820 C.2   256  ASN256      0.2627
     58  OD1       21.4150  -65.0890  -47.0950 O.2   256  ASN256     -0.2716
     59  ND2       21.8810  -65.7440  -45.0020 N.am  256  ASN256     -0.0877
     60  N         20.8230  -60.6650  -43.7620 N.am  257  MET257     -0.1979
     61  CA        20.0000  -59.4980  -43.4790 C.3   257  MET257      0.1605
     62  C         20.7450  -58.1810  -43.5880 C.2   257  MET257      0.2287
     63  O         20.1190  -57.1570  -43.8760 O.2   257  MET257     -0.2864
     64  CB        19.3960  -59.6060  -42.0790 C.3   257  MET257      0.0413
     65  CG        18.3800  -60.7330  -41.9270 C.3   257  MET257      0.0598
     66  SD        16.8850  -60.3580  -42.8850 S.3   257  MET257     -0.1393
     67  CE        16.2570  -58.9120  -42.0360 C.3   257  MET257      0.0692
     68  N         16.0770  -56.0620  -46.6530 N.3   312  THR312     -0.1203
     69  CA        15.8950  -57.5000  -46.5290 C.3   312  THR312      0.1994
     70  C         14.7210  -57.7420  -45.5970 C.2   312  THR312      0.2618
     71  O         14.3730  -56.8760  -44.7860 O.2   312  THR312     -0.2717
     72  CB        17.1430  -58.2070  -45.9680 C.3   312  THR312      0.1784
     73  OG1       17.5930  -57.5170  -44.7900 O.3   312  THR312     -0.2211
     74  CG2       18.2570  -58.2160  -46.9930 C.3   312  THR312      0.0376
     75  N         14.0840  -58.9030  -45.7390 N.am  313  VAL313     -0.1965
     76  CA        12.9950  -59.2750  -44.8520 C.3   313  VAL313      0.1727
     77  C         13.1540  -60.7470  -44.4990 C.2   313  VAL313      0.2616
     78  O         13.4990  -61.5630  -45.3590 O.2   313  VAL313     -0.2715
     79  CB        11.6090  -59.0040  -45.4840 C.3   313  VAL313      0.0290
     80  CG1       10.4880  -59.5090  -44.5500 C.3   313  VAL313      0.0023
     81  CG2       11.4400  -57.5200  -45.8400 C.3   313  VAL313      0.0023
     82  N         12.9380  -61.0800  -43.2290 N.am  314  ALA314     -0.1963
     83  CA        12.8220  -62.4550  -42.7600 C.3   314  ALA314      0.1728
     84  C         11.4600  -62.6180  -42.1080 C.2   314  ALA314      0.2616
     85  O         10.9630  -61.6900  -41.4600 O.2   314  ALA314     -0.2715
     86  CB        13.9320  -62.8270  -41.7550 C.3   314  ALA314      0.0334
     87  N         10.8180  -63.7610  -42.3430 N.am  315  ALA315     -0.1963
     88  CA         9.4910  -64.0220  -41.7990 C.3   315  ALA315      0.1728
     89  C          9.4220  -65.4540  -41.2910 C.2   315  ALA315      0.2616
     90  O          9.9380  -66.3790  -41.9280 O.2   315  ALA315     -0.2715
     91  CB         8.4000  -63.7660  -42.8480 C.3   315  ALA315      0.0334
     92  N          8.7730  -65.6350  -40.1480 N.am  316  ILE316     -0.1977
     93  CA         8.6070  -66.9440  -39.5280 C.3   316  ILE316      0.1596
     94  C          7.1240  -67.1820  -39.3140 C.2   316  ILE316      0.2287
     95  O          6.4570  -66.3930  -38.6360 O.2   316  ILE316     -0.2864
     96  CB         9.3810  -67.0500  -38.2110 C.3   316  ILE316      0.0276
     97  CG1       10.8330  -66.6690  -38.4710 C.3   316  ILE316      0.0022
     98  CG2        9.2800  -68.4530  -37.6590 C.3   316  ILE316      0.0022
     99  CD1       11.1050  -65.2110  -38.2900 C.3   316  ILE316      0.0001
    100  N         15.2120  -61.1330  -54.6140 N.3   347  ASN347     -0.1225
    101  CA        14.6700  -62.1800  -53.7600 C.3   347  ASN347      0.1785
    102  C         15.0990  -61.9640  -52.3080 C.2   347  ASN347      0.2597
    103  O         15.6630  -62.8390  -51.6480 O.2   347  ASN347     -0.2718
    104  CB        15.1140  -63.5360  -54.3060 C.3   347  ASN347      0.1169
    105  CG        14.9710  -63.5990  -55.8280 C.2   347  ASN347      0.2627
    106  OD1       15.9600  -63.6860  -56.5730 O.2   347  ASN347     -0.2716
    107  ND2       13.7300  -63.5010  -56.2970 N.am  347  ASN347     -0.0877
    108  N         14.8150  -60.7660  -51.8090 N.am  348  ASN348     -0.1974
    109  CA        15.2840  -60.3250  -50.5030 C.3   348  ASN348      0.1688
    110  C         14.3050  -60.6390  -49.3850 C.2   348  ASN348      0.2292
    111  O         14.4980  -60.1370  -48.2730 O.2   348  ASN348     -0.2864
    112  CB        15.5780  -58.8150  -50.5130 C.3   348  ASN348      0.1181
    113  CG        14.3380  -57.9690  -50.7720 C.2   348  ASN348      0.2629
    114  OD1       13.3120  -58.4660  -51.2330 O.2   348  ASN348     -0.2716
    115  ND2       14.4540  -56.6710  -50.5310 N.am  348  ASN348     -0.0877
    116  N         12.7000  -63.8720  -47.2970 N.3   350  LYS350     -0.1245
    117  CA        12.8860  -65.2900  -47.0280 C.3   350  LYS350      0.1561
    118  C         11.9420  -65.7140  -45.9180 C.2   350  LYS350      0.2260
    119  O         11.8290  -65.0280  -44.8960 O.2   350  LYS350     -0.2867
    120  CB        14.3390  -65.5920  -46.6420 C.3   350  LYS350      0.0271
    121  CG        14.6070  -67.0270  -46.2350 C.3   350  LYS350      0.0035
    122  CD        14.8720  -67.9720  -47.3980 C.3   350  LYS350      0.0206
    123  CE        14.5550  -69.4110  -46.9540 C.3   350  LYS350      0.1093
    124  NZ        14.8710  -70.4690  -47.9520 N.3   350  LYS350     -0.1314
    125  N         10.3340  -68.8640  -43.4020 N.3   352  ALA352     -0.1245
    126  CA        10.4750  -70.1460  -42.7420 C.3   352  ALA352      0.1562
    127  C          9.1510  -70.5350  -42.1070 C.2   352  ALA352      0.2260
    128  O          8.2540  -69.7110  -41.9270 O.2   352  ALA352     -0.2867
    129  CB        11.5850  -70.1010  -41.6880 C.3   352  ALA352      0.0290
    130  N         10.7720  -59.8450  -39.3630 N.3   368  ILE368     -0.1245
    131  CA        12.0430  -59.1780  -39.1200 C.3   368  ILE368      0.1561
    132  C         12.3720  -58.3890  -40.3720 C.2   368  ILE368      0.2260
    133  O         12.7930  -58.9690  -41.3840 O.2   368  ILE368     -0.2867
    134  CB        13.1670  -60.1710  -38.8100 C.3   368  ILE368      0.0252
    135  CG1       12.7320  -61.1770  -37.7660 C.3   368  ILE368      0.0019
    136  CG2       14.4600  -59.4410  -38.3730 C.3   368  ILE368      0.0019
    137  CD1       13.7510  -62.2590  -37.5550 C.3   368  ILE368      0.0001
@<TRIPOS>BOND
     1   106   105    2
     2   107   105   am
     3   105   104    1
     4   100   101    1
     5   104   101    1
     6   101   102    1
     7   102   108   am
     8   102   103    2
     9   108   109    1
    10   114   113    2
    11   113   115   am
    12   113   112    1
    13   112   109    1
    14   109   110    1
    15   110   111    2
    16   124   123    1
    17   122   123    1
    18   122   121    1
    19   116   117    1
    20    58    57    2
    21   117   120    1
    22   117   118    1
    23    74    72    1
    24    68    69    1
    25   120   121    1
    26    69    72    1
    27    69    70    1
    28    72    73    1
    29    55    54    2
    30   118   119    2
    31    57    56    1
    32    57    59   am
    33    81    79    1
    34    75    70   am
    35    75    76    1
    36    70    71    2
    37    79    76    1
    38    79    80    1
    39    78    77    2
    40    56    53    1
    41    53    54    1
    42    53    52    1
    43    54    60   am
    44    76    77    1
    45    77    82   am
    46    29    27    1
    47    63    62    2
    48    60    61    1
    49    27    28    1
    50    27    26    1
    51    62    61    1
    52    61    64    1
    53   125   126    1
    54    82    83    1
    55    23    22    1
    56    23    26    1
    57    23    24    1
    58    66    67    1
    59    66    65    1
    60    91    88    1
    61    83    84    1
    62    83    86    1
    63   126   127    1
    64   126   129    1
    65    42    43    1
    66    42    41    1
    67    25    24    2
    68    38    37    2
    69    87    84   am
    70    87    88    1
    71    40    41    1
    72    40    39    1
    73    84    85    2
    74   127   128    2
    75    64    65    1
    76    90    89    2
    77    88    89    1
    78    39    36    1
    79    36    37    1
    80    36    35    1
    81    37    44   am
    82   133   132    2
    83    89    92   am
    84    47    46    2
    85    46    45    1
    86   132   131    1
    87    44    45    1
    88    45    48    1
    89    92    93    1
    90    93    94    1
    91    93    96    1
    92    50    49    1
    93   130   131    1
    94    94    95    2
    95    34    31    1
    96    31    30    1
    97    31    32    1
    98   131   134    1
    99    48    49    1
   100   134   136    1
   101   134   135    1
   102    13    12    1
   103    49    51    1
   104    97    99    1
   105    97    96    1
   106    96    98    1
   107    32    33    2
   108    12     9    1
   109   135   137    1
   110    11    10    2
   111     9    10    1
   112     9     8    1
   113    10    14   am
   114    21    19    1
   115    14    15    1
   116     4     3    2
   117     6     5    1
   118     2     5    1
   119     2     3    1
   120     2     1    1
   121    15    18    1
   122    15    16    1
   123    19    18    1
   124    19    20    1
   125     5     7    1
   126    16    17    2
