@<TRIPOS>MOLECULE
tmp/6bs0A00.pdb
 118 112 0 0 0
SMALL
GASTEIGER

@<TRIPOS>ATOM
      1  N        -10.9060   14.4960   28.2050 N.3    15  LEU15      -0.1245
      2  CA       -11.3250   13.7450   27.0370 C.3    15  LEU15       0.1561
      3  C        -10.6990   12.3710   27.0080 C.2    15  LEU15       0.2260
      4  O        -10.9730   11.5990   26.0860 O.2    15  LEU15      -0.2867
      5  CB       -10.9330   14.5210   25.7730 C.3    15  LEU15       0.0270
      6  CG       -11.6850   15.8270   25.6830 C.3    15  LEU15       0.0019
      7  CD1      -11.1720   16.5790   24.4310 C.3    15  LEU15       0.0001
      8  CD2      -13.1340   15.4960   25.5400 C.3    15  LEU15       0.0001
      9  N         -5.6180   14.0710   28.1670 N.3    23  ILE23      -0.1245
     10  CA        -6.0470   15.0690   27.1910 C.3    23  ILE23       0.1561
     11  C         -7.2960   15.7770   27.7030 C.2    23  ILE23       0.2260
     12  O         -8.1240   15.1710   28.4100 O.2    23  ILE23      -0.2867
     13  CB        -6.2930   14.5400   25.7360 C.3    23  ILE23       0.0252
     14  CG1       -7.2230   13.3630   25.6900 C.3    23  ILE23       0.0019
     15  CG2       -4.9280   14.1860   25.0430 C.3    23  ILE23       0.0019
     16  CD1       -7.8640   13.1730   24.2850 C.3    23  ILE23       0.0001
     17  N         -7.2900   21.4650   21.8670 N.3    43  LEU43      -0.1245
     18  CA        -6.9510   20.2300   22.5620 C.3    43  LEU43       0.1561
     19  C         -5.6800   20.4260   23.3640 C.2    43  LEU43       0.2260
     20  O         -4.6710   20.9150   22.8450 O.2    43  LEU43      -0.2867
     21  CB        -6.7590   19.1380   21.5070 C.3    43  LEU43       0.0270
     22  CG        -6.7350   17.6650   21.9170 C.3    43  LEU43       0.0019
     23  CD1       -5.4260   17.3120   22.5450 C.3    43  LEU43       0.0001
     24  CD2       -7.9740   17.2170   22.7230 C.3    43  LEU43       0.0001
     25  N         -2.5010   17.2040   11.5590 N.3    74  VAL74      -0.1245
     26  CA        -3.0490   18.0430   12.6330 C.3    74  VAL74       0.1561
     27  C         -2.2000   19.2810   12.8330 C.2    74  VAL74       0.2260
     28  O         -0.9570   19.2400   12.7360 O.2    74  VAL74      -0.2867
     29  CB        -3.1390   17.2190   13.9400 C.3    74  VAL74       0.0252
     30  CG1       -1.7530   16.8760   14.4850 C.3    74  VAL74       0.0019
     31  CG2       -3.8920   17.9920   15.0520 C.3    74  VAL74       0.0019
     32  N         -3.0430   21.8630   20.6770 N.3    90  GLN90      -0.1231
     33  CA        -3.3970   21.4790   19.3100 C.3    90  GLN90       0.1698
     34  C         -4.7640   21.9810   18.9000 C.2    90  GLN90       0.2592
     35  O         -5.5940   22.3350   19.7380 O.2    90  GLN90      -0.2718
     36  CB        -3.3780   19.9520   19.1820 C.3    90  GLN90       0.0381
     37  CG        -2.0200   19.3530   19.5440 C.3    90  GLN90       0.0905
     38  CD        -2.0110   17.8630   19.3330 C.2    90  GLN90       0.2608
     39  OE1       -2.8340   17.1340   19.8780 O.2    90  GLN90      -0.2717
     40  NE2       -1.0790   17.4070   18.5050 N.am   90  GLN90      -0.0878
     41  N         -5.0300   21.9860   17.5760 N.am   91  GLU91      -0.1966
     42  CA        -6.3680   22.3360   17.1380 C.3    91  GLU91       0.1733
     43  C         -7.3860   21.3690   17.7180 C.2    91  GLU91       0.2616
     44  O         -7.1010   20.1690   17.8980 O.2    91  GLU91      -0.2715
     45  CB        -6.4560   22.3390   15.5930 C.3    91  GLU91       0.0429
     46  CG        -6.2820   21.0010   14.9800 C.3    91  GLU91       0.1163
     47  CD        -6.5030   21.0240   13.4650 C.2    91  GLU91       0.3649
     48  OE1       -7.5640   21.4950   13.0130 O.co2  91  GLU91      -0.2457
     49  OE2       -5.6110   20.5110   12.7660 O.co2  91  GLU91      -0.2457
     50  N         -8.5770   21.9050   18.0170 N.am   92  PHE92      -0.1960
     51  CA        -9.6730   21.0840   18.5120 C.3    92  PHE92       0.1771
     52  C        -10.5220   20.5800   17.3560 C.2    92  PHE92       0.2619
     53  O        -10.9770   21.3630   16.5270 O.2    92  PHE92      -0.2715
     54  CB       -10.5480   21.8520   19.4960 C.3    92  PHE92       0.0574
     55  CG       -11.5720   20.9840   20.1120 C.ar   92  PHE92      -0.0200
     56  CD1      -11.1880   20.0480   21.0620 C.ar   92  PHE92      -0.0042
     57  CD2      -12.8840   21.0680   19.7120 C.ar   92  PHE92      -0.0042
     58  CE1      -12.1410   19.2100   21.6510 C.ar   92  PHE92      -0.0003
     59  CE2      -13.8380   20.2180   20.3090 C.ar   92  PHE92      -0.0003
     60  CZ       -13.4360   19.3040   21.2510 C.ar   92  PHE92      -0.0000
     61  N        -10.6950   19.2560   17.2790 N.am   93  VAL93      -0.1963
     62  CA       -11.3790   18.6240   16.1640 C.3    93  VAL93       0.1727
     63  C        -12.7190   18.1470   16.6790 C.2    93  VAL93       0.2616
     64  O        -12.7900   17.2690   17.5520 O.2    93  VAL93      -0.2715
     65  CB       -10.5510   17.4960   15.5800 C.3    93  VAL93       0.0290
     66  CG1      -11.4240   16.7050   14.5970 C.3    93  VAL93       0.0023
     67  CG2       -9.3080   18.0340   14.9520 C.3    93  VAL93       0.0023
     68  N        -13.7930   18.7520   16.1630 N.am   94  LYS94      -0.1963
     69  CA       -15.0920   18.6250   16.8010 C.3    94  LYS94       0.1728
     70  C        -15.5290   17.1660   16.9240 C.2    94  LYS94       0.2616
     71  O        -16.1780   16.7880   17.9000 O.2    94  LYS94      -0.2715
     72  CB       -16.1590   19.4330   16.0250 C.3    94  LYS94       0.0311
     73  CG       -15.8880   20.9190   15.9430 C.3    94  LYS94       0.0038
     74  CD       -15.8210   21.5310   17.3280 C.3    94  LYS94       0.0206
     75  CE       -15.9390   23.0430   17.2620 C.3    94  LYS94       0.1093
     76  NZ       -14.9650   23.5840   16.2730 N.3    94  LYS94      -0.1314
     77  N        -15.1910   16.3340   15.9470 N.am   95  PHE95      -0.1960
     78  CA       -15.7950   15.0000   15.9170 C.3    95  PHE95       0.1771
     79  C        -14.8900   13.9450   16.4830 C.2    95  PHE95       0.2620
     80  O        -15.2650   12.7460   16.4640 O.2    95  PHE95      -0.2715
     81  CB       -16.2130   14.6170   14.4810 C.3    95  PHE95       0.0574
     82  CG       -17.2240   15.5660   13.9290 C.ar   95  PHE95      -0.0200
     83  CD1      -18.5380   15.5280   14.3840 C.ar   95  PHE95      -0.0042
     84  CD2      -16.8680   16.5460   13.0060 C.ar   95  PHE95      -0.0042
     85  CE1      -19.5120   16.4040   13.8990 C.ar   95  PHE95      -0.0003
     86  CE2      -17.8430   17.4540   12.5320 C.ar   95  PHE95      -0.0003
     87  CZ       -19.1760   17.3780   13.0030 C.ar   95  PHE95      -0.0000
     88  N        -13.7370   14.3340   16.9950 N.am   96  GLY96      -0.1940
     89  CA       -12.8370   13.4500   17.7170 C.3    96  GLY96       0.2014
     90  C        -12.1660   12.4100   16.8390 C.2    96  GLY96       0.2639
     91  O        -11.9970   12.5970   15.6300 O.2    96  GLY96      -0.2714
     92  N        -11.7970   11.2720   17.4440 N.am   97  SER97      -0.1949
     93  CA       -10.9450   10.3390   16.7400 C.3    97  SER97       0.1924
     94  C        -11.7520    9.1990   16.1380 C.2    97  SER97       0.2314
     95  O        -12.8820    8.9080   16.5090 O.2    97  SER97      -0.2863
     96  CB        -9.8310    9.8170   17.6580 C.3    97  SER97       0.2116
     97  OG       -10.3350    9.3990   18.9050 O.3    97  SER97      -0.2180
     98  N        -13.3870    5.8770   18.0260 N.3   100  THR100     -0.1218
     99  CA       -14.7020    6.0800   18.6180 C.3   100  THR100      0.1862
    100  C        -15.7770    6.2610   17.5530 C.2   100  THR100      0.2287
    101  O        -16.8750    5.7060   17.6540 O.2   100  THR100     -0.2866
    102  CB       -14.6440    7.3230   19.5110 C.3   100  THR100      0.1770
    103  OG1      -13.5680    7.1880   20.4450 O.3   100  THR100     -0.2211
    104  CG2      -15.9420    7.4830   20.2660 C.3   100  THR100      0.0375
    105  N         -8.2030   11.8830   13.1110 N.3   144  LEU144     -0.1245
    106  CA        -9.1850   12.8100   13.6380 C.3   144  LEU144      0.1561
    107  C        -10.1690   13.1410   12.5260 C.2   144  LEU144      0.2260
    108  O         -9.7490   13.3450   11.3630 O.2   144  LEU144     -0.2867
    109  CB        -8.5100   14.1090   14.0870 C.3   144  LEU144      0.0270
    110  CG        -7.3760   13.8850   15.1100 C.3   144  LEU144      0.0019
    111  CD1       -6.6050   15.2060   15.3490 C.3   144  LEU144      0.0001
    112  CD2       -7.9300   13.2900   16.3490 C.3   144  LEU144      0.0001
    113  N         -3.0700   12.6660   13.4550 N.3   162  SER162     -0.1217
    114  CA        -2.5650   13.3320   14.6430 C.3   162  SER162      0.1889
    115  C         -1.1340   12.8950   14.9550 C.2   162  SER162      0.2288
    116  O         -0.5640   12.0340   14.2700 O.2   162  SER162     -0.2866
    117  CB        -3.5450   13.0420   15.7760 C.3   162  SER162      0.2089
    118  OG        -3.2030   13.8340   16.9270 O.3   162  SER162     -0.2183
@<TRIPOS>BOND
     1   108   107    2
     2    25    26    1
     3   107   106    1
     4    86    87   ar
     5    86    84   ar
     6    26    27    1
     7    26    29    1
     8    28    27    2
     9    49    47   ar
    10    87    85   ar
    11    84    82   ar
    12    48    47   ar
    13   105   106    1
    14   113   114    1
    15    47    46    1
    16   106   109    1
    17    85    83   ar
    18    82    83   ar
    19    82    81    1
    20    29    30    1
    21    29    31    1
    22   109   110    1
    23   116   115    2
    24    81    78    1
    25    66    65    1
    26   114   115    1
    27   114   117    1
    28    67    65    1
    29    46    45    1
    30   110   111    1
    31   110   112    1
    32    65    62    1
    33    45    42    1
    34    91    90    2
    35   117   118    1
    36    78    77    1
    37    78    79    1
    38    73    72    1
    39    73    74    1
    40    77    70   am
    41    72    69    1
    42    94    95    2
    43    94    93    1
    44    68    63   am
    45    68    69    1
    46    62    63    1
    47    62    61    1
    48    76    75    1
    49    80    79    2
    50    79    88   am
    51    53    52    2
    52    63    64    2
    53    93    92    1
    54    93    96    1
    55    69    70    1
    56    90    92   am
    57    90    89    1
    58    70    71    2
    59    88    89    1
    60    42    41    1
    61    42    43    1
    62    75    74    1
    63    61    52   am
    64    52    51    1
    65   100   101    2
    66   100    99    1
    67    41    34   am
    68    96    97    1
    69    43    44    2
    70    43    50   am
    71    50    51    1
    72    98    99    1
    73    40    38   am
    74    51    54    1
    75    99   102    1
    76    34    33    1
    77    34    35    2
    78    36    33    1
    79    36    37    1
    80    33    32    1
    81    38    37    1
    82    38    39    2
    83    54    55    1
    84   102   104    1
    85   102   103    1
    86    57    55   ar
    87    57    59   ar
    88    55    56   ar
    89    59    60   ar
    90    56    58   ar
    91    60    58   ar
    92    21    22    1
    93    21    18    1
    94    17    18    1
    95    22    23    1
    96    22    24    1
    97    18    19    1
    98    20    19    2
    99    16    14    1
   100     7     6    1
   101    15    13    1
   102     8     6    1
   103     6     5    1
   104    14    13    1
   105    13    10    1
   106     5     2    1
   107     4     3    2
   108     3     2    1
   109     2     1    1
   110    10    11    1
   111    10     9    1
   112    11    12    2
