@<TRIPOS>MOLECULE
tmp/6bs2D01.pdb
 156 146 0 0 0
SMALL
GASTEIGER

@<TRIPOS>ATOM
      1  N         19.2420    2.2330   28.2810 N.3   200  TYR200     -0.1241
      2  CA        17.8930    2.7500   28.4410 C.3   200  TYR200      0.1605
      3  C         17.9720    4.1600   29.0130 C.2   200  TYR200      0.2264
      4  O         18.5310    4.3680   30.0990 O.2   200  TYR200     -0.2867
      5  CB        17.0840    1.8340   29.3560 C.3   200  TYR200      0.0534
      6  CG        16.8560    0.4550   28.7870 C.ar  200  TYR200     -0.0201
      7  CD1       15.8060    0.2120   27.9240 C.ar  200  TYR200     -0.0009
      8  CD2       17.7110   -0.5920   29.0860 C.ar  200  TYR200     -0.0009
      9  CE1       15.5900   -1.0320   27.3990 C.ar  200  TYR200      0.0417
     10  CE2       17.5060   -1.8450   28.5550 C.ar  200  TYR200      0.0417
     11  CZ        16.4410   -2.0620   27.7060 C.ar  200  TYR200      0.1957
     12  OH        16.2100   -3.3170   27.1740 O.3   200  TYR200     -0.2866
     13  N         11.0550   -4.2190   30.3580 N.3   236  VAL236     -0.1245
     14  CA        12.1250   -4.3900   29.3660 C.3   236  VAL236      0.1561
     15  C         13.0380   -5.5560   29.6900 C.2   236  VAL236      0.2260
     16  O         13.9220   -5.8770   28.8880 O.2   236  VAL236     -0.2867
     17  CB        13.0450   -3.1680   29.1510 C.3   236  VAL236      0.0252
     18  CG1       12.2350   -1.8920   28.8680 C.3   236  VAL236      0.0019
     19  CG2       14.0260   -3.0030   30.3050 C.3   236  VAL236      0.0019
     20  N         11.4860  -10.3350   28.7840 N.3   239  CYS239     -0.1221
     21  CA        11.9120  -11.3880   27.8790 C.3   239  CYS239      0.1808
     22  C         13.2180  -12.0290   28.3010 C.2   239  CYS239      0.2601
     23  O         13.5540  -13.1040   27.7910 O.2   239  CYS239     -0.2717
     24  CB        11.9950  -10.8460   26.4630 C.3   239  CYS239      0.0970
     25  SG        10.3270  -10.5850   25.8320 S.3   239  CYS239     -0.0800
     26  N         13.9610  -11.4080   29.2130 N.am  240  LEU240     -0.1979
     27  CA        15.1540  -12.0570   29.7380 C.3   240  LEU240      0.1596
     28  C         14.8130  -13.0880   30.8170 C.2   240  LEU240      0.2287
     29  O         15.5300  -14.0870   30.9640 O.2   240  LEU240     -0.2864
     30  CB        16.1160  -11.0020   30.2970 C.3   240  LEU240      0.0297
     31  CG        16.5400   -9.8150   29.4300 C.3   240  LEU240      0.0022
     32  CD1       17.2490   -8.7810   30.2610 C.3   240  LEU240      0.0001
     33  CD2       17.4560  -10.2720   28.3110 C.3   240  LEU240      0.0001
     34  N         10.5990  -16.8120   22.3170 N.3   246  LEU246     -0.1245
     35  CA        11.8710  -16.1160   22.2720 C.3   246  LEU246      0.1561
     36  C         12.7900  -16.5410   23.4110 C.2   246  LEU246      0.2260
     37  O         12.4200  -16.4330   24.5840 O.2   246  LEU246     -0.2867
     38  CB        11.6290  -14.6160   22.3620 C.3   246  LEU246      0.0270
     39  CG        11.9740  -13.8090   21.1350 C.3   246  LEU246      0.0019
     40  CD1       12.0500  -12.3560   21.5480 C.3   246  LEU246      0.0001
     41  CD2       13.2890  -14.3230   20.5800 C.3   246  LEU246      0.0001
     42  N         15.2940  -14.9170   24.6590 N.3   248  ALA248     -0.1231
     43  CA        15.9090  -13.6080   24.5160 C.3   248  ALA248      0.1694
     44  C         17.0200  -13.3970   25.5280 C.2   248  ALA248      0.2592
     45  O         16.8940  -13.7410   26.7080 O.2   248  ALA248     -0.2718
     46  CB        14.8720  -12.5050   24.6750 C.3   248  ALA248      0.0304
     47  N         18.1020  -12.7870   25.0570 N.am  249  ASP249     -0.1974
     48  CA        19.2300  -12.4160   25.8890 C.3   249  ASP249      0.1709
     49  C         19.6910  -11.0180   25.5000 C.2   249  ASP249      0.2293
     50  O         19.2830  -10.4730   24.4710 O.2   249  ASP249     -0.2864
     51  CB        20.3630  -13.4340   25.7460 C.3   249  ASP249      0.1436
     52  CG        20.8640  -13.5240   24.3330 C.2   249  ASP249      0.3671
     53  OD1       21.3530  -12.5010   23.8220 O.co2 249  ASP249     -0.2456
     54  OD2       20.7830  -14.6130   23.7300 O.co2 249  ASP249     -0.2456
     55  N         21.2210  -10.7110   21.7530 N.3   252  LYS252     -0.1231
     56  CA        20.2860  -10.6440   20.6440 C.3   252  LYS252      0.1693
     57  C         19.5020   -9.3430   20.6800 C.2   252  LYS252      0.2591
     58  O         19.1310   -8.8090   19.6280 O.2   252  LYS252     -0.2718
     59  CB        19.3110  -11.8150   20.6570 C.3   252  LYS252      0.0285
     60  CG        19.8840  -13.1980   20.5870 C.3   252  LYS252      0.0035
     61  CD        18.8030  -14.1550   20.1400 C.3   252  LYS252      0.0206
     62  CE        18.9320  -15.5100   20.8150 C.3   252  LYS252      0.1093
     63  NZ        18.0330  -16.5300   20.1730 N.3   252  LYS252     -0.1314
     64  N         19.2520   -8.8010   21.8730 N.am  253  LEU253     -0.1980
     65  CA        18.6230   -7.4880   21.9270 C.3   253  LEU253      0.1596
     66  C         19.5070   -6.4560   21.2410 C.2   253  LEU253      0.2287
     67  O         19.0270   -5.6360   20.4480 O.2   253  LEU253     -0.2864
     68  CB        18.3500   -7.0890   23.3760 C.3   253  LEU253      0.0297
     69  CG        17.7510   -5.6800   23.5510 C.3   253  LEU253      0.0022
     70  CD1       16.3400   -5.5890   22.9270 C.3   253  LEU253      0.0001
     71  CD2       17.7120   -5.2370   25.0070 C.3   253  LEU253      0.0001
     72  N         19.7270   -6.7430   17.2360 N.3   256  ASN256     -0.1225
     73  CA        18.5420   -6.3470   16.5010 C.3   256  ASN256      0.1785
     74  C         18.1220   -4.9110   16.7420 C.2   256  ASN256      0.2597
     75  O         17.4080   -4.3490   15.9030 O.2   256  ASN256     -0.2718
     76  CB        17.3800   -7.2850   16.8400 C.3   256  ASN256      0.1169
     77  CG        17.5600   -8.6560   16.2290 C.2   256  ASN256      0.2627
     78  OD1       17.3200   -8.8400   15.0330 O.2   256  ASN256     -0.2716
     79  ND2       18.0210   -9.6150   17.0270 N.am  256  ASN256     -0.0877
     80  N         18.5410   -4.3000   17.8480 N.am  257  MET257     -0.1979
     81  CA        18.1350   -2.9320   18.1310 C.3   257  MET257      0.1605
     82  C         19.1560   -1.8870   17.6990 C.2   257  MET257      0.2287
     83  O         18.7790   -0.7240   17.5200 O.2   257  MET257     -0.2864
     84  CB        17.8440   -2.7650   19.6290 C.3   257  MET257      0.0413
     85  CG        16.6460   -3.5800   20.0890 C.3   257  MET257      0.0598
     86  SD        15.1020   -2.8840   19.4530 S.3   257  MET257     -0.1393
     87  CE        15.0790   -1.2920   20.2740 C.3   257  MET257      0.0692
     88  N         14.6530    1.0890   14.9680 N.3   302  THR302     -0.1203
     89  CA        14.1260   -0.1950   15.3980 C.3   302  THR302      0.1994
     90  C         13.1940    0.0280   16.5800 C.2   302  THR302      0.2618
     91  O         13.3010    1.0200   17.3030 O.2   302  THR302     -0.2717
     92  CB        15.2380   -1.1610   15.8100 C.3   302  THR302      0.1784
     93  OG1       16.0220   -0.5560   16.8410 O.3   302  THR302     -0.2211
     94  CG2       16.1410   -1.4350   14.6210 C.3   302  THR302      0.0376
     95  N         12.2870   -0.9180   16.7810 N.am  303  VAL303     -0.1965
     96  CA        11.3560   -0.8770   17.8990 C.3   303  VAL303      0.1727
     97  C         11.1740   -2.2820   18.4450 C.2   303  VAL303      0.2616
     98  O         11.0650   -3.2510   17.6850 O.2   303  VAL303     -0.2715
     99  CB         9.9920   -0.2720   17.4990 C.3   303  VAL303      0.0290
    100  CG1        9.0050   -0.4150   18.6420 C.3   303  VAL303      0.0023
    101  CG2       10.1480    1.1960   17.1740 C.3   303  VAL303      0.0023
    102  N         11.1340   -2.3910   19.7680 N.am  304  ALA304     -0.1963
    103  CA        10.7370   -3.6240   20.4290 C.3   304  ALA304      0.1728
    104  C          9.5190   -3.3360   21.2930 C.2   304  ALA304      0.2616
    105  O          9.5120   -2.3660   22.0520 O.2   304  ALA304     -0.2715
    106  CB        11.8810   -4.1870   21.2640 C.3   304  ALA304      0.0334
    107  N          8.5110   -4.1980   21.2050 N.am  305  ALA305     -0.1963
    108  CA         7.2640   -4.0410   21.9470 C.3   305  ALA305      0.1728
    109  C          6.9910   -5.3270   22.7080 C.2   305  ALA305      0.2616
    110  O          7.0300   -6.4140   22.1150 O.2   305  ALA305     -0.2715
    111  CB         6.0940   -3.7300   21.0060 C.3   305  ALA305      0.0334
    112  N          6.7660   -5.2130   24.0210 N.am  306  ILE306     -0.1977
    113  CA         6.4860   -6.3690   24.8750 C.3   306  ILE306      0.1596
    114  C          5.0760   -6.2470   25.4170 C.2   306  ILE306      0.2287
    115  O          4.7750   -5.3060   26.1600 O.2   306  ILE306     -0.2864
    116  CB         7.4720   -6.4960   26.0420 C.3   306  ILE306      0.0276
    117  CG1        8.9130   -6.4680   25.5480 C.3   306  ILE306      0.0022
    118  CG2        7.2220   -7.8040   26.7570 C.3   306  ILE306      0.0022
    119  CD1        9.3950   -5.0980   25.1200 C.3   306  ILE306      0.0001
    120  N         11.2820   -3.6010   10.9860 N.3   338  ASN338     -0.1240
    121  CA        12.1030   -3.1730   12.1020 C.3   338  ASN338      0.1653
    122  C         11.3220   -3.0310   13.4000 C.2   338  ASN338      0.2266
    123  O         11.8380   -2.4480   14.3520 O.2   338  ASN338     -0.2867
    124  CB        12.8140   -1.8750   11.7400 C.3   338  ASN338      0.1155
    125  CG        11.8560   -0.8000   11.3640 C.2   338  ASN338      0.2627
    126  OD1       10.6760   -1.0670   11.1710 O.2   338  ASN338     -0.2716
    127  ND2       12.3620    0.4120   11.1720 N.am  338  ASN338     -0.0877
    128  N          9.4540   -5.4760   16.1820 N.3   340  LYS340     -0.1231
    129  CA         9.2570   -6.8480   16.6140 C.3   340  LYS340      0.1693
    130  C          8.4530   -6.8850   17.9020 C.2   340  LYS340      0.2593
    131  O          8.4690   -5.9420   18.6950 O.2   340  LYS340     -0.2718
    132  CB        10.5770   -7.5710   16.8360 C.3   340  LYS340      0.0285
    133  CG        11.4550   -7.6360   15.6150 C.3   340  LYS340      0.0035
    134  CD        10.9560   -8.6800   14.6480 C.3   340  LYS340      0.0206
    135  CE        11.6540   -8.5250   13.3360 C.3   340  LYS340      0.1093
    136  NZ        11.0580   -9.3900   12.3330 N.3   340  LYS340     -0.1314
    137  N          7.7580   -7.9950   18.1050 N.am  341  THR341     -0.1939
    138  CA         6.7740   -8.1240   19.1640 C.3   341  THR341      0.2028
    139  C          7.0540   -9.3750   19.9850 C.2   341  THR341      0.2642
    140  O          7.4640  -10.4030   19.4470 O.2   341  THR341     -0.2714
    141  CB         5.3670   -8.1890   18.5770 C.3   341  THR341      0.1808
    142  OG1        5.0700   -6.9450   17.9340 O.3   341  THR341     -0.2208
    143  CG2        4.3470   -8.4190   19.6630 C.3   341  THR341      0.0379
    144  N          6.8900   -9.2690   21.2930 N.am  342  ALA342     -0.1977
    145  CA         6.9190  -10.4360   22.1590 C.3   342  ALA342      0.1597
    146  C          5.7060  -10.3760   23.0630 C.2   342  ALA342      0.2287
    147  O          5.2510   -9.2930   23.4380 O.2   342  ALA342     -0.2864
    148  CB         8.2040  -10.5240   22.9960 C.3   342  ALA342      0.0319
    149  N         10.3250   -0.3170   23.6260 N.3   358  ILE358     -0.1245
    150  CA        11.7470   -0.0070   23.5240 C.3   358  ILE358      0.1561
    151  C         11.9850    0.4710   22.1060 C.2   358  ILE358      0.2260
    152  O         11.9880   -0.3400   21.1650 O.2   358  ILE358     -0.2867
    153  CB        12.6510   -1.2040   23.8280 C.3   358  ILE358      0.0252
    154  CG1       12.2770   -1.8700   25.1550 C.3   358  ILE358      0.0019
    155  CG2       14.0950   -0.7300   23.8500 C.3   358  ILE358      0.0019
    156  CD1       13.0730   -3.1410   25.4550 C.3   358  ILE358      0.0001
@<TRIPOS>BOND
     1   120   121    1
     2   126   125    2
     3   127   125   am
     4   125   124    1
     5   124   121    1
     6   121   122    1
     7   136   135    1
     8   135   134    1
     9   122   123    2
    10    94    92    1
    11   134   133    1
    12    88    89    1
    13    78    77    2
    14    89    92    1
    15    89    90    1
    16   133   132    1
    17    92    93    1
    18    75    74    2
    19   128   129    1
    20    77    76    1
    21    77    79   am
    22    73    74    1
    23    73    76    1
    24    73    72    1
    25    90    95   am
    26    90    91    2
    27   129   132    1
    28   129   130    1
    29    74    80   am
    30    95    96    1
    31   101    99    1
    32    99    96    1
    33    99   100    1
    34    83    82    2
    35    98    97    2
    36    82    81    1
    37    80    81    1
    38    96    97    1
    39   130   137   am
    40   130   131    2
    41   142   141    1
    42   137   138    1
    43    81    84    1
    44    97   102   am
    45   141   138    1
    46   141   143    1
    47   138   139    1
    48   140   139    2
    49    86    85    1
    50    86    87    1
    51    58    57    2
    52    84    85    1
    53   102   103    1
    54   139   144   am
    55    61    60    1
    56    61    62    1
    57    63    62    1
    58   103   106    1
    59   103   104    1
    60    67    66    2
    61    41    39    1
    62    60    59    1
    63    56    59    1
    64    56    57    1
    65    56    55    1
    66    57    64   am
    67   111   108    1
    68    39    40    1
    69    39    38    1
    70   152   151    2
    71   107   104   am
    72   107   108    1
    73    66    65    1
    74   144   145    1
    75   104   105    2
    76    64    65    1
    77    65    68    1
    78   108   109    1
    79   151   150    1
    80   110   109    2
    81   145   148    1
    82   145   146    1
    83    35    34    1
    84    35    38    1
    85    35    36    1
    86   109   112   am
    87    70    69    1
    88   146   147    2
    89    68    69    1
    90    36    37    2
    91   150   149    1
    92   150   153    1
    93    69    71    1
    94    54    52   ar
    95    53    52   ar
    96   153   155    1
    97   153   154    1
    98   112   113    1
    99    52    51    1
   100    50    49    2
   101    43    42    1
   102    43    46    1
   103    43    44    1
   104   113   114    1
   105   113   116    1
   106    47    44   am
   107    47    48    1
   108   119   117    1
   109   154   156    1
   110   114   115    2
   111    49    48    1
   112    44    45    2
   113   117   116    1
   114    51    48    1
   115    25    24    1
   116   116   118    1
   117    24    21    1
   118    12    11    1
   119     9    11   ar
   120     9     7   ar
   121    11    10   ar
   122    23    22    2
   123    21    22    1
   124    21    20    1
   125     7     6   ar
   126     1     2    1
   127    22    26   am
   128    33    31    1
   129     2     3    1
   130     2     5    1
   131    10     8   ar
   132     6     8   ar
   133     6     5    1
   134    18    17    1
   135    16    15    2
   136     3     4    2
   137    17    14    1
   138    17    19    1
   139    26    27    1
   140    14    15    1
   141    14    13    1
   142    31    32    1
   143    31    30    1
   144    27    30    1
   145    27    28    1
   146    28    29    2
