@<TRIPOS>MOLECULE
tmp/6bsjA00.pdb
 158 156 0 0 0
SMALL
GASTEIGER

@<TRIPOS>ATOM
      1  N        -69.0640  -32.7330   -6.9570 N.3    81  PRO81      -0.2116
      2  CA       -68.3100  -31.8680   -7.8670 C.3    81  PRO81       0.1372
      3  C        -69.2060  -30.7970   -8.4510 C.2    81  PRO81       0.2244
      4  O        -70.4070  -30.9920   -8.6160 O.2    81  PRO81      -0.2868
      5  CB       -67.8210  -32.8270   -8.9520 C.3    81  PRO81       0.0268
      6  CG       -67.8060  -34.1560   -8.2860 C.3    81  PRO81       0.0207
      7  CD       -68.9130  -34.1570   -7.2810 C.3    81  PRO81       0.0892
      8  N        -64.9440  -29.2740  -13.7970 N.3    86  LEU86      -0.1231
      9  CA       -64.5160  -30.2910  -14.7570 C.3    86  LEU86       0.1693
     10  C        -63.8170  -29.6780  -15.9730 C.2    86  LEU86       0.2591
     11  O        -64.1090  -28.5500  -16.3860 O.2    86  LEU86      -0.2718
     12  CB       -65.7290  -31.1050  -15.2190 C.3    86  LEU86       0.0284
     13  CG       -66.7050  -31.5480  -14.1230 C.3    86  LEU86       0.0019
     14  CD1      -67.9800  -32.1300  -14.7140 C.3    86  LEU86       0.0001
     15  CD2      -66.0240  -32.5600  -13.2270 C.3    86  LEU86       0.0001
     16  N        -62.8900  -30.4450  -16.5560 N.am   87  LYS87      -0.1980
     17  CA       -62.2160  -30.0580  -17.7980 C.3    87  LYS87       0.1596
     18  C        -63.0110  -30.5360  -19.0050 C.2    87  LYS87       0.2287
     19  O        -63.5990  -31.6180  -18.9820 O.2    87  LYS87      -0.2864
     20  CB       -60.8060  -30.6460  -17.8680 C.3    87  LYS87       0.0298
     21  CG       -59.9280  -30.3850  -16.6540 C.3    87  LYS87       0.0038
     22  CD       -58.6590  -31.2470  -16.7160 C.3    87  LYS87       0.0206
     23  CE       -58.9940  -32.7160  -17.0410 C.3    87  LYS87       0.1093
     24  NZ       -57.7990  -33.6200  -17.1250 N.3    87  LYS87      -0.1314
     25  N        -63.7510  -32.3680  -22.3720 N.3    89  LYS89      -0.1245
     26  CA       -63.2460  -33.6440  -22.8610 C.3    89  LYS89       0.1561
     27  C        -63.7090  -33.8670  -24.2950 C.2    89  LYS89       0.2260
     28  O        -64.5160  -33.1040  -24.8330 O.2    89  LYS89      -0.2867
     29  CB       -63.6730  -34.7940  -21.9460 C.3    89  LYS89       0.0271
     30  CG       -62.8880  -34.8480  -20.6180 C.3    89  LYS89       0.0035
     31  CD       -61.3960  -34.6500  -20.8420 C.3    89  LYS89       0.0206
     32  CE       -60.5550  -35.5130  -19.9030 C.3    89  LYS89       0.1093
     33  NZ       -60.5560  -35.0460  -18.4760 N.3    89  LYS89      -0.1314
     34  N        -66.8630  -38.9070  -23.7130 N.3    92  VAL92      -0.1231
     35  CA       -67.3090  -39.1960  -22.3620 C.3    92  VAL92       0.1692
     36  C        -68.3900  -40.2650  -22.4220 C.2    92  VAL92       0.2592
     37  O        -69.3420  -40.1390  -23.1980 O.2    92  VAL92      -0.2718
     38  CB       -67.8440  -37.9230  -21.6950 C.3    92  VAL92       0.0266
     39  CG1      -66.6850  -37.0760  -21.2210 C.3    92  VAL92       0.0020
     40  CG2      -68.6710  -37.1560  -22.7250 C.3    92  VAL92       0.0020
     41  N        -68.2570  -41.3070  -21.6030 N.am   93  THR93      -0.1953
     42  CA       -69.3460  -42.2560  -21.4420 C.3    93  THR93       0.1897
     43  C        -69.6240  -42.4550  -19.9560 C.2    93  THR93       0.2313
     44  O        -68.7680  -42.1970  -19.1090 O.2    93  THR93      -0.2863
     45  CB       -69.0500  -43.6170  -22.1170 C.3    93  THR93       0.1794
     46  OG1      -68.0450  -44.3200  -21.3870 O.3    93  THR93      -0.2208
     47  CG2      -68.6020  -43.4490  -23.5710 C.3    93  THR93       0.0378
     48  N        -59.7820  -40.2770  -17.4400 N.3   165  VAL165     -0.1245
     49  CA       -60.3450  -39.7160  -16.2190 C.3   165  VAL165      0.1561
     50  C        -61.6090  -40.5020  -15.8590 C.2   165  VAL165      0.2260
     51  O        -62.6570  -40.3350  -16.4910 O.2   165  VAL165     -0.2867
     52  CB       -60.6510  -38.2250  -16.4030 C.3   165  VAL165      0.0252
     53  CG1      -61.5210  -37.7080  -15.3020 C.3   165  VAL165      0.0019
     54  CG2      -59.3730  -37.4580  -16.4750 C.3   165  VAL165      0.0019
     55  N        -64.3910  -40.8740  -13.0170 N.3   167  TYR167     -0.1241
     56  CA       -64.9860  -40.2940  -11.8190 C.3   167  TYR167      0.1605
     57  C        -66.0560  -41.2230  -11.2690 C.2   167  TYR167      0.2264
     58  O        -67.0940  -41.4240  -11.8980 O.2   167  TYR167     -0.2867
     59  CB       -65.5990  -38.9190  -12.0680 C.3   167  TYR167      0.0534
     60  CG       -66.3870  -38.4700  -10.8420 C.ar  167  TYR167     -0.0201
     61  CD1      -65.7230  -38.0190   -9.6760 C.ar  167  TYR167     -0.0009
     62  CD2      -67.7840  -38.5330  -10.8110 C.ar  167  TYR167     -0.0009
     63  CE1      -66.4360  -37.6230   -8.5240 C.ar  167  TYR167      0.0417
     64  CE2      -68.5020  -38.1340   -9.6650 C.ar  167  TYR167      0.0417
     65  CZ       -67.8260  -37.6880   -8.5260 C.ar  167  TYR167      0.1957
     66  OH       -68.5390  -37.3030   -7.4010 O.3   167  TYR167     -0.2866
     67  N        -68.0780  -42.3870  -14.5230 N.3   174  TYR174     -0.1227
     68  CA       -68.0650  -41.4180  -15.6110 C.3   174  TYR174      0.1736
     69  C        -66.6490  -41.3680  -16.1440 C.2   174  TYR174      0.2595
     70  O        -65.7190  -41.0740  -15.3900 O.2   174  TYR174     -0.2718
     71  CB       -68.5040  -40.0370  -15.1410 C.3   174  TYR174      0.0548
     72  CG       -69.9790  -39.9240  -14.8820 C.ar  174  TYR174     -0.0200
     73  CD1      -70.5430  -40.4190  -13.7110 C.ar  174  TYR174     -0.0009
     74  CD2      -70.8100  -39.3020  -15.7970 C.ar  174  TYR174     -0.0009
     75  CE1      -71.8990  -40.3040  -13.4710 C.ar  174  TYR174      0.0417
     76  CE2      -72.1590  -39.1810  -15.5680 C.ar  174  TYR174      0.0417
     77  CZ       -72.6980  -39.6780  -14.4080 C.ar  174  TYR174      0.1957
     78  OH       -74.0490  -39.5590  -14.2060 O.3   174  TYR174     -0.2866
     79  N        -66.4810  -41.6660  -17.4280 N.am  175  VAL175     -0.1966
     80  CA       -65.1640  -41.8290  -18.0270 C.3   175  VAL175      0.1727
     81  C        -64.9950  -40.8340  -19.1650 C.2   175  VAL175      0.2616
     82  O        -65.8690  -40.7160  -20.0300 O.2   175  VAL175     -0.2715
     83  CB       -64.9590  -43.2660  -18.5150 C.3   175  VAL175      0.0290
     84  CG1      -63.5050  -43.4960  -18.8070 C.3   175  VAL175      0.0023
     85  CG2      -65.4690  -44.2320  -17.4560 C.3   175  VAL175      0.0023
     86  N        -63.8770  -40.1220  -19.1530 N.am  176  GLY176     -0.1955
     87  CA       -63.6050  -39.1130  -20.1530 C.3   176  GLY176      0.1869
     88  C        -62.2100  -39.2750  -20.7190 C.2   176  GLY176      0.2309
     89  O        -61.3080  -39.8020  -20.0700 O.2   176  GLY176     -0.2863
     90  N        -74.1460  -38.4900  -24.6730 N.3   211  PRO211     -0.2116
     91  CA       -74.2920  -37.0920  -24.2660 C.3   211  PRO211      0.1372
     92  C        -75.5370  -36.4490  -24.8630 C.2   211  PRO211      0.2244
     93  O        -75.8830  -36.7470  -26.0110 O.2   211  PRO211     -0.2868
     94  CB       -73.0230  -36.4320  -24.8160 C.3   211  PRO211      0.0268
     95  CG       -72.3210  -37.5240  -25.6580 C.3   211  PRO211      0.0207
     96  CD       -72.7660  -38.8050  -25.0600 C.3   211  PRO211      0.0892
     97  N        -75.4830  -36.1310  -20.5530 N.3   213  PHE213     -0.1241
     98  CA       -75.7540  -36.9260  -19.3640 C.3   213  PHE213      0.1605
     99  C        -76.5010  -36.1000  -18.3260 C.2   213  PHE213      0.2264
    100  O        -76.1060  -34.9660  -18.0280 O.2   213  PHE213     -0.2867
    101  CB       -74.4430  -37.4240  -18.7830 C.3   213  PHE213      0.0534
    102  CG       -73.7020  -38.3270  -19.7060 C.ar  213  PHE213     -0.0203
    103  CD1      -74.3900  -39.2340  -20.4920 C.ar  213  PHE213     -0.0042
    104  CD2      -72.3220  -38.2760  -19.7930 C.ar  213  PHE213     -0.0042
    105  CE1      -73.7210  -40.0630  -21.3320 C.ar  213  PHE213     -0.0003
    106  CE2      -71.6480  -39.1160  -20.6320 C.ar  213  PHE213     -0.0003
    107  CZ       -72.3420  -40.0090  -21.4020 C.ar  213  PHE213     -0.0000
    108  N        -77.1510  -35.5290  -14.6180 N.3   215  TRP215     -0.1241
    109  CA       -76.4470  -35.8630  -13.3910 C.3   215  TRP215      0.1605
    110  C        -76.7120  -34.7660  -12.3810 C.2   215  TRP215      0.2264
    111  O        -76.3890  -33.6050  -12.6420 O.2   215  TRP215     -0.2867
    112  CB       -74.9600  -36.0020  -13.6580 C.3   215  TRP215      0.0550
    113  CG       -74.1680  -36.2440  -12.4500 C.ar  215  TRP215      0.0003
    114  CD1      -74.0330  -37.4340  -11.7650 C.ar  215  TRP215      0.0946
    115  CD2      -73.3740  -35.2900  -11.7500 C.ar  215  TRP215      0.0152
    116  NE1      -73.2020  -37.2640  -10.6780 N.ar  215  TRP215     -0.2442
    117  CE2      -72.7830  -35.9590  -10.6490 C.ar  215  TRP215      0.0810
    118  CE3      -73.1040  -33.9360  -11.9400 C.ar  215  TRP215      0.0012
    119  CZ2      -71.9320  -35.3180   -9.7670 C.ar  215  TRP215      0.0191
    120  CZ3      -72.2650  -33.2990  -11.0450 C.ar  215  TRP215      0.0001
    121  CH2      -71.6900  -33.9890   -9.9750 C.ar  215  TRP215      0.0015
    122  N        -74.9720  -32.4810  -18.7630 N.3   220  LEU220     -0.1231
    123  CA       -73.5400  -32.4350  -19.0320 C.3   220  LEU220      0.1693
    124  C        -73.2730  -32.7840  -20.4910 C.2   220  LEU220      0.2592
    125  O        -73.6020  -33.8890  -20.9370 O.2   220  LEU220     -0.2718
    126  CB       -72.7890  -33.4000  -18.1180 C.3   220  LEU220      0.0284
    127  CG       -72.9220  -33.1850  -16.6040 C.3   220  LEU220      0.0019
    128  CD1      -72.0850  -34.1770  -15.8290 C.3   220  LEU220      0.0001
    129  CD2      -72.5210  -31.7910  -16.2330 C.3   220  LEU220      0.0001
    130  N        -72.6850  -31.8410  -21.2350 N.am  221  HIS221     -0.1962
    131  CA       -72.1970  -32.1010  -22.5860 C.3   221  HIS221      0.1772
    132  C        -70.6880  -32.3030  -22.5060 C.2   221  HIS221      0.2462
    133  O        -70.1190  -32.1930  -21.4180 O.2   221  HIS221     -0.2730
    134  CB       -72.5570  -30.9550  -23.5310 C.3   221  HIS221      0.0785
    135  CG       -74.0220  -30.8310  -23.7910 C.ar  221  HIS221      0.0821
    136  ND1      -74.9270  -30.5040  -22.8060 N.ar  221  HIS221     -0.2267
    137  CD2      -74.7430  -30.9910  -24.9240 C.ar  221  HIS221      0.1154
    138  CE1      -76.1450  -30.4650  -23.3180 C.ar  221  HIS221      0.1986
    139  NE2      -76.0600  -30.7600  -24.6030 N.ar  221  HIS221     -0.2212
    140  N        -69.9990  -32.6370  -23.5990 N.am  222  PRO222     -0.2727
    141  CA       -68.5380  -32.7490  -23.5040 C.3   222  PRO222      0.1402
    142  C        -67.8320  -31.4100  -23.4470 C.2   222  PRO222      0.2269
    143  O        -66.7130  -31.3410  -22.9140 O.2   222  PRO222     -0.2865
    144  CB       -68.1620  -33.5240  -24.7730 C.3   222  PRO222      0.0296
    145  CG       -69.4120  -34.2330  -25.1490 C.3   222  PRO222      0.0237
    146  CD       -70.5060  -33.2950  -24.8180 C.3   222  PRO222      0.0939
    147  N        -66.4410  -25.3340  -19.3420 N.3   304  TYR304     -0.1241
    148  CA       -65.6010  -26.0760  -18.4180 C.3   304  TYR304      0.1605
    149  C        -64.3080  -25.3120  -18.1310 C.2   304  TYR304      0.2264
    150  O        -64.0560  -24.2190  -18.6430 O.2   304  TYR304     -0.2867
    151  CB       -65.3330  -27.4700  -18.9700 C.3   304  TYR304      0.0534
    152  CG       -66.5690  -28.3130  -18.9860 C.ar  304  TYR304     -0.0201
    153  CD1      -67.3810  -28.3920  -17.8660 C.ar  304  TYR304     -0.0009
    154  CD2      -66.9460  -29.0140  -20.1200 C.ar  304  TYR304     -0.0009
    155  CE1      -68.5300  -29.1630  -17.8690 C.ar  304  TYR304      0.0417
    156  CE2      -68.0940  -29.7800  -20.1360 C.ar  304  TYR304      0.0417
    157  CZ       -68.8780  -29.8530  -19.0050 C.ar  304  TYR304      0.1957
    158  OH       -70.0160  -30.6160  -19.0030 O.3   304  TYR304     -0.2866
@<TRIPOS>BOND
     1    93    92    2
     2    95    96    1
     3    95    94    1
     4   145   146    1
     5   145   144    1
     6    96    90    1
     7   137   139   ar
     8   137   135   ar
     9    92    91    1
    10    28    27    2
    11   146   140    1
    12    94    91    1
    13   144   141    1
    14    90    91    1
    15   139   138   ar
    16    27    26    1
    17   135   134    1
    18   135   136   ar
    19    34    35    1
    20   140   141    1
    21   140   132   am
    22    47    45    1
    23   134   131    1
    24   141   142    1
    25   142   143    2
    26   138   136   ar
    27    37    36    2
    28    26    25    1
    29    26    29    1
    30    40    38    1
    31   131   132    1
    32   131   130    1
    33   132   133    2
    34    36    35    1
    35    36    41   am
    36    35    38    1
    37    45    42    1
    38    45    46    1
    39    29    30    1
    40    38    39    1
    41    41    42    1
    42    42    43    1
    43   107   105   ar
    44   107   106   ar
    45   105   103   ar
    46   130   124   am
    47   125   124    2
    48    31    30    1
    49    31    32    1
    50    88    87    1
    51    88    89    2
    52   106   104   ar
    53    97    98    1
    54   103   102   ar
    55   124   123    1
    56    87    86    1
    57   156   154   ar
    58   156   157   ar
    59   154   152   ar
    60    82    81    2
    61    43    44    2
    62    32    33    1
    63   104   102   ar
    64   102   101    1
    65    98   101    1
    66    98    99    1
    67   147   148    1
    68    81    86   am
    69    81    80    1
    70   123   122    1
    71   123   126    1
    72   157   158    1
    73   157   155   ar
    74    18    19    2
    75    18    17    1
    76   152   151    1
    77   152   153   ar
    78   151   148    1
    79    84    83    1
    80   150   149    2
    81    83    80    1
    82    83    85    1
    83   148   149    1
    84    99   100    2
    85   126   127    1
    86    80    79    1
    87   155   153   ar
    88    20    17    1
    89    20    21    1
    90    17    16    1
    91    48    49    1
    92    79    69   am
    93    24    23    1
    94    23    22    1
    95    22    21    1
    96   127   129    1
    97   127   128    1
    98    16    10   am
    99    51    50    2
   100    54    52    1
   101    52    49    1
   102    52    53    1
   103    11    10    2
   104    49    50    1
   105    69    68    1
   106    69    70    2
   107    10     9    1
   108    74    76   ar
   109    74    72   ar
   110    68    71    1
   111    68    67    1
   112    76    77   ar
   113    12     9    1
   114    12    13    1
   115    71    72    1
   116    72    73   ar
   117     9     8    1
   118    14    13    1
   119   108   109    1
   120    77    78    1
   121    77    75   ar
   122    13    15    1
   123    73    75   ar
   124   112   109    1
   125   112   113    1
   126   109   110    1
   127    55    56    1
   128   111   110    2
   129   113   114   ar
   130   113   115   ar
   131    59    56    1
   132    59    60    1
   133   118   115   ar
   134   118   120   ar
   135    58    57    2
   136    56    57    1
   137   114   116   ar
   138   115   117   ar
   139   120   121   ar
   140    60    62   ar
   141    60    61   ar
   142    62    64   ar
   143   116   117   ar
   144   117   119   ar
   145   121   119   ar
   146    61    63   ar
   147    64    65   ar
   148     5     6    1
   149     5     2    1
   150     4     3    2
   151    65    63   ar
   152    65    66    1
   153     3     2    1
   154     6     7    1
   155     2     1    1
   156     7     1    1
