@<TRIPOS>MOLECULE
tmp/6bskA00.pdb
 188 177 0 0 0
SMALL
GASTEIGER

@<TRIPOS>ATOM
      1  N        -41.5500   -4.6600   -5.1030 N.3    12  LEU12      -0.1231
      2  CA       -42.1100   -3.3380   -5.4280 C.3    12  LEU12       0.1693
      3  C        -41.0920   -2.3910   -6.0910 C.2    12  LEU12       0.2592
      4  O        -41.4680   -1.3680   -6.7070 O.2    12  LEU12      -0.2718
      5  CB       -42.6870   -2.6560   -4.1660 C.3    12  LEU12       0.0284
      6  CG       -43.8730   -3.3350   -3.4400 C.3    12  LEU12       0.0019
      7  CD1      -44.2890   -2.5490   -2.2280 C.3    12  LEU12       0.0001
      8  CD2      -45.0840   -3.5110   -4.3500 C.3    12  LEU12       0.0001
      9  N        -39.8170   -2.7190   -5.9100 N.am   13  GLY13      -0.1957
     10  CA       -38.7020   -1.9530   -6.4390 C.3    13  GLY13       0.1869
     11  C        -37.3810   -2.3220   -5.8040 C.2    13  GLY13       0.2309
     12  O        -37.3370   -2.9690   -4.7510 O.2    13  GLY13      -0.2863
     13  N        -31.2110    1.9400   -2.5430 N.3    17  PHE17      -0.1241
     14  CA       -31.8480    1.7510   -1.2290 C.3    17  PHE17       0.1605
     15  C        -31.9290    0.2720   -0.7580 C.2    17  PHE17       0.2264
     16  O        -32.1600    0.0340    0.4300 O.2    17  PHE17      -0.2867
     17  CB       -33.2570    2.3600   -1.2440 C.3    17  PHE17       0.0534
     18  CG       -34.1600    1.8660   -2.3540 C.ar   17  PHE17      -0.0203
     19  CD1      -34.2400    2.5540   -3.5650 C.ar   17  PHE17      -0.0042
     20  CD2      -34.9680    0.7460   -2.1690 C.ar   17  PHE17      -0.0042
     21  CE1      -35.0980    2.1240   -4.5760 C.ar   17  PHE17      -0.0003
     22  CE2      -35.8200    0.3110   -3.1820 C.ar   17  PHE17      -0.0003
     23  CZ       -35.8780    1.0010   -4.3800 C.ar   17  PHE17      -0.0000
     24  N        -37.2720   -3.8790   -2.0440 N.3    20  VAL20      -0.1245
     25  CA       -38.5200   -3.6930   -1.2920 C.3    20  VAL20       0.1561
     26  C        -39.6170   -4.5980   -1.8190 C.2    20  VAL20       0.2260
     27  O        -39.9410   -4.5110   -2.9990 O.2    20  VAL20      -0.2867
     28  CB       -38.9640   -2.2050   -1.2630 C.3    20  VAL20       0.0252
     29  CG1      -40.3110   -2.0320   -0.5430 C.3    20  VAL20       0.0019
     30  CG2      -37.8880   -1.3220   -0.6520 C.3    20  VAL20       0.0019
     31  N        -44.5320   -3.2850    3.8170 N.3    33  ALA33      -0.1245
     32  CA       -43.4630   -3.2340    2.8330 C.3    33  ALA33       0.1562
     33  C        -42.2550   -3.8000    3.5590 C.2    33  ALA33       0.2260
     34  O        -41.9590   -3.4050    4.6760 O.2    33  ALA33      -0.2867
     35  CB       -43.2070   -1.8090    2.3480 C.3    33  ALA33       0.0290
     36  N        -38.3530   -4.1890    3.4220 N.3    35  LYS35      -0.1245
     37  CA       -37.1370   -3.6070    2.8340 C.3    35  LYS35       0.1561
     38  C        -35.8710   -4.3020    3.3210 C.2    35  LYS35       0.2260
     39  O        -35.6030   -4.3370    4.5130 O.2    35  LYS35      -0.2867
     40  CB       -37.0840   -2.0800    3.0920 C.3    35  LYS35       0.0271
     41  CG       -35.8370   -1.3740    2.5440 C.3    35  LYS35       0.0035
     42  CD       -35.8680    0.1080    2.8350 C.3    35  LYS35       0.0206
     43  CE       -34.8530    0.8980    2.0460 C.3    35  LYS35       0.1093
     44  NZ       -34.9800    2.3690    2.2600 N.3    35  LYS35      -0.1314
     45  N        -30.4220    4.5320    8.9970 N.3    57  GLU57      -0.1245
     46  CA       -31.7930    4.4810    8.5020 C.3    57  GLU57       0.1567
     47  C        -32.7920    4.0850    9.6080 C.2    57  GLU57       0.2260
     48  O        -33.8340    4.7350    9.7290 O.2    57  GLU57      -0.2867
     49  CB       -31.8870    3.5330    7.3060 C.3    57  GLU57       0.0388
     50  CG       -33.1820    3.6480    6.5530 C.3    57  GLU57       0.1160
     51  CD       -33.2990    2.8150    5.3030 C.2    57  GLU57       0.3649
     52  OE1      -32.2650    2.3870    4.7470 O.co2  57  GLU57      -0.2457
     53  OE2      -34.4450    2.6370    4.8450 O.co2  57  GLU57      -0.2457
     54  N        -35.6550    6.4640   11.2580 N.3    61  LEU61      -0.1245
     55  CA       -37.0550    6.0230   11.1880 C.3    61  LEU61       0.1561
     56  C        -37.6980    5.9800   12.5920 C.2    61  LEU61       0.2260
     57  O        -38.8540    6.3690   12.7430 O.2    61  LEU61      -0.2867
     58  CB       -37.1450    4.6500   10.5100 C.3    61  LEU61       0.0270
     59  CG       -37.0660    4.6190    8.9710 C.3    61  LEU61       0.0019
     60  CD1      -36.7510    3.2220    8.4800 C.3    61  LEU61       0.0001
     61  CD2      -38.3550    5.1220    8.3200 C.3    61  LEU61       0.0001
     62  N        -43.4980    7.8640    6.5860 N.3    72  ILE72      -0.1242
     63  CA       -43.6450    6.4240    6.6820 C.3    72  ILE72       0.1601
     64  C        -43.2970    5.9130    8.0850 C.2    72  ILE72       0.2264
     65  O        -42.3880    6.4440    8.7360 O.2    72  ILE72      -0.2867
     66  CB       -42.8340    5.7680    5.5510 C.3    72  ILE72       0.0472
     67  CG1      -43.5870    4.4860    5.0160 C.2    72  ILE72      -0.0246
     68  CG2      -41.3150    5.5760    5.8780 C.3    72  ILE72       0.0066
     69  CD1      -43.5380    3.3430    5.7090 C.2    72  ILE72      -0.0049
     70  N        -42.0790   -1.8980    7.0540 N.3    88  LEU88      -0.1231
     71  CA       -42.6400   -0.5550    6.9330 C.3    88  LEU88       0.1693
     72  C        -44.1040   -0.5970    6.5820 C.2    88  LEU88       0.2592
     73  O        -44.5810   -1.5840    6.0320 O.2    88  LEU88      -0.2718
     74  CB       -41.8520    0.2320    5.8620 C.3    88  LEU88       0.0284
     75  CG       -40.3740    0.4730    6.2360 C.3    88  LEU88       0.0019
     76  CD1      -39.4450    0.1300    5.0980 C.3    88  LEU88       0.0001
     77  CD2      -40.1560    1.8420    6.7810 C.3    88  LEU88       0.0001
     78  N        -44.8320    0.4700    6.9060 N.am   89  GLU89      -0.1966
     79  CA       -46.2400    0.5410    6.5610 C.3    89  GLU89       0.1733
     80  C        -46.4140    0.5680    5.0520 C.2    89  GLU89       0.2616
     81  O        -45.4910    0.9430    4.3210 O.2    89  GLU89      -0.2715
     82  CB       -46.9240    1.7240    7.2660 C.3    89  GLU89       0.0429
     83  CG       -47.1250    2.9680    6.4310 C.3    89  GLU89       0.1163
     84  CD       -47.6880    4.1380    7.2030 C.2    89  GLU89       0.3649
     85  OE1      -46.9080    4.8980    7.8170 O.co2  89  GLU89      -0.2457
     86  OE2      -48.9140    4.3590    7.0900 O.co2  89  GLU89      -0.2457
     87  N        -47.5790    0.1080    4.5860 N.am   90  ARG90      -0.1964
     88  CA       -47.9080    0.1050    3.1750 C.3    90  ARG90       0.1714
     89  C        -49.3330    0.5710    2.9520 C.2    90  ARG90       0.2458
     90  O        -50.2520   -0.1870    3.2680 O.2    90  ARG90      -0.2730
     91  CB       -47.6170   -1.2560    2.5210 C.3    90  ARG90       0.0347
     92  CG       -48.0800   -1.3710    1.0630 C.3    90  ARG90       0.0492
     93  CD       -47.5390   -2.5950    0.3280 C.3    90  ARG90       0.2205
     94  NE       -48.0600   -3.8670    0.8500 N.pl3  90  ARG90      -0.0865
     95  CZ       -49.2620   -4.3710    0.5820 C.cat  90  ARG90       0.5346
     96  NH1      -50.1190   -3.7010   -0.1840 N.pl3  90  ARG90       0.1354
     97  NH2      -49.6260   -5.5340    1.0950 N.pl3  90  ARG90       0.1354
     98  N        -49.5370    1.8330    2.4500 N.am   91  PRO91      -0.2727
     99  CA       -50.9060    2.2750    2.1120 C.3    91  PRO91       0.1402
    100  C        -51.4140    1.4240    0.9440 C.2    91  PRO91       0.2269
    101  O        -50.6230    0.9020    0.1460 O.2    91  PRO91      -0.2865
    102  CB       -50.7190    3.7430    1.6620 C.3    91  PRO91       0.0296
    103  CG       -49.3370    4.1360    2.1230 C.3    91  PRO91       0.0237
    104  CD       -48.5390    2.8620    2.0600 C.3    91  PRO91       0.0939
    105  N        -52.0340    2.5670   -3.4140 N.3    94  VAL94      -0.1231
    106  CA       -50.9280    3.5100   -3.3780 C.3    94  VAL94       0.1692
    107  C        -50.3320    3.7240   -4.7940 C.2    94  VAL94       0.2592
    108  O        -50.4740    2.8880   -5.6890 O.2    94  VAL94      -0.2718
    109  CB       -49.8500    3.0590   -2.3130 C.3    94  VAL94       0.0266
    110  CG1      -48.9970    1.9040   -2.8230 C.3    94  VAL94       0.0020
    111  CG2      -48.9690    4.2130   -1.8590 C.3    94  VAL94       0.0020
    112  N        -49.6410    4.8550   -4.9650 N.am   95  GLN95      -0.1966
    113  CA       -48.8690    5.2110   -6.1420 C.3    95  GLN95       0.1733
    114  C        -47.8190    6.2040   -5.7200 C.2    95  GLN95       0.2616
    115  O        -48.1710    7.1530   -5.0200 O.2    95  GLN95      -0.2715
    116  CB       -49.7410    5.7810   -7.2720 C.3    95  GLN95       0.0408
    117  CG       -48.9230    5.9200   -8.5600 C.3    95  GLN95       0.0908
    118  CD       -49.7210    6.2710   -9.7780 C.2    95  GLN95       0.2608
    119  OE1      -50.5320    7.1910   -9.7640 O.2    95  GLN95      -0.2717
    120  NE2      -49.4430    5.6000  -10.8900 N.am   95  GLN95      -0.0878
    121  N        -46.5280    6.0050   -6.1230 N.am   96  ASP96      -0.1971
    122  CA       -45.5190    7.0180   -5.8050 C.3    96  ASP96       0.1709
    123  C        -45.7120    8.2400   -6.7120 C.2    96  ASP96       0.2293
    124  O        -46.3230    8.1290   -7.7890 O.2    96  ASP96      -0.2864
    125  CB       -44.0540    6.5030   -5.7330 C.3    96  ASP96       0.1436
    126  CG       -43.3080    6.1000   -6.9900 C.2    96  ASP96       0.3671
    127  OD1      -43.5260    6.7170   -8.0280 O.co2  96  ASP96      -0.2456
    128  OD2      -42.3520    5.3130   -6.8800 O.co2  96  ASP96      -0.2456
    129  N        -44.4550    8.0630  -10.5300 N.3    99  ASP99      -0.1239
    130  CA       -45.3840    7.3340  -11.4100 C.3    99  ASP99       0.1674
    131  C        -46.6340    8.1300  -11.6860 C.2    99  ASP99       0.2266
    132  O        -47.1110    8.1420  -12.8160 O.2    99  ASP99      -0.2867
    133  CB       -45.7370    5.9550  -10.8270 C.3    99  ASP99       0.1410
    134  CG       -44.5840    4.9700  -10.8760 C.2    99  ASP99       0.3668
    135  OD1      -43.5890    5.2450  -11.6070 O.co2  99  ASP99      -0.2456
    136  OD2      -44.6540    3.9380  -10.1640 O.co2  99  ASP99      -0.2456
    137  N        -39.9620   10.2950   -6.3020 N.3   139  GLU139     -0.1231
    138  CA       -39.8210    8.8480   -6.0690 C.3   139  GLU139      0.1699
    139  C        -39.9100    8.4690   -4.6050 C.2   139  GLU139      0.2592
    140  O        -40.3010    7.3470   -4.3070 O.2   139  GLU139     -0.2718
    141  CB       -38.4910    8.3320   -6.6000 C.3   139  GLU139      0.0402
    142  CG       -38.2860    8.4450   -8.1030 C.3   139  GLU139      0.1161
    143  CD       -36.8610    8.1310   -8.5350 C.2   139  GLU139      0.3649
    144  OE1      -36.1740    9.0280   -9.0840 O.co2 139  GLU139     -0.2457
    145  OE2      -36.4170    6.9900   -8.2740 O.co2 139  GLU139     -0.2457
    146  N        -39.5400    9.3880   -3.6920 N.am  140  ASN140     -0.1974
    147  CA       -39.5670    9.1750   -2.2370 C.3   140  ASN140      0.1688
    148  C        -40.8060    9.7160   -1.5560 C.2   140  ASN140      0.2292
    149  O        -40.8000    9.9370   -0.3460 O.2   140  ASN140     -0.2864
    150  CB       -38.3040    9.6880   -1.5600 C.3   140  ASN140      0.1181
    151  CG       -37.1100    8.8700   -1.9340 C.2   140  ASN140      0.2629
    152  OD1      -37.2260    7.6980   -2.3120 O.2   140  ASN140     -0.2716
    153  ND2      -35.9360    9.4800   -1.8770 N.am  140  ASN140     -0.0877
    154  N        -44.9860    8.7160   -1.3990 N.3   142  LEU142     -0.1245
    155  CA       -46.0950    7.8250   -1.7320 C.3   142  LEU142      0.1561
    156  C        -47.4010    8.5740   -1.5930 C.2   142  LEU142      0.2260
    157  O        -47.5550    9.3570   -0.6510 O.2   142  LEU142     -0.2867
    158  CB       -46.1510    6.6080   -0.7890 C.3   142  LEU142      0.0270
    159  CG       -44.9970    5.6080   -0.8170 C.3   142  LEU142      0.0019
    160  CD1      -45.2790    4.4950    0.1220 C.3   142  LEU142      0.0001
    161  CD2      -44.7100    5.0950   -2.2420 C.3   142  LEU142      0.0001
    162  N        -40.8630    8.8310    2.2930 N.3   153  ILE153     -0.1231
    163  CA       -40.2350    7.5010    2.4870 C.3   153  ILE153      0.1692
    164  C        -38.7100    7.5420    2.2360 C.2   153  ILE153      0.2592
    165  O        -38.1960    8.4980    1.6860 O.2   153  ILE153     -0.2718
    166  CB       -40.9180    6.3790    1.5900 C.3   153  ILE153      0.0266
    167  CG1      -40.5950    6.5620    0.1130 C.3   153  ILE153      0.0019
    168  CG2      -42.4320    6.2600    1.8100 C.3   153  ILE153      0.0020
    169  CD1      -40.8750    5.3980   -0.8480 C.3   153  ILE153      0.0001
    170  N        -38.0210    6.4440    2.5570 N.am  154  ASP154     -0.1960
    171  CA       -36.5990    6.1960    2.3190 C.3   154  ASP154      0.1840
    172  C        -35.6500    7.1610    3.0080 C.2   154  ASP154      0.2622
    173  O        -35.1530    8.1110    2.4010 O.2   154  ASP154     -0.2715
    174  CB       -36.2590    6.0860    0.8250 C.3   154  ASP154      0.1450
    175  CG       -34.8960    5.4580    0.5340 C.2   154  ASP154      0.3671
    176  OD1      -34.1930    5.0350    1.4960 O.co2 154  ASP154     -0.2456
    177  OD2      -34.5440    5.3590   -0.6410 O.co2 154  ASP154     -0.2456
    178  N        -35.2960    6.8150    4.2380 N.am  155  PHE155     -0.1974
    179  CA       -34.3660    7.5750    5.0560 C.3   155  PHE155      0.1639
    180  C        -32.9250    7.0540    4.9360 C.2   155  PHE155      0.2290
    181  O        -32.0600    7.4390    5.7290 O.2   155  PHE155     -0.2864
    182  CB       -34.8560    7.5970    6.5210 C.3   155  PHE155      0.0560
    183  CG       -36.0310    8.5330    6.6890 C.ar  155  PHE155     -0.0200
    184  CD1      -37.3260    8.1270    6.3530 C.ar  155  PHE155     -0.0042
    185  CD2      -35.8460    9.8320    7.1500 C.ar  155  PHE155     -0.0042
    186  CE1      -38.4080    9.0050    6.4830 C.ar  155  PHE155     -0.0003
    187  CE2      -36.9390   10.6950    7.3090 C.ar  155  PHE155     -0.0003
    188  CZ       -38.2040   10.2790    6.9630 C.ar  155  PHE155     -0.0000
@<TRIPOS>BOND
     1   132   131    2
     2   131   130    1
     3   135   134   ar
     4   130   133    1
     5   130   129    1
     6   120   118   am
     7   134   133    1
     8   134   136   ar
     9   118   119    2
    10   118   117    1
    11   144   143   ar
    12   117   116    1
    13   143   145   ar
    14   143   142    1
    15   142   141    1
    16   127   126   ar
    17   124   123    2
    18   116   113    1
    19   126   128   ar
    20   126   125    1
    21   123   122    1
    22     4     3    2
    23   141   138    1
    24    10     9    1
    25    10    11    1
    26   137   138    1
    27   113   114    1
    28   113   112    1
    29   121   122    1
    30   121   114   am
    31     3     9   am
    32     3     2    1
    33   138   139    1
    34   122   125    1
    35    11    12    2
    36   114   115    2
    37   108   107    2
    38     2     1    1
    39     2     5    1
    40   112   107   am
    41   107   106    1
    42   139   140    2
    43   139   146   am
    44    21    23   ar
    45    21    19   ar
    46    23    22   ar
    47     8     6    1
    48     5     6    1
    49   146   147    1
    50    19    18   ar
    51     6     7    1
    52   105   106    1
    53   106   109    1
    54    22    20   ar
    55    27    26    2
    56   110   109    1
    57    13    14    1
    58    18    20   ar
    59    18    17    1
    60   109   111    1
    61   152   151    2
    62   161   159    1
    63   147   150    1
    64   147   148    1
    65    24    25    1
    66   151   153   am
    67   151   150    1
    68    26    25    1
    69   155   156    1
    70   155   154    1
    71   155   158    1
    72   156   157    2
    73   148   149    2
    74    25    28    1
    75    28    30    1
    76    28    29    1
    77    17    14    1
    78    14    15    1
    79   169   167    1
    80   159   158    1
    81   159   160    1
    82    15    16    2
    83   177   175   ar
    84    96    95    1
    85   167   166    1
    86   101   100    2
    87    93    94    1
    88    93    92    1
    89   175   174    1
    90   175   176   ar
    91    95    94    2
    92    95    97    1
    93   174   171    1
    94   100    99    1
    95    92    91    1
    96   166   168    1
    97   166   163    1
    98   102    99    1
    99   102   103    1
   100   165   164    2
   101    43    44    1
   102    43    42    1
   103   104   103    1
   104   104    98    1
   105    99    98    1
   106   164   163    1
   107   164   170   am
   108   162   163    1
   109   171   170    1
   110   171   172    1
   111    35    32    1
   112   173   172    2
   113    98    89   am
   114    91    88    1
   115    41    42    1
   116    41    40    1
   117    32    33    1
   118    32    31    1
   119    37    40    1
   120    37    38    1
   121    37    36    1
   122    89    88    1
   123    89    90    2
   124   172   178   am
   125    88    87    1
   126    38    39    2
   127    33    34    2
   128   178   179    1
   129    81    80    2
   130    87    80   am
   131    52    51   ar
   132    53    51   ar
   133   180   179    1
   134   180   181    2
   135    67    66    1
   136    67    69    2
   137    80    79    1
   138   179   182    1
   139    76    75    1
   140    51    50    1
   141    66    68    1
   142    66    63    1
   143    74    75    1
   144    74    71    1
   145    73    72    2
   146    75    77    1
   147   184   186   ar
   148   184   183   ar
   149    83    84    1
   150    83    82    1
   151   186   188   ar
   152   182   183    1
   153    50    49    1
   154    79    78    1
   155    79    82    1
   156    72    78   am
   157    72    71    1
   158    62    63    1
   159    63    64    1
   160   183   185   ar
   161    71    70    1
   162   188   187   ar
   163    86    84   ar
   164   185   187   ar
   165    84    85   ar
   166    49    46    1
   167    64    65    2
   168    61    59    1
   169    60    59    1
   170    46    45    1
   171    46    47    1
   172    59    58    1
   173    47    48    2
   174    58    55    1
   175    55    54    1
   176    55    56    1
   177    56    57    2
