@<TRIPOS>MOLECULE
tmp/6bslA00.pdb
 115 114 0 0 0
SMALL
GASTEIGER

@<TRIPOS>ATOM
      1  N          2.3750   21.7450   -4.1130 N.3    63  CYS63      -0.1221
      2  CA         3.3610   20.9370   -3.4120 C.3    63  CYS63       0.1808
      3  C          3.2240   19.4820   -3.8350 C.2    63  CYS63       0.2602
      4  O          2.1130   18.9770   -3.9960 O.2    63  CYS63      -0.2717
      5  CB         3.2070   21.0940   -1.9030 C.3    63  CYS63       0.0970
      6  SG         3.4300   22.8190   -1.3880 S.3    63  CYS63      -0.0800
      7  N          4.3670   18.8360   -4.0400 N.am   64  GLY64      -0.1942
      8  CA         4.4200   17.4510   -4.4930 C.3    64  GLY64       0.2014
      9  C          5.4570   17.3050   -5.5820 C.2    64  GLY64       0.2639
     10  O          6.6040   17.7410   -5.4280 O.2    64  GLY64      -0.2714
     11  N          5.0570   16.6980   -6.6920 N.am   65  CYS65      -0.1953
     12  CA         5.9920   16.3770   -7.7530 C.3    65  CYS65       0.1843
     13  C          6.3860   17.6370   -8.5240 C.2    65  CYS65       0.2625
     14  O          5.5010   18.3960   -8.9120 O.2    65  CYS65      -0.2714
     15  CB         5.3780   15.3590   -8.7080 C.3    65  CYS65       0.0997
     16  SG         6.4580   14.9020  -10.0710 S.3    65  CYS65      -0.0797
     17  N          7.6730   17.8970   -8.7700 N.am   66  CYS66      -0.1968
     18  CA         8.8380   17.1140   -8.3180 C.3    66  CYS66       0.1712
     19  C         10.0260   18.0570   -8.3000 C.2    66  CYS66       0.2296
     20  O         10.0310   19.0620   -9.0100 O.2    66  CYS66      -0.2864
     21  CB         9.1780   15.9710   -9.2860 C.3    66  CYS66       0.0983
     22  SG         8.2330   14.4410   -9.1890 S.3    66  CYS66      -0.0798
     23  N         14.1750   17.8060   -8.9030 N.3    68  TYR68      -0.1241
     24  CA        15.1790   16.8860   -9.4430 C.3    68  TYR68       0.1605
     25  C         16.3200   16.6790   -8.4430 C.2    68  TYR68       0.2264
     26  O         16.7230   17.6130   -7.7430 O.2    68  TYR68      -0.2867
     27  CB        15.7220   17.3990  -10.7840 C.3    68  TYR68       0.0534
     28  CG        16.4720   16.3600  -11.5820 C.ar   68  TYR68      -0.0201
     29  CD1       17.8330   16.1290  -11.3520 C.ar   68  TYR68      -0.0009
     30  CD2       15.8470   15.6290  -12.5880 C.ar   68  TYR68      -0.0009
     31  CE1       18.5360   15.1780  -12.0730 C.ar   68  TYR68       0.0417
     32  CE2       16.5450   14.6710  -13.3160 C.ar   68  TYR68       0.0417
     33  CZ        17.8900   14.4540  -13.0580 C.ar   68  TYR68       0.1957
     34  OH        18.5840   13.5170  -13.7930 O.3    68  TYR68      -0.2866
     35  N         20.8470   17.4820  -13.3020 N.3    72  ARG72      -0.1245
     36  CA        20.2380   16.7950  -14.4460 C.3    72  ARG72       0.1563
     37  C         21.1520   16.8350  -15.6700 C.2    72  ARG72       0.2260
     38  O         21.3820   15.8090  -16.3180 O.2    72  ARG72      -0.2867
     39  CB        18.9010   17.4420  -14.7830 C.3    72  ARG72       0.0307
     40  CG        18.1080   16.7560  -15.8800 C.3    72  ARG72       0.0489
     41  CD        16.8210   17.5150  -16.0910 C.3    72  ARG72       0.2205
     42  NE        15.9330   16.8870  -17.0650 N.pl3  72  ARG72      -0.0865
     43  CZ        14.7550   17.3910  -17.4350 C.cat  72  ARG72       0.5346
     44  NH1       14.3170   18.5440  -16.9220 N.pl3  72  ARG72       0.1354
     45  NH2       14.0070   16.7420  -18.3240 N.pl3  72  ARG72       0.1354
     46  N          4.3240   24.7800    0.9920 N.3    85  CYS85      -0.1235
     47  CA         5.6730   24.2280    1.1700 C.3    85  CYS85       0.1677
     48  C          6.7440   25.2440    0.7890 C.2    85  CYS85       0.2270
     49  O          7.7430   24.9110    0.1480 O.2    85  CYS85      -0.2867
     50  CB         5.8380   22.9240    0.3740 C.3    85  CYS85       0.0956
     51  SG         5.4440   23.0730   -1.3770 S.3    85  CYS85      -0.0801
     52  N         15.2780   21.4410    2.5930 N.3    93  HIS93      -0.1226
     53  CA        15.0590   20.0330    2.2100 C.3    93  HIS93       0.1752
     54  C         15.0890   19.8550    0.6930 C.2    93  HIS93       0.2595
     55  O         15.8060   18.9920    0.1680 O.2    93  HIS93      -0.2718
     56  CB        13.7280   19.5340    2.7960 C.3    93  HIS93       0.0759
     57  CG        13.2590   18.2240    2.2370 C.ar   93  HIS93       0.0818
     58  ND1       13.3200   17.0440    2.9460 N.ar   93  HIS93      -0.2268
     59  CD2       12.7030   17.9170    1.0430 C.ar   93  HIS93       0.1154
     60  CE1       12.8180   16.0660    2.2070 C.ar   93  HIS93       0.1986
     61  NE2       12.4490   16.5650    1.0400 N.ar   93  HIS93      -0.2212
     62  N         14.3270   20.6740   -0.0260 N.am   94  GLU94      -0.1979
     63  CA        14.2740   20.5460   -1.4740 C.3    94  GLU94       0.1602
     64  C         15.6190   20.8700   -2.1260 C.2    94  GLU94       0.2287
     65  O         15.9930   20.2500   -3.1210 O.2    94  GLU94      -0.2864
     66  CB        13.1410   21.3720   -2.0660 C.3    94  GLU94       0.0415
     67  CG        11.7950   20.8630   -1.5800 C.3    94  GLU94       0.1163
     68  CD        10.6160   21.2990   -2.4040 C.2    94  GLU94       0.3649
     69  OE1        9.4910   20.9010   -2.0330 O.co2  94  GLU94      -0.2457
     70  OE2       10.7950   22.0420   -3.3970 O.co2  94  GLU94      -0.2457
     71  N         15.5880   10.9100   -0.2230 N.3   103  HIS103     -0.1241
     72  CA        15.0890   10.8560    1.1560 C.3   103  HIS103      0.1621
     73  C         15.8740    9.8540    1.9950 C.2   103  HIS103      0.2264
     74  O         16.1750    8.7600    1.5380 O.2   103  HIS103     -0.2867
     75  CB        13.6010   10.5310    1.1750 C.3   103  HIS103      0.0745
     76  CG        12.7690   11.6290    0.6060 C.ar  103  HIS103      0.0817
     77  ND1       11.6670   11.4090   -0.1900 N.ar  103  HIS103     -0.2268
     78  CD2       12.9180   12.9710    0.6930 C.ar  103  HIS103      0.1154
     79  CE1       11.1600   12.5810   -0.5460 C.ar  103  HIS103      0.1986
     80  NE2       11.9040   13.5460   -0.0270 N.ar  103  HIS103     -0.2212
     81  N          4.6920    3.5110   -2.5630 N.3   127  TYR127     -0.1241
     82  CA         5.9080    3.6070   -3.3850 C.3   127  TYR127      0.1605
     83  C          6.9370    4.6000   -2.8440 C.2   127  TYR127      0.2264
     84  O          8.1340    4.4410   -3.0740 O.2   127  TYR127     -0.2867
     85  CB         5.5600    3.9390   -4.8390 C.3   127  TYR127      0.0534
     86  CG         5.1330    5.3660   -5.0610 C.ar  127  TYR127     -0.0201
     87  CD1        3.8020    5.7630   -4.8830 C.ar  127  TYR127     -0.0009
     88  CD2        6.0550    6.3290   -5.4540 C.ar  127  TYR127     -0.0009
     89  CE1        3.4100    7.0730   -5.1050 C.ar  127  TYR127      0.0417
     90  CE2        5.6810    7.6420   -5.6520 C.ar  127  TYR127      0.0417
     91  CZ         4.3610    8.0170   -5.4700 C.ar  127  TYR127      0.1957
     92  OH         4.0030    9.3260   -5.6970 O.3   127  TYR127     -0.2866
     93  N         11.8770   11.8090    6.5480 N.3   152  TYR152     -0.1241
     94  CA        10.4350   11.8950    6.7810 C.3   152  TYR152      0.1605
     95  C         10.1040   12.0180    8.2720 C.2   152  TYR152      0.2264
     96  O         10.8350   11.5400    9.1430 O.2   152  TYR152     -0.2867
     97  CB         9.7290   10.6310    6.2560 C.3   152  TYR152      0.0534
     98  CG         9.3360   10.5630    4.7990 C.ar  152  TYR152     -0.0201
     99  CD1        9.7280   11.5250    3.8600 C.ar  152  TYR152     -0.0009
    100  CD2        8.5460    9.5110    4.3590 C.ar  152  TYR152     -0.0009
    101  CE1        9.3240   11.4310    2.5310 C.ar  152  TYR152      0.0417
    102  CE2        8.1520    9.4100    3.0450 C.ar  152  TYR152      0.0417
    103  CZ         8.5410   10.3670    2.1370 C.ar  152  TYR152      0.1957
    104  OH         8.1510   10.2410    0.8170 O.3   152  TYR152     -0.2866
    105  N          2.7510   10.6520    4.9540 N.3   157  PHE157     -0.1241
    106  CA         1.8460    9.8210    4.1520 C.3   157  PHE157      0.1605
    107  C          1.0120    8.8350    4.9750 C.2   157  PHE157      0.2264
    108  O          0.5930    7.7980    4.4700 O.2   157  PHE157     -0.2867
    109  CB         2.6020    9.0880    3.0260 C.3   157  PHE157      0.0534
    110  CG         3.0680    9.9890    1.9190 C.ar  157  PHE157     -0.0203
    111  CD1        2.1420   10.7210    1.1900 C.ar  157  PHE157     -0.0042
    112  CD2        4.4150   10.0750    1.5720 C.ar  157  PHE157     -0.0042
    113  CE1        2.5460   11.5350    0.1490 C.ar  157  PHE157     -0.0003
    114  CE2        4.8190   10.9000    0.5350 C.ar  157  PHE157     -0.0003
    115  CZ         3.8860   11.6310   -0.1630 C.ar  157  PHE157     -0.0000
@<TRIPOS>BOND
     1    45    43    1
     2    43    42    2
     3    43    44    1
     4    42    41    1
     5    38    37    2
     6    41    40    1
     7    40    39    1
     8    37    36    1
     9    39    36    1
    10    36    35    1
    11    34    33    1
    12    32    33   ar
    13    32    30   ar
    14    33    31   ar
    15    30    28   ar
    16    31    29   ar
    17    28    29   ar
    18    28    27    1
    19    27    24    1
    20    16    22    1
    21    16    15    1
    22    24    23    1
    23    24    25    1
    24    21    22    1
    25    21    18    1
    26    20    19    2
    27    14    13    2
    28    17    13   am
    29    17    18    1
    30    15    12    1
    31    13    12    1
    32    25    26    2
    33    18    19    1
    34    12    11    1
    35    11     9   am
    36    92    91    1
    37    90    91   ar
    38    90    88   ar
    39     9    10    2
    40     9     8    1
    41    91    89   ar
    42    88    86   ar
    43    89    87   ar
    44    86    87   ar
    45    86    85    1
    46    85    82    1
    47     8     7    1
    48     1     2    1
    49     7     3   am
    50     4     3    2
    51     3     2    1
    52     2     5    1
    53    70    68   ar
    54    82    83    1
    55    82    81    1
    56    65    64    2
    57    84    83    2
    58    68    69   ar
    59    68    67    1
    60    64    63    1
    61    66    67    1
    62    66    63    1
    63     5     6    1
    64    63    62    1
    65     6    51    1
    66    51    50    1
    67    79    77   ar
    68    79    80   ar
    69    71    72    1
    70    77    76   ar
    71   115   113   ar
    72   115   114   ar
    73    80    78   ar
    74    62    54   am
    75    49    48    2
    76   113   111   ar
    77    55    54    2
    78    50    47    1
    79   114   112   ar
    80    76    78   ar
    81    76    75    1
    82    54    53    1
    83    48    47    1
    84   104   103    1
    85    46    47    1
    86    61    59   ar
    87    61    60   ar
    88    59    57   ar
    89    72    75    1
    90    72    73    1
    91   111   110   ar
    92    74    73    2
    93   112   110   ar
    94   110   109    1
    95   103   101   ar
    96   103   102   ar
    97    60    58   ar
    98    53    52    1
    99    53    56    1
   100    57    56    1
   101    57    58   ar
   102   101    99   ar
   103   109   106    1
   104   102   100   ar
   105    99    98   ar
   106   106   105    1
   107   106   107    1
   108   100    98   ar
   109   108   107    2
   110    98    97    1
   111    97    94    1
   112    93    94    1
   113    94    95    1
   114    95    96    2
