@<TRIPOS>MOLECULE
tmp/6bsmA00.pdb
 131 133 0 0 0
SMALL
GASTEIGER

@<TRIPOS>ATOM
      1  N         16.4390  -20.5070  -18.8890 N.3    64  GLY64      -0.1210
      2  CA        17.2660  -19.6230  -19.7070 C.3    64  GLY64       0.1956
      3  C         16.4010  -18.9820  -20.7740 C.2    64  GLY64       0.2612
      4  O         15.3470  -18.3850  -20.4640 O.2    64  GLY64      -0.2717
      5  N         16.8260  -19.1340  -22.0280 N.am   65  CYS65      -0.1956
      6  CA        16.1590  -18.5010  -23.1570 C.3    65  CYS65       0.1843
      7  C         14.6560  -18.8720  -23.2410 C.2    65  CYS65       0.2626
      8  O         14.3140  -20.0290  -23.0220 O.2    65  CYS65      -0.2714
      9  CB        16.8770  -18.8690  -24.4570 C.3    65  CYS65       0.0997
     10  SG        16.1510  -18.0930  -25.9160 S.3    65  CYS65      -0.0797
     11  N         13.7390  -17.9320  -23.4960 N.am   66  CYS66      -0.1954
     12  CA        13.9380  -16.4720  -23.4760 C.3    66  CYS66       0.1843
     13  C         12.6270  -15.8320  -23.0640 C.2    66  CYS66       0.2626
     14  O         11.5530  -16.3600  -23.3770 O.2    66  CYS66      -0.2714
     15  CB        14.2760  -15.9200  -24.8610 C.3    66  CYS66       0.0997
     16  SG        15.9680  -16.0910  -25.4280 S.3    66  CYS66      -0.0797
     17  N         12.7100  -14.6880  -22.3930 N.am   67  SER67      -0.1936
     18  CA        11.5310  -13.8760  -22.1340 C.3    67  SER67       0.2055
     19  C         11.6790  -12.5480  -22.8730 C.2    67  SER67       0.2643
     20  O         12.6510  -11.8280  -22.7040 O.2    67  SER67      -0.2714
     21  CB        11.3080  -13.6790  -20.6340 C.3    67  SER67       0.2130
     22  OG        11.0370  -14.9220  -19.9960 O.3    67  SER67      -0.2179
     23  N         10.7200  -12.2590  -23.7360 N.am   68  TYR68      -0.1959
     24  CA        10.7450  -11.0510  -24.5370 C.3    68  TYR68       0.1771
     25  C         10.7000   -9.8290  -23.5970 C.2    68  TYR68       0.2619
     26  O          9.9830   -9.8450  -22.5740 O.2    68  TYR68      -0.2715
     27  CB         9.5510  -11.0300  -25.5040 C.3    68  TYR68       0.0574
     28  CG         9.7210  -10.0570  -26.6410 C.ar   68  TYR68      -0.0198
     29  CD1        9.3530   -8.7230  -26.4900 C.ar   68  TYR68      -0.0009
     30  CD2       10.2670  -10.4600  -27.8610 C.ar   68  TYR68      -0.0009
     31  CE1        9.5050   -7.8190  -27.5210 C.ar   68  TYR68       0.0417
     32  CE2       10.4200   -9.5580  -28.9020 C.ar   68  TYR68       0.0417
     33  CZ        10.0360   -8.2430  -28.7300 C.ar   68  TYR68       0.1957
     34  OH        10.1840   -7.3310  -29.7380 O.3    68  TYR68      -0.2866
     35  N         11.4760   -8.8000  -23.9400 N.am   69  VAL69      -0.1977
     36  CA        11.6310   -7.6250  -23.0900 C.3    69  VAL69       0.1596
     37  C         10.6930   -6.5400  -23.5760 C.2    69  VAL69       0.2287
     38  O         10.8120   -6.0670  -24.6960 O.2    69  VAL69      -0.2864
     39  CB        13.0920   -7.1320  -23.0490 C.3    69  VAL69       0.0276
     40  CG1       13.2080   -5.7650  -22.3640 C.3    69  VAL69       0.0022
     41  CG2       13.9600   -8.1630  -22.3250 C.3    69  VAL69       0.0022
     42  N          6.2520  -14.6510  -25.2910 N.3    78  ALA78      -0.1245
     43  CA         6.5550  -15.6470  -24.2820 C.3    78  ALA78       0.1562
     44  C          7.1950  -15.0280  -23.0480 C.2    78  ALA78       0.2260
     45  O          8.0570  -14.1370  -23.1440 O.2    78  ALA78      -0.2867
     46  CB         7.4770  -16.6890  -24.8520 C.3    78  ALA78       0.0290
     47  N         11.5270  -11.3280  -11.4910 N.3    93  HIS93      -0.1226
     48  CA        12.6130  -10.9180  -12.3960 C.3    93  HIS93       0.1752
     49  C         12.1740  -11.0460  -13.8410 C.2    93  HIS93       0.2595
     50  O         12.3600  -10.1170  -14.6470 O.2    93  HIS93      -0.2718
     51  CB        13.8480  -11.7860  -12.1160 C.3    93  HIS93       0.0759
     52  CG        14.9100  -11.7300  -13.1680 C.ar   93  HIS93       0.0818
     53  ND1       16.1390  -11.1330  -12.9570 N.ar   93  HIS93      -0.2268
     54  CD2       14.9500  -12.2580  -14.4140 C.ar   93  HIS93       0.1154
     55  CE1       16.8720  -11.2770  -14.0480 C.ar   93  HIS93       0.1986
     56  NE2       16.1770  -11.9620  -14.9420 N.ar   93  HIS93      -0.2212
     57  N         11.5700  -12.1890  -14.1580 N.am   94  GLU94      -0.1979
     58  CA        11.0880  -12.4390  -15.5090 C.3    94  GLU94       0.1602
     59  C         10.0100  -11.4350  -15.9620 C.2    94  GLU94       0.2287
     60  O          9.9900  -11.0110  -17.1350 O.2    94  GLU94      -0.2864
     61  CB        10.5540  -13.8670  -15.6500 C.3    94  GLU94       0.0415
     62  CG        11.6190  -14.9270  -15.4480 C.3    94  GLU94       0.1163
     63  CD        12.4280  -15.2730  -16.6930 C.2    94  GLU94       0.3649
     64  OE1       12.2480  -14.6480  -17.7640 O.co2  94  GLU94      -0.2457
     65  OE2       13.2620  -16.2000  -16.5960 O.co2  94  GLU94      -0.2457
     66  N         11.4650   -8.2830  -17.1920 N.3    97  HIS97      -0.1241
     67  CA        11.6830   -8.3250  -18.6300 C.3    97  HIS97       0.1621
     68  C         10.3920   -7.9570  -19.3650 C.2    97  HIS97       0.2264
     69  O         10.3780   -7.0930  -20.2590 O.2    97  HIS97      -0.2867
     70  CB        12.1720   -9.7140  -19.0810 C.3    97  HIS97       0.0745
     71  CG        13.5660  -10.0590  -18.6370 C.ar   97  HIS97       0.0817
     72  ND1       14.6380   -9.2130  -18.8130 N.ar   97  HIS97      -0.2268
     73  CD2       14.0690  -11.1840  -18.0680 C.ar   97  HIS97       0.1154
     74  CE1       15.7340   -9.7920  -18.3490 C.ar   97  HIS97       0.1986
     75  NE2       15.4170  -10.9920  -17.9000 N.ar   97  HIS97      -0.2212
     76  N         15.9260   -4.8130  -19.2460 N.3   102  TRP102     -0.1227
     77  CA        17.0310   -5.7370  -19.4990 C.3   102  TRP102      0.1737
     78  C         17.7820   -5.9340  -18.1830 C.2   102  TRP102      0.2595
     79  O         17.4410   -5.3250  -17.1640 O.2   102  TRP102     -0.2718
     80  CB        17.9760   -5.1690  -20.5910 C.3   102  TRP102      0.0564
     81  CG        17.2680   -4.8270  -21.8610 C.ar  102  TRP102      0.0003
     82  CD1       16.7060   -3.6450  -22.1800 C.ar  102  TRP102      0.0946
     83  CD2       17.0310   -5.7020  -22.9710 C.ar  102  TRP102      0.0152
     84  NE1       16.1340   -3.7060  -23.4250 N.ar  102  TRP102     -0.2442
     85  CE2       16.3190   -4.9630  -23.9360 C.ar  102  TRP102      0.0810
     86  CE3       17.3620   -7.0390  -23.2510 C.ar  102  TRP102      0.0012
     87  CZ2       15.9180   -5.5150  -25.1580 C.ar  102  TRP102      0.0191
     88  CZ3       16.9560   -7.5890  -24.4620 C.ar  102  TRP102      0.0001
     89  CH2       16.2390   -6.8290  -25.3970 C.ar  102  TRP102      0.0015
     90  N         18.8270   -6.7490  -18.2010 N.am  103  HIS103     -0.1975
     91  CA        19.5940   -7.0120  -17.0000 C.3   103  HIS103      0.1656
     92  C         20.3730   -5.7680  -16.5650 C.2   103  HIS103      0.2291
     93  O         20.9720   -5.0690  -17.3860 O.2   103  HIS103     -0.2864
     94  CB        20.5300   -8.1980  -17.2160 C.3   103  HIS103      0.0771
     95  CG        19.8150   -9.5090  -17.3290 C.ar  103  HIS103      0.0820
     96  ND1       20.1410  -10.4530  -18.2730 N.ar  103  HIS103     -0.2267
     97  CD2       18.7770  -10.0240  -16.6190 C.ar  103  HIS103      0.1154
     98  CE1       19.3430  -11.5010  -18.1350 C.ar  103  HIS103      0.1986
     99  NE2       18.5050  -11.2650  -17.1380 N.ar  103  HIS103     -0.2212
    100  N         28.1410  -13.8170  -24.1970 N.3   127  TYR127     -0.1227
    101  CA        27.1450  -12.8800  -24.7590 C.3   127  TYR127      0.1736
    102  C         26.1590  -12.3130  -23.7030 C.2   127  TYR127      0.2595
    103  O         25.5930  -11.2240  -23.8920 O.2   127  TYR127     -0.2718
    104  CB        26.3850  -13.5400  -25.9300 C.3   127  TYR127      0.0548
    105  CG        25.4130  -14.5960  -25.4850 C.ar  127  TYR127     -0.0200
    106  CD1       24.0980  -14.2540  -25.1700 C.ar  127  TYR127     -0.0009
    107  CD2       25.8010  -15.9310  -25.3430 C.ar  127  TYR127     -0.0009
    108  CE1       23.1940  -15.2060  -24.7380 C.ar  127  TYR127      0.0417
    109  CE2       24.8970  -16.8950  -24.9080 C.ar  127  TYR127      0.0417
    110  CZ        23.5940  -16.5200  -24.6110 C.ar  127  TYR127      0.1957
    111  OH        22.6780  -17.4350  -24.1730 O.3   127  TYR127     -0.2866
    112  N         25.9730  -13.0540  -22.6020 N.am  128  ASN128     -0.1974
    113  CA        25.1600  -12.6060  -21.4630 C.3   128  ASN128      0.1688
    114  C         25.7740  -11.4230  -20.6890 C.2   128  ASN128      0.2292
    115  O         25.1410  -10.8700  -19.7900 O.2   128  ASN128     -0.2864
    116  CB        24.9160  -13.7690  -20.4740 C.3   128  ASN128      0.1181
    117  CG        24.1160  -14.9140  -21.0860 C.2   128  ASN128      0.2629
    118  OD1       22.9790  -14.7250  -21.4890 O.2   128  ASN128     -0.2716
    119  ND2       24.7070  -16.1080  -21.1420 N.am  128  ASN128     -0.0877
    120  N         22.4090   -9.6010  -11.9320 N.3   152  TYR152     -0.1241
    121  CA        23.0230  -10.9310  -11.7690 C.3   152  TYR152      0.1605
    122  C         23.6980  -11.0800  -10.4100 C.2   152  TYR152      0.2264
    123  O         24.0350  -10.0960   -9.7570 O.2   152  TYR152     -0.2867
    124  CB        24.0580  -11.2180  -12.8760 C.3   152  TYR152      0.0534
    125  CG        23.5560  -11.7820  -14.1950 C.ar  152  TYR152     -0.0201
    126  CD1       22.1980  -11.9050  -14.4960 C.ar  152  TYR152     -0.0009
    127  CD2       24.4700  -12.1790  -15.1660 C.ar  152  TYR152     -0.0009
    128  CE1       21.7780  -12.4260  -15.7170 C.ar  152  TYR152      0.0417
    129  CE2       24.0650  -12.6940  -16.3840 C.ar  152  TYR152      0.0417
    130  CZ        22.7220  -12.8200  -16.6650 C.ar  152  TYR152      0.1957
    131  OH        22.3230  -13.3400  -17.8900 O.3   152  TYR152     -0.2866
@<TRIPOS>BOND
     1    34    33    1
     2    32    33   ar
     3    32    30   ar
     4    33    31   ar
     5    30    28   ar
     6    31    29   ar
     7    28    29   ar
     8    28    27    1
     9   104   105    1
    10   104   101    1
    11    10    16    1
    12    10     9    1
    13    27    24    1
    14   105   107   ar
    15   105   106   ar
    16    16    15    1
    17    89    87   ar
    18    89    88   ar
    19   107   109   ar
    20    42    43    1
    21   106   108   ar
    22    87    85   ar
    23   109   110   ar
    24    15    12    1
    25    46    43    1
    26   101   100    1
    27   101   102    1
    28   108   110   ar
    29    38    37    2
    30   110   111    1
    31    24    23    1
    32    24    25    1
    33    88    86   ar
    34     9     6    1
    35    43    44    1
    36    35    25   am
    37    35    36    1
    38    85    84   ar
    39    85    83   ar
    40   103   102    2
    41    23    19   am
    42   102   112   am
    43    25    26    2
    44    37    36    1
    45    11    12    1
    46    11     7   am
    47    12    13    1
    48    84    82   ar
    49    14    13    2
    50    86    83   ar
    51     7     6    1
    52     7     8    2
    53     6     5    1
    54    45    44    2
    55    36    39    1
    56    13    17   am
    57    39    40    1
    58    39    41    1
    59    83    81   ar
    60    19    20    2
    61    19    18    1
    62   112   113    1
    63    17    18    1
    64    82    81   ar
    65    18    21    1
    66     5     3   am
    67    81    80    1
    68   118   117    2
    69   113   114    1
    70   113   116    1
    71   119   117   am
    72   117   116    1
    73     3     4    2
    74     3     2    1
    75   114   115    2
    76    21    22    1
    77    80    77    1
    78    69    68    2
    79     2     1    1
    80    77    76    1
    81    77    78    1
    82    68    67    1
    83    70    71    1
    84    70    67    1
    85    72    71   ar
    86    72    74   ar
    87    71    73   ar
    88    67    66    1
    89    74    75   ar
    90    96    98   ar
    91    96    95   ar
    92    90    78   am
    93    90    91    1
    94    78    79    2
    95    98    99   ar
    96    73    75   ar
    97   131   130    1
    98    64    63   ar
    99    93    92    2
   100    95    94    1
   101    95    97   ar
   102    94    91    1
   103    99    97   ar
   104    60    59    2
   105    91    92    1
   106    63    65   ar
   107    63    62    1
   108   130   129   ar
   109   130   128   ar
   110   129   127   ar
   111    59    58    1
   112   128   126   ar
   113    61    58    1
   114    61    62    1
   115    58    57    1
   116   127   125   ar
   117    56    54   ar
   118    56    55   ar
   119    50    49    2
   120   126   125   ar
   121    54    52   ar
   122   125   124    1
   123    57    49   am
   124    55    53   ar
   125    49    48    1
   126    52    53   ar
   127    52    51    1
   128   124   121    1
   129    48    51    1
   130    48    47    1
   131   120   121    1
   132   121   122    1
   133   122   123    2
