@<TRIPOS>MOLECULE
tmp/6bsnB05.pdb
 98 94 0 0 0
SMALL
GASTEIGER

@<TRIPOS>ATOM
      1  N        -17.5560   24.2490  -65.1190 N.3   641  PRO641     -0.2102
      2  CA       -18.2720   25.4100  -65.6530 C.3   641  PRO641      0.1504
      3  C        -17.9610   25.6560  -67.1250 C.2   641  PRO641      0.2576
      4  O        -17.0360   25.0840  -67.7010 O.2   641  PRO641     -0.2718
      5  CB       -17.7410   26.5660  -64.7900 C.3   641  PRO641      0.0282
      6  CG       -16.3450   26.1170  -64.3390 C.3   641  PRO641      0.0208
      7  CD       -16.2340   24.6160  -64.5770 C.3   641  PRO641      0.0893
      8  N        -18.7280   26.5760  -67.7120 N.am  642  TRP642     -0.1963
      9  CA       -18.5030   26.9470  -69.1040 C.3   642  TRP642      0.1771
     10  C        -17.3900   27.9850  -69.2700 C.2   642  TRP642      0.2619
     11  O        -16.8960   28.1620  -70.3890 O.2   642  TRP642     -0.2715
     12  CB       -19.8090   27.4680  -69.7420 C.3   642  TRP642      0.0590
     13  CG       -20.5200   28.5500  -68.9520 C.ar  642  TRP642      0.0006
     14  CD1      -21.6190   28.3960  -68.1550 C.ar  642  TRP642      0.0946
     15  CD2      -20.1810   29.9500  -68.8970 C.ar  642  TRP642      0.0152
     16  NE1      -21.9840   29.6090  -67.6060 N.ar  642  TRP642     -0.2442
     17  CE2      -21.1180   30.5750  -68.0410 C.ar  642  TRP642      0.0810
     18  CE3      -19.1730   30.7300  -69.4780 C.ar  642  TRP642      0.0012
     19  CZ2      -21.0710   31.9440  -67.7450 C.ar  642  TRP642      0.0191
     20  CZ3      -19.1230   32.0960  -69.1830 C.ar  642  TRP642      0.0001
     21  CH2      -20.0740   32.6870  -68.3280 C.ar  642  TRP642      0.0015
     22  N        -16.9720   28.6620  -68.1960 N.am  643  ASN643     -0.1972
     23  CA       -16.0580   29.7990  -68.3380 C.3   643  ASN643      0.1688
     24  C        -14.5830   29.4100  -68.3530 C.2   643  ASN643      0.2292
     25  O        -13.7470   30.2340  -68.7430 O.2   643  ASN643     -0.2864
     26  CB       -16.2970   30.8330  -67.2300 C.3   643  ASN643      0.1181
     27  CG       -16.7400   30.1950  -65.9270 C.2   643  ASN643      0.2629
     28  OD1      -15.9260   29.9430  -65.0460 O.2   643  ASN643     -0.2716
     29  ND2      -18.0480   29.9290  -65.8060 N.am  643  ASN643     -0.0877
     30  N        -17.4400   23.1390  -59.6440 N.3   717  THR717     -0.1203
     31  CA       -17.1290   24.5560  -59.7740 C.3   717  THR717      0.1994
     32  C        -18.2920   25.2260  -60.4890 C.2   717  THR717      0.2618
     33  O        -18.6000   24.8800  -61.6320 O.2   717  THR717     -0.2717
     34  CB       -15.8110   24.7780  -60.5240 C.3   717  THR717      0.1784
     35  OG1      -14.7360   24.1680  -59.7970 O.3   717  THR717     -0.2211
     36  CG2      -15.5170   26.2850  -60.6840 C.3   717  THR717      0.0376
     37  N        -18.9420   26.1700  -59.8130 N.am  718  GLY718     -0.1942
     38  CA       -20.1200   26.8120  -60.3540 C.3   718  GLY718      0.2014
     39  C        -20.7900   27.7280  -59.3540 C.2   718  GLY718      0.2639
     40  O        -20.1140   28.3880  -58.5610 O.2   718  GLY718     -0.2714
     41  N        -22.1110   27.7660  -59.3550 N.am  719  SER719     -0.1949
     42  CA       -22.8280   28.7400  -58.5480 C.3   719  SER719      0.1924
     43  C        -23.0360   28.2320  -57.1310 C.2   719  SER719      0.2314
     44  O        -23.1000   27.0250  -56.8840 O.2   719  SER719     -0.2863
     45  CB       -24.1830   29.0710  -59.1760 C.3   719  SER719      0.2116
     46  OG       -25.0860   27.9890  -59.0050 O.3   719  SER719     -0.2180
     47  N        -17.1430   28.4540  -55.6320 N.3   744  THR744     -0.1203
     48  CA       -18.4360   29.0340  -55.9790 C.3   744  THR744      0.1994
     49  C        -18.3830   30.5540  -56.1550 C.2   744  THR744      0.2618
     50  O        -19.3510   31.2450  -55.8430 O.2   744  THR744     -0.2717
     51  CB       -19.4890   28.6520  -54.9390 C.3   744  THR744      0.1784
     52  OG1      -18.9500   28.8270  -53.6210 O.3   744  THR744     -0.2211
     53  CG2      -19.9000   27.1990  -55.1230 C.3   744  THR744      0.0376
     54  N        -17.2780   31.0920  -56.6730 N.am  745  GLY745     -0.1956
     55  CA       -17.2640   32.4990  -57.0520 C.3   745  GLY745      0.1869
     56  C        -17.0200   33.4510  -55.8910 C.2   745  GLY745      0.2309
     57  O        -16.5550   33.0640  -54.7970 O.2   745  GLY745     -0.2863
     58  N        -14.4480   33.7540  -62.0660 N.3   777  ALA777     -0.1245
     59  CA       -14.8230   33.7400  -60.6580 C.3   777  ALA777      0.1562
     60  C        -13.9840   34.7260  -59.8640 C.2   777  ALA777      0.2260
     61  O        -14.4420   35.2570  -58.8470 O.2   777  ALA777     -0.2867
     62  CB       -14.6570   32.3270  -60.0780 C.3   777  ALA777      0.0290
     63  N        -27.3270   34.4610  -70.2820 N.3   824  ALA824     -0.1245
     64  CA       -26.3890   35.2140  -69.4710 C.3   824  ALA824      0.1562
     65  C        -26.5150   36.7070  -69.7720 C.2   824  ALA824      0.2260
     66  O        -26.6410   37.5250  -68.8530 O.2   824  ALA824     -0.2867
     67  CB       -24.9670   34.6920  -69.6940 C.3   824  ALA824      0.0290
     68  N        -29.4680   38.2070  -68.0510 N.3   827  ARG827     -0.1245
     69  CA       -29.2380   38.4260  -66.6300 C.3   827  ARG827      0.1563
     70  C        -28.3990   39.6780  -66.4030 C.2   827  ARG827      0.2260
     71  O        -28.6800   40.4700  -65.4960 O.2   827  ARG827     -0.2867
     72  CB       -28.5720   37.1910  -66.0240 C.3   827  ARG827      0.0307
     73  CG       -28.6850   37.0990  -64.5090 C.3   827  ARG827      0.0489
     74  CD       -28.4600   35.6640  -63.9950 C.3   827  ARG827      0.2205
     75  NE       -29.3380   34.6780  -64.6380 N.pl3 827  ARG827     -0.0865
     76  CZ       -28.9350   33.7320  -65.4860 C.cat 827  ARG827      0.5346
     77  NH1      -29.8260   32.8980  -66.0070 N.pl3 827  ARG827      0.1354
     78  NH2      -27.6490   33.6240  -65.8160 N.pl3 827  ARG827      0.1354
     79  N        -23.0510   38.2410  -56.9360 N.3   869  GLU869     -0.1245
     80  CA       -22.0400   38.0740  -57.9580 C.3   869  GLU869      0.1567
     81  C        -22.7120   38.2480  -59.3140 C.2   869  GLU869      0.2260
     82  O        -23.6590   37.5270  -59.6390 O.2   869  GLU869     -0.2867
     83  CB       -21.3920   36.6980  -57.8410 C.3   869  GLU869      0.0388
     84  CG       -20.3980   36.4120  -58.9530 C.3   869  GLU869      0.1160
     85  CD       -19.9450   34.9620  -58.9770 C.2   869  GLU869      0.3649
     86  OE1      -18.7160   34.7370  -58.8580 O.co2 869  GLU869     -0.2457
     87  OE2      -20.8190   34.0580  -59.0910 O.co2 869  GLU869     -0.2457
     88  N        -21.9440   38.0780  -63.1840 N.3   871  PHE871     -0.1241
     89  CA       -20.8610   37.3790  -63.8860 C.3   871  PHE871      0.1605
     90  C        -20.6730   37.9820  -65.2790 C.2   871  PHE871      0.2264
     91  O        -20.9420   37.3570  -66.3050 O.2   871  PHE871     -0.2867
     92  CB       -21.1630   35.8800  -63.9450 C.3   871  PHE871      0.0534
     93  CG       -19.9410   34.9890  -63.9120 C.ar  871  PHE871     -0.0203
     94  CD1      -19.2380   34.7970  -62.7370 C.ar  871  PHE871     -0.0042
     95  CD2      -19.5390   34.2970  -65.0430 C.ar  871  PHE871     -0.0042
     96  CE1      -18.1260   33.9560  -62.6960 C.ar  871  PHE871     -0.0003
     97  CE2      -18.4360   33.4540  -65.0220 C.ar  871  PHE871     -0.0003
     98  CZ       -17.7270   33.2750  -63.8360 C.ar  871  PHE871     -0.0000
@<TRIPOS>BOND
     1    11    10    2
     2    63    64    1
     3    65    64    1
     4    65    66    2
     5    12     9    1
     6    12    13    1
     7    67    64    1
     8    18    20   ar
     9    18    15   ar
    10    10     9    1
    11    10    22   am
    12    20    21   ar
    13     9     8    1
    14    13    15   ar
    15    13    14   ar
    16    15    17   ar
    17    25    24    2
    18    24    23    1
    19    23    22    1
    20    23    26    1
    21    21    19   ar
    22    14    16   ar
    23    68    69    1
    24    17    19   ar
    25    17    16   ar
    26     8     3   am
    27     4     3    2
    28    26    27    1
    29     3     2    1
    30    69    70    1
    31    69    72    1
    32    70    71    2
    33    91    90    2
    34    72    73    1
    35    77    76    1
    36    27    29   am
    37    27    28    2
    38    78    76    1
    39     2     1    1
    40     2     5    1
    41    76    75    2
    42    90    89    1
    43     1     7    1
    44    95    97   ar
    45    95    93   ar
    46    97    98   ar
    47     5     6    1
    48    75    74    1
    49     7     6    1
    50    73    74    1
    51    92    93    1
    52    92    89    1
    53    93    94   ar
    54    89    88    1
    55    98    96   ar
    56    94    96   ar
    57    58    59    1
    58    33    32    2
    59    36    34    1
    60    59    62    1
    61    59    60    1
    62    34    35    1
    63    34    31    1
    64    32    37   am
    65    32    31    1
    66    38    37    1
    67    38    39    1
    68    60    61    2
    69    31    30    1
    70    82    81    2
    71    41    39   am
    72    41    42    1
    73    39    40    2
    74    81    80    1
    75    45    46    1
    76    45    42    1
    77    87    85   ar
    78    85    84    1
    79    85    86   ar
    80    84    83    1
    81    42    43    1
    82    80    83    1
    83    80    79    1
    84    43    44    2
    85    55    54    1
    86    55    56    1
    87    54    49   am
    88    49    48    1
    89    49    50    2
    90    48    47    1
    91    48    51    1
    92    56    57    2
    93    53    51    1
    94    51    52    1
