@<TRIPOS>MOLECULE
tmp/6bsnB02.pdb
 110 105 0 0 0
SMALL
GASTEIGER

@<TRIPOS>ATOM
      1  N         -2.7480   26.7250  -68.8590 N.3   596  GLU596     -0.1245
      2  CA        -3.1960   26.3380  -67.5220 C.3   596  GLU596      0.1567
      3  C         -3.6120   24.8610  -67.4740 C.2   596  GLU596      0.2260
      4  O         -3.3460   24.1590  -66.4850 O.2   596  GLU596     -0.2867
      5  CB        -4.3510   27.2670  -67.0960 C.3   596  GLU596      0.0388
      6  CG        -4.8370   27.1180  -65.6500 C.3   596  GLU596      0.1160
      7  CD        -6.0150   28.0280  -65.3450 C.2   596  GLU596      0.3649
      8  OE1       -5.9480   29.2090  -65.7200 O.co2 596  GLU596     -0.2457
      9  OE2       -7.0210   27.5680  -64.7670 O.co2 596  GLU596     -0.2457
     10  N         -1.9900   22.1970  -65.0400 N.3   600  PHE600     -0.1241
     11  CA        -2.7090   21.3220  -64.1120 C.3   600  PHE600      0.1605
     12  C         -2.2130   19.8760  -64.2340 C.2   600  PHE600      0.2264
     13  O         -1.9450   19.2060  -63.2310 O.2   600  PHE600     -0.2867
     14  CB        -4.2200   21.3890  -64.3750 C.3   600  PHE600      0.0534
     15  CG        -4.9430   22.4980  -63.6460 C.ar  600  PHE600     -0.0203
     16  CD1       -5.6960   23.4320  -64.3570 C.ar  600  PHE600     -0.0042
     17  CD2       -4.8800   22.6110  -62.2680 C.ar  600  PHE600     -0.0042
     18  CE1       -6.3710   24.4670  -63.6970 C.ar  600  PHE600     -0.0003
     19  CE2       -5.5610   23.6300  -61.5980 C.ar  600  PHE600     -0.0003
     20  CZ        -6.2900   24.5650  -62.3100 C.ar  600  PHE600     -0.0000
     21  N        -14.2370   28.2140  -67.8880 N.3   644  PHE644     -0.1241
     22  CA       -12.9300   27.6050  -68.1420 C.3   644  PHE644      0.1605
     23  C        -13.2090   26.1720  -68.5610 C.2   644  PHE644      0.2264
     24  O        -12.9850   25.2190  -67.8020 O.2   644  PHE644     -0.2867
     25  CB       -12.0070   27.7030  -66.9250 C.3   644  PHE644      0.0534
     26  CG       -11.4450   29.0820  -66.7230 C.ar  644  PHE644     -0.0203
     27  CD1      -10.2810   29.4660  -67.3670 C.ar  644  PHE644     -0.0042
     28  CD2      -12.1150   30.0150  -65.9510 C.ar  644  PHE644     -0.0042
     29  CE1       -9.7720   30.7440  -67.2160 C.ar  644  PHE644     -0.0003
     30  CE2      -11.6200   31.2940  -65.8000 C.ar  644  PHE644     -0.0003
     31  CZ       -10.4330   31.6580  -66.4320 C.ar  644  PHE644     -0.0000
     32  N        -10.4070   24.0920  -66.1160 N.3   648  ILE648     -0.1245
     33  CA       -11.0230   23.6500  -64.8750 C.3   648  ILE648      0.1561
     34  C        -11.6380   22.2690  -65.0580 C.2   648  ILE648      0.2260
     35  O        -11.6150   21.4430  -64.1350 O.2   648  ILE648     -0.2867
     36  CB       -12.0420   24.6860  -64.3840 C.3   648  ILE648      0.0252
     37  CG1      -11.2850   25.9140  -63.8610 C.3   648  ILE648      0.0019
     38  CG2      -12.9150   24.0900  -63.2780 C.3   648  ILE648      0.0019
     39  CD1      -12.1710   26.9610  -63.2640 C.3   648  ILE648      0.0001
     40  N        -15.9190   25.2630  -55.5800 N.3   743  GLU743     -0.1245
     41  CA       -15.4970   26.6530  -55.7440 C.3   743  GLU743      0.1567
     42  C        -16.6820   27.4080  -56.3320 C.2   743  GLU743      0.2260
     43  O        -17.1840   27.0420  -57.4040 O.2   743  GLU743     -0.2867
     44  CB       -14.2600   26.7660  -56.6480 C.3   743  GLU743      0.0388
     45  CG       -13.6920   28.2120  -56.8140 C.3   743  GLU743      0.1160
     46  CD       -14.1810   28.9220  -58.0790 C.2   743  GLU743      0.3649
     47  OE1      -13.4980   28.8190  -59.1240 O.co2 743  GLU743     -0.2457
     48  OE2      -15.2460   29.5920  -58.0370 O.co2 743  GLU743     -0.2457
     49  N        -15.2050   35.4730  -65.0670 N.3   776  ARG776     -0.1231
     50  CA       -14.2000   34.8030  -64.2460 C.3   776  ARG776      0.1694
     51  C        -14.6410   34.8540  -62.7920 C.2   776  ARG776      0.2592
     52  O        -15.1690   35.8700  -62.3370 O.2   776  ARG776     -0.2718
     53  CB       -12.8200   35.4640  -64.3720 C.3   776  ARG776      0.0321
     54  CG       -12.1450   35.3020  -65.7090 C.3   776  ARG776      0.0489
     55  CD       -10.8480   36.0970  -65.7130 C.3   776  ARG776      0.2205
     56  NE       -10.0960   35.9660  -66.9560 N.pl3 776  ARG776     -0.0865
     57  CZ        -8.9830   35.2490  -67.0810 C.cat 776  ARG776      0.5346
     58  NH1       -8.4880   34.5990  -66.0330 N.pl3 776  ARG776      0.1354
     59  NH2       -8.3710   35.1830  -68.2530 N.pl3 776  ARG776      0.1354
     60  N        -14.4480   33.7540  -62.0660 N.am  777  ALA777     -0.1966
     61  CA       -14.8230   33.7400  -60.6580 C.3   777  ALA777      0.1728
     62  C        -13.9840   34.7260  -59.8640 C.2   777  ALA777      0.2616
     63  O        -14.4420   35.2570  -58.8470 O.2   777  ALA777     -0.2715
     64  CB       -14.6570   32.3270  -60.0780 C.3   777  ALA777      0.0334
     65  N        -12.7640   34.9860  -60.3290 N.am  778  SER778     -0.1950
     66  CA       -11.7830   35.8630  -59.6990 C.3   778  SER778      0.1924
     67  C        -11.9790   37.3490  -60.0040 C.2   778  SER778      0.2314
     68  O        -11.2610   38.1770  -59.4280 O.2   778  SER778     -0.2863
     69  CB       -10.3960   35.4640  -60.1820 C.3   778  SER778      0.2116
     70  OG       -10.3650   35.5410  -61.6080 O.3   778  SER778     -0.2180
     71  N         -4.0410   39.7170  -53.8470 N.3   924  TYR924     -0.1241
     72  CA        -3.1330   40.1970  -54.8860 C.3   924  TYR924      0.1605
     73  C         -2.7800   41.6450  -54.5770 C.2   924  TYR924      0.2264
     74  O         -3.6740   42.4970  -54.5140 O.2   924  TYR924     -0.2867
     75  CB        -3.7970   40.1120  -56.2600 C.3   924  TYR924      0.0534
     76  CG        -3.9910   38.7170  -56.8040 C.ar  924  TYR924     -0.0201
     77  CD1       -5.2300   38.0830  -56.7310 C.ar  924  TYR924     -0.0009
     78  CD2       -2.9330   38.0370  -57.4250 C.ar  924  TYR924     -0.0009
     79  CE1       -5.4080   36.8070  -57.2400 C.ar  924  TYR924      0.0417
     80  CE2       -3.1060   36.7670  -57.9360 C.ar  924  TYR924      0.0417
     81  CZ        -4.3490   36.1530  -57.8420 C.ar  924  TYR924      0.1957
     82  OH        -4.5350   34.8820  -58.3620 O.3   924  TYR924     -0.2866
     83  N         -6.4640   38.3500  -61.4380 N.3   930  ILE930     -0.1231
     84  CA        -6.9470   37.2540  -62.2630 C.3   930  ILE930      0.1692
     85  C         -5.7620   36.4380  -62.7830 C.2   930  ILE930      0.2593
     86  O         -4.6010   36.8100  -62.6280 O.2   930  ILE930     -0.2718
     87  CB        -7.7990   37.7560  -63.4420 C.3   930  ILE930      0.0266
     88  CG1       -6.9360   38.6150  -64.3700 C.3   930  ILE930      0.0019
     89  CG2       -9.0430   38.4960  -62.9550 C.3   930  ILE930      0.0020
     90  CD1       -7.6300   38.8890  -65.6640 C.3   930  ILE930      0.0001
     91  N         -6.0800   35.3250  -63.4360 N.am  931  GLY931     -0.1942
     92  CA        -5.0460   34.5070  -64.0540 C.3   931  GLY931      0.2014
     93  C         -4.1180   33.8130  -63.0770 C.2   931  GLY931      0.2638
     94  O         -2.9000   33.8140  -63.2810 O.2   931  GLY931     -0.2714
     95  N         -4.6570   33.2450  -62.0040 N.am  932  ALA932     -0.1977
     96  CA        -3.8300   32.4750  -61.0870 C.3   932  ALA932      0.1597
     97  C         -3.0770   31.3790  -61.8460 C.2   932  ALA932      0.2287
     98  O         -3.6270   30.7230  -62.7360 O.2   932  ALA932     -0.2864
     99  CB        -4.7080   31.8850  -59.9830 C.3   932  ALA932      0.0319
    100  N         -5.3110   28.4470  -55.9240 N.3   939  PHE939     -0.1241
    101  CA        -6.5080   29.2570  -56.1030 C.3   939  PHE939      0.1605
    102  C         -7.6980   28.6870  -55.3480 C.2   939  PHE939      0.2264
    103  O         -8.0540   27.5200  -55.5380 O.2   939  PHE939     -0.2867
    104  CB        -6.8850   29.3720  -57.5790 C.3   939  PHE939      0.0534
    105  CG        -8.0710   30.2810  -57.8110 C.ar  939  PHE939     -0.0203
    106  CD1       -7.8950   31.6660  -57.8620 C.ar  939  PHE939     -0.0042
    107  CD2       -9.3620   29.7600  -57.9400 C.ar  939  PHE939     -0.0042
    108  CE1       -8.9800   32.5260  -58.0510 C.ar  939  PHE939     -0.0003
    109  CE2      -10.4520   30.6170  -58.1320 C.ar  939  PHE939     -0.0003
    110  CZ       -10.2470   32.0090  -58.1860 C.ar  939  PHE939     -0.0000
@<TRIPOS>BOND
     1     1     2    1
     2    23    22    1
     3    23    24    2
     4    59    57    1
     5    22    21    1
     6    22    25    1
     7     2     3    1
     8     2     5    1
     9     3     4    2
    10    27    29   ar
    11    27    26   ar
    12    29    31   ar
    13     5     6    1
    14    57    56    2
    15    57    58    1
    16    56    55    1
    17    25    26    1
    18    26    28   ar
    19    31    30   ar
    20    32    33    1
    21    28    30   ar
    22     8     7   ar
    23    55    54    1
    24    54    53    1
    25    90    88    1
    26     6     7    1
    27     7     9   ar
    28    49    50    1
    29    34    33    1
    30    34    35    2
    31    10    11    1
    32    33    36    1
    33    36    37    1
    34    36    38    1
    35    14    11    1
    36    14    15    1
    37    53    50    1
    38    88    87    1
    39    16    18   ar
    40    16    15   ar
    41    50    51    1
    42    12    11    1
    43    12    13    2
    44    92    91    1
    45    92    93    1
    46    37    39    1
    47    18    20   ar
    48    15    17   ar
    49    87    89    1
    50    87    84    1
    51    91    85   am
    52    94    93    2
    53    93    95   am
    54    51    52    2
    55    51    60   am
    56    85    86    2
    57    85    84    1
    58    98    97    2
    59    20    19   ar
    60    17    19   ar
    61    84    83    1
    62    60    61    1
    63    95    96    1
    64    97    96    1
    65    70    69    1
    66    96    99    1
    67    61    64    1
    68    61    62    1
    69    65    62   am
    70    65    66    1
    71    69    66    1
    72    67    66    1
    73    67    68    2
    74    62    63    2
    75    47    46   ar
    76    82    81    1
    77   110   109   ar
    78   110   108   ar
    79   109   107   ar
    80    46    48   ar
    81    46    45    1
    82   108   106   ar
    83   107   105   ar
    84    80    81   ar
    85    80    78   ar
    86   106   105   ar
    87    81    79   ar
    88   105   104    1
    89   104   101    1
    90    78    76   ar
    91    43    42    2
    92    79    77   ar
    93    45    44    1
    94    76    77   ar
    95    76    75    1
    96    44    41    1
    97    42    41    1
    98    75    72    1
    99   101   100    1
   100   101   102    1
   101    41    40    1
   102   103   102    2
   103    72    73    1
   104    72    71    1
   105    73    74    2
