@<TRIPOS>MOLECULE
tmp/6bsnB04.pdb
 90 86 0 0 0
SMALL
GASTEIGER

@<TRIPOS>ATOM
      1  N         -0.4690   56.3420  -72.4150 N.3   190  ALA190     -0.1245
      2  CA        -1.8080   56.9030  -72.3510 C.3   190  ALA190      0.1562
      3  C         -2.8020   55.7970  -72.0140 C.2   190  ALA190      0.2260
      4  O         -2.7930   54.7200  -72.6210 O.2   190  ALA190     -0.2867
      5  CB        -2.1590   57.5570  -73.6860 C.3   190  ALA190      0.0290
      6  N         -3.6790   55.2350  -76.7570 N.3   234  PRO234     -0.2102
      7  CA        -4.1240   54.5400  -75.5340 C.3   234  PRO234      0.1504
      8  C         -4.1260   53.0110  -75.5980 C.2   234  PRO234      0.2576
      9  O         -4.3440   52.3680  -74.5590 O.2   234  PRO234     -0.2718
     10  CB        -5.5520   55.0780  -75.3310 C.3   234  PRO234      0.0282
     11  CG        -6.0190   55.4730  -76.7140 C.3   234  PRO234      0.0208
     12  CD        -4.7670   56.0000  -77.4030 C.3   234  PRO234      0.0893
     13  N         -3.9460   52.4030  -76.7660 N.am  235  ARG235     -0.1966
     14  CA        -3.7460   50.9620  -76.8670 C.3   235  ARG235      0.1729
     15  C         -2.5450   50.7300  -77.7800 C.2   235  ARG235      0.2616
     16  O         -2.6600   50.1640  -78.8660 O.2   235  ARG235     -0.2715
     17  CB        -4.9640   50.1740  -77.3910 C.3   235  ARG235      0.0348
     18  CG        -6.2580   50.2520  -76.5620 C.3   235  ARG235      0.0492
     19  CD        -6.2000   49.6040  -75.1650 C.3   235  ARG235      0.2205
     20  NE        -5.6430   48.2570  -75.1330 N.pl3 235  ARG235     -0.0865
     21  CZ        -5.6700   47.4430  -74.0630 C.cat 235  ARG235      0.5346
     22  NH1       -6.2450   47.8150  -72.9270 N.pl3 235  ARG235      0.1354
     23  NH2       -5.1230   46.2370  -74.1220 N.pl3 235  ARG235      0.1354
     24  N         -1.3770   51.1980  -77.3360 N.am  236  PHE236     -0.1960
     25  CA        -0.1590   51.0250  -78.1210 C.3   236  PHE236      0.1771
     26  C          0.3440   49.6050  -77.8870 C.2   236  PHE236      0.2619
     27  O          1.1220   49.3340  -76.9690 O.2   236  PHE236     -0.2715
     28  CB         0.8920   52.0640  -77.7570 C.3   236  PHE236      0.0574
     29  CG         2.0860   52.0220  -78.6550 C.ar  236  PHE236     -0.0200
     30  CD1        1.9390   52.2610  -80.0220 C.ar  236  PHE236     -0.0042
     31  CD2        3.3440   51.7100  -78.1600 C.ar  236  PHE236     -0.0042
     32  CE1        3.0410   52.2150  -80.8720 C.ar  236  PHE236     -0.0003
     33  CE2        4.4490   51.6620  -79.0050 C.ar  236  PHE236     -0.0003
     34  CZ         4.2910   51.9190  -80.3680 C.ar  236  PHE236     -0.0000
     35  N         -0.1130   48.6890  -78.7390 N.am  237  GLU237     -0.1977
     36  CA         0.1320   47.2650  -78.5740 C.3   237  GLU237      0.1602
     37  C          0.0280   46.6120  -79.9420 C.2   237  GLU237      0.2287
     38  O         -0.6900   47.0980  -80.8200 O.2   237  GLU237     -0.2864
     39  CB        -0.8760   46.6430  -77.6020 C.3   237  GLU237      0.0415
     40  CG        -2.3220   46.6460  -78.1610 C.3   237  GLU237      0.1163
     41  CD        -3.3920   46.3670  -77.1040 C.2   237  GLU237      0.3649
     42  OE1       -3.0420   45.9190  -75.9890 O.co2 237  GLU237     -0.2457
     43  OE2       -4.5850   46.6270  -77.3770 O.co2 237  GLU237     -0.2457
     44  N          9.3230   49.0000  -74.1080 N.3   272  GLU272     -0.1245
     45  CA         9.4560   47.5750  -73.8320 C.3   272  GLU272      0.1567
     46  C          9.7380   46.7890  -75.1130 C.2   272  GLU272      0.2260
     47  O          9.4610   47.2360  -76.2320 O.2   272  GLU272     -0.2867
     48  CB         8.1900   47.0310  -73.1660 C.3   272  GLU272      0.0388
     49  CG         7.8560   47.6890  -71.8440 C.3   272  GLU272      0.1160
     50  CD         6.9730   48.9310  -71.9980 C.2   272  GLU272      0.3649
     51  OE1        6.8520   49.4720  -73.1120 O.co2 272  GLU272     -0.2457
     52  OE2        6.4030   49.3630  -70.9920 O.co2 272  GLU272     -0.2457
     53  N          8.3340   44.0880  -76.3480 N.3   274  ASP274     -0.1225
     54  CA         7.1910   43.6880  -77.1730 C.3   274  ASP274      0.1805
     55  C          6.5860   44.8490  -77.9660 C.2   274  ASP274      0.2597
     56  O          5.6540   44.6160  -78.7370 O.2   274  ASP274     -0.2718
     57  CB         6.1030   42.9980  -76.3240 C.3   274  ASP274      0.1424
     58  CG         5.3760   43.9430  -75.3430 C.2   274  ASP274      0.3668
     59  OD1        5.7120   45.1440  -75.2230 O.co2 274  ASP274     -0.2456
     60  OD2        4.4450   43.4610  -74.6620 O.co2 274  ASP274     -0.2456
     61  N          7.1060   46.0720  -77.8250 N.am  275  ARG275     -0.1979
     62  CA         6.6950   47.2020  -78.6400 C.3   275  ARG275      0.1597
     63  C          7.7380   47.5960  -79.6770 C.2   275  ARG275      0.2287
     64  O          7.5000   48.5360  -80.4410 O.2   275  ARG275     -0.2864
     65  CB         6.3560   48.4090  -77.7460 C.3   275  ARG275      0.0334
     66  CG         5.0350   48.2410  -76.9690 C.3   275  ARG275      0.0492
     67  CD         4.9480   49.2090  -75.8100 C.3   275  ARG275      0.2205
     68  NE         3.5650   49.5150  -75.4580 N.pl3 275  ARG275     -0.0865
     69  CZ         3.1910   50.1770  -74.3640 C.cat 275  ARG275      0.5346
     70  NH1        4.1100   50.6030  -73.5010 N.pl3 275  ARG275      0.1354
     71  NH2        1.8930   50.4210  -74.1340 N.pl3 275  ARG275      0.1354
     72  N          8.4580   39.5270  -67.6350 N.3   343  ARG343     -0.1245
     73  CA         7.4890   39.2740  -68.6990 C.3   343  ARG343      0.1563
     74  C          7.7900   37.9740  -69.4270 C.2   343  ARG343      0.2260
     75  O          6.8760   37.2020  -69.7370 O.2   343  ARG343     -0.2867
     76  CB         7.4710   40.4240  -69.7020 C.3   343  ARG343      0.0307
     77  CG         6.6000   41.5810  -69.3010 C.3   343  ARG343      0.0489
     78  CD         6.8300   42.7440  -70.2530 C.3   343  ARG343      0.2205
     79  NE         5.9990   43.8990  -69.9240 N.pl3 343  ARG343     -0.0865
     80  CZ         5.6160   44.8110  -70.8130 C.cat 343  ARG343      0.5346
     81  NH1        4.8490   45.8220  -70.4330 N.pl3 343  ARG343      0.1354
     82  NH2        5.9950   44.7020  -72.0810 N.pl3 343  ARG343      0.1354
     83  N         -5.0220   50.1880  -64.9960 N.3   763  ASP763     -0.1239
     84  CA        -4.7010   48.9910  -65.7650 C.3   763  ASP763      0.1674
     85  C         -5.2400   47.7470  -65.0740 C.2   763  ASP763      0.2266
     86  O         -5.8760   46.8910  -65.6950 O.2   763  ASP763     -0.2867
     87  CB        -3.1860   48.8640  -65.9310 C.3   763  ASP763      0.1410
     88  CG        -2.6370   49.7090  -67.0760 C.2   763  ASP763      0.3668
     89  OD1       -3.4390   50.3400  -67.7960 O.co2 763  ASP763     -0.2456
     90  OD2       -1.3940   49.7460  -67.2430 O.co2 763  ASP763     -0.2456
@<TRIPOS>BOND
     1    32    34   ar
     2    32    30   ar
     3    38    37    2
     4    64    63    2
     5    34    33   ar
     6    30    29   ar
     7    37    36    1
     8    63    62    1
     9    33    31   ar
    10    16    15    2
    11    35    36    1
    12    35    26   am
    13    56    55    2
    14    29    31   ar
    15    29    28    1
    16    62    61    1
    17    62    65    1
    18    36    39    1
    19    40    39    1
    20    40    41    1
    21    25    26    1
    22    25    28    1
    23    25    24    1
    24    55    61   am
    25    55    54    1
    26    26    27    2
    27    15    24   am
    28    15    14    1
    29    65    66    1
    30    12     6    1
    31    12    11    1
    32    17    14    1
    33    17    18    1
    34    43    41   ar
    35    54    53    1
    36    54    57    1
    37    41    42   ar
    38    66    67    1
    39    14    13    1
    40    13     8   am
    41     6     7    1
    42    11    10    1
    43    18    19    1
    44    57    58    1
    45    47    46    2
    46    67    68    1
    47     8     7    1
    48     8     9    2
    49     7    10    1
    50    68    69    2
    51    58    59   ar
    52    58    60   ar
    53    19    20    1
    54    20    21    2
    55    46    45    1
    56    69    71    1
    57    69    70    1
    58    23    21    1
    59    44    45    1
    60    21    22    1
    61    45    48    1
    62     5     2    1
    63    48    49    1
    64    51    50   ar
    65     4     3    2
    66     1     2    1
    67     2     3    1
    68    82    80    1
    69    50    49    1
    70    50    52   ar
    71    80    81    1
    72    80    79    2
    73    78    79    1
    74    78    77    1
    75    75    74    2
    76    76    77    1
    77    76    73    1
    78    74    73    1
    79    73    72    1
    80    89    88   ar
    81    90    88   ar
    82    88    87    1
    83    87    84    1
    84    84    85    1
    85    84    83    1
    86    86    85    2
