@<TRIPOS>MOLECULE
tmp/6bsrA00.pdb
 75 70 0 0 0
SMALL
GASTEIGER

@<TRIPOS>ATOM
      1  N         48.1690   20.1370   11.0840 N.3   161  ALA161     -0.1231
      2  CA        49.5890   19.8480   11.2130 C.3   161  ALA161      0.1694
      3  C         49.8800   18.7630   12.2390 C.2   161  ALA161      0.2593
      4  O         51.0500   18.4320   12.4550 O.2   161  ALA161     -0.2718
      5  CB        50.3590   21.1230   11.5770 C.3   161  ALA161      0.0304
      6  N         48.8540   18.2010   12.8730 N.am  162  THR162     -0.1939
      7  CA        49.0300   17.1560   13.8720 C.3   162  THR162      0.2028
      8  C         48.9290   15.7800   13.2210 C.2   162  THR162      0.2642
      9  O         48.0440   15.5390   12.3930 O.2   162  THR162     -0.2714
     10  CB        47.9830   17.2900   14.9790 C.3   162  THR162      0.1808
     11  OG1       48.0440   18.6090   15.5370 O.3   162  THR162     -0.2208
     12  CG2       48.2300   16.2710   16.0820 C.3   162  THR162      0.0379
     13  N         49.8330   14.8860   13.6010 N.am  163  GLY163     -0.1954
     14  CA        49.8650   13.5550   13.0130 C.3   163  GLY163      0.1869
     15  C         48.8200   12.6420   13.6300 C.2   163  GLY163      0.2309
     16  O         48.6560   12.6000   14.8540 O.2   163  GLY163     -0.2863
     17  N         54.8850   24.4000   11.2490 N.3   260  ALA260     -0.1231
     18  CA        55.5960   23.4080   12.0470 C.3   260  ALA260      0.1694
     19  C         54.8470   22.0830   12.0190 C.2   260  ALA260      0.2592
     20  O         53.6280   22.0400   12.2110 O.2   260  ALA260     -0.2718
     21  CB        55.7580   23.9000   13.4850 C.3   260  ALA260      0.0304
     22  N         55.5790   20.9970   11.7800 N.am  261  MET261     -0.1965
     23  CA        54.9380   19.7110   11.5200 C.3   261  MET261      0.1736
     24  C         55.9510   18.5960   11.7210 C.2   261  MET261      0.2617
     25  O         57.0040   18.5940   11.0760 O.2   261  MET261     -0.2715
     26  CB        54.3730   19.6860   10.1010 C.3   261  MET261      0.0427
     27  CG        53.3840   18.5780    9.8190 C.3   261  MET261      0.0599
     28  SD        52.4690   18.9100    8.3010 S.3   261  MET261     -0.1393
     29  CE        53.8130   19.1780    7.1510 C.3   261  MET261      0.0692
     30  N         55.6360   17.6590   12.6070 N.am  262  THR262     -0.1937
     31  CA        56.4810   16.4840   12.7820 C.3   262  THR262      0.2013
     32  C         56.3720   15.5950   11.5450 C.2   262  THR262      0.2484
     33  O         55.2620   15.3520   11.0630 O.2   262  THR262     -0.2729
     34  CB        56.0700   15.7050   14.0320 C.3   262  THR262      0.1807
     35  OG1       56.2570   16.5250   15.1920 O.3   262  THR262     -0.2208
     36  CG2       56.8950   14.4320   14.1780 C.3   262  THR262      0.0379
     37  N         57.4910   15.1160   11.0020 N.am  263  PRO263     -0.2726
     38  CA        57.4190   14.2600    9.8090 C.3   263  PRO263      0.1402
     39  C         56.6000   13.0050   10.0630 C.2   263  PRO263      0.2269
     40  O         56.5380   12.4880   11.1810 O.2   263  PRO263     -0.2865
     41  CB        58.8890   13.9230    9.5310 C.3   263  PRO263      0.0296
     42  CG        59.6570   15.0470   10.1560 C.3   263  PRO263      0.0237
     43  CD        58.8770   15.4360   11.3760 C.3   263  PRO263      0.0939
     44  N         55.5180    9.0950   10.0350 N.3   265  GLN265     -0.1245
     45  CA        56.2470    7.8750   10.3430 C.3   265  GLN265      0.1566
     46  C         55.4040    6.6620    9.9800 C.2   265  GLN265      0.2260
     47  O         54.1710    6.7010   10.0250 O.2   265  GLN265     -0.2867
     48  CB        56.6460    7.8030   11.8270 C.3   265  GLN265      0.0367
     49  CG        55.5070    7.4580   12.7780 C.3   265  GLN265      0.0905
     50  CD        55.9930    7.1560   14.1830 C.2   265  GLN265      0.2608
     51  OE1       56.9720    7.7370   14.6510 O.2   265  GLN265     -0.2717
     52  NE2       55.3150    6.2350   14.8600 N.am  265  GLN265     -0.0878
     53  N         51.5800    7.5930   11.8130 N.3   289  LEU289     -0.1245
     54  CA        51.2810    8.9570   12.2390 C.3   289  LEU289      0.1561
     55  C         51.4930    9.8790   11.0460 C.2   289  LEU289      0.2260
     56  O         52.6350   10.1530   10.6660 O.2   289  LEU289     -0.2867
     57  CB        52.1560    9.3770   13.4200 C.3   289  LEU289      0.0270
     58  CG        51.8440    8.7100   14.7610 C.3   289  LEU289      0.0019
     59  CD1       52.8350    9.1530   15.8250 C.3   289  LEU289      0.0001
     60  CD2       50.4170    9.0200   15.1910 C.3   289  LEU289      0.0001
     61  N         49.9810   13.5890    9.2920 N.3   291  SER291     -0.1217
     62  CA        49.1550   14.7750    9.4480 C.3   291  SER291      0.1889
     63  C         48.2240   14.9360    8.2510 C.2   291  SER291      0.2288
     64  O         48.4770   14.3830    7.1780 O.2   291  SER291     -0.2866
     65  CB        50.0330   16.0140    9.6050 C.3   291  SER291      0.2089
     66  OG        50.5840   16.4130    8.3620 O.3   291  SER291     -0.2183
     67  N         50.1360   16.1510    5.4100 N.3   294  GLN294     -0.1245
     68  CA        50.9420   15.0650    4.8650 C.3   294  GLN294      0.1566
     69  C         50.0810   14.0080    4.1870 C.2   294  GLN294      0.2260
     70  O         50.5130   13.4040    3.2000 O.2   294  GLN294     -0.2867
     71  CB        51.7850   14.4330    5.9690 C.3   294  GLN294      0.0367
     72  CG        52.9040   15.3230    6.4930 C.3   294  GLN294      0.0905
     73  CD        53.4180   14.8690    7.8430 C.2   294  GLN294      0.2608
     74  OE1       52.8100   14.0220    8.4970 O.2   294  GLN294     -0.2717
     75  NE2       54.5440   15.4320    8.2680 N.am  294  GLN294     -0.0878
@<TRIPOS>BOND
     1    70    69    2
     2    69    68    1
     3    68    67    1
     4    68    71    1
     5    71    72    1
     6    72    73    1
     7    29    28    1
     8    64    63    2
     9    73    75   am
    10    73    74    2
    11    63    62    1
    12    28    27    1
    13    66    65    1
    14    61    62    1
    15    62    65    1
    16    41    38    1
    17    41    42    1
    18    38    39    1
    19    38    37    1
    20    27    26    1
    21    46    47    2
    22    46    45    1
    23    44    45    1
    24    39    40    2
    25    26    23    1
    26    42    43    1
    27    45    48    1
    28    56    55    2
    29    37    43    1
    30    37    32   am
    31    55    54    1
    32    33    32    2
    33    25    24    2
    34     1     2    1
    35     2     5    1
    36     2     3    1
    37    17    18    1
    38    23    24    1
    39    23    22    1
    40    32    31    1
    41    24    30   am
    42    22    19   am
    43    53    54    1
    44    48    49    1
    45    19    18    1
    46    19    20    2
    47    18    21    1
    48     3     4    2
    49     3     6   am
    50    54    57    1
    51     9     8    2
    52    30    31    1
    53    49    50    1
    54    31    34    1
    55     6     7    1
    56    14    13    1
    57    14    15    1
    58     8    13   am
    59     8     7    1
    60    57    58    1
    61    15    16    2
    62     7    10    1
    63    34    36    1
    64    34    35    1
    65    50    51    2
    66    50    52   am
    67    58    60    1
    68    58    59    1
    69    10    11    1
    70    10    12    1
