@<TRIPOS>MOLECULE
tmp/6bssA00.pdb
 149 141 0 0 0
SMALL
GASTEIGER

@<TRIPOS>ATOM
      1  N        -11.0860   14.4380   28.1560 N.3    15  LEU15      -0.1231
      2  CA       -11.5660   13.6240   27.0490 C.3    15  LEU15       0.1693
      3  C        -11.0490   12.1940   27.0880 C.2    15  LEU15       0.2593
      4  O        -11.6210   11.3270   26.4180 O.2    15  LEU15      -0.2718
      5  CB       -11.1740   14.2670   25.7130 C.3    15  LEU15       0.0284
      6  CG       -11.7540   15.6560   25.4450 C.3    15  LEU15       0.0019
      7  CD1      -11.1340   16.2720   24.2040 C.3    15  LEU15       0.0001
      8  CD2      -13.2660   15.5850   25.3050 C.3    15  LEU15       0.0001
      9  N        -10.0010   11.9280   27.8480 N.am   16  GLY16      -0.1942
     10  CA        -9.4440   10.5980   27.9450 C.3    16  GLY16       0.2014
     11  C         -7.9620   10.6710   28.2470 C.2    16  GLY16       0.2638
     12  O         -7.4750   11.6590   28.7870 O.2    16  GLY16      -0.2714
     13  N         -7.2580    9.5990   27.8880 N.am   17  GLN17      -0.1977
     14  CA        -5.8360    9.4830   28.1690 C.3    17  GLN17       0.1601
     15  C         -5.1180    8.8880   26.9690 C.2    17  GLN17       0.2287
     16  O         -5.6750    8.0720   26.2300 O.2    17  GLN17      -0.2864
     17  CB        -5.5600    8.5990   29.3970 C.3    17  GLN17       0.0394
     18  CG        -6.6520    8.6010   30.4530 C.3    17  GLN17       0.0908
     19  CD        -6.4650    7.5030   31.4810 C.2    17  GLN17       0.2608
     20  OE1       -5.3590    6.9980   31.6740 O.2    17  GLN17      -0.2717
     21  NE2       -7.5510    7.1220   32.1430 N.am   17  GLN17      -0.0878
     22  N         -5.7090   13.8940   28.4140 N.3    23  ILE23      -0.1245
     23  CA        -6.1820   14.7320   27.3200 C.3    23  ILE23       0.1561
     24  C         -7.3690   15.5460   27.8120 C.2    23  ILE23       0.2260
     25  O         -8.2680   15.0110   28.4730 O.2    23  ILE23      -0.2867
     26  CB        -6.5530   13.8850   26.0910 C.3    23  ILE23       0.0252
     27  CG1       -5.4530   12.8590   25.8040 C.3    23  ILE23       0.0019
     28  CG2       -6.7730   14.7710   24.8810 C.3    23  ILE23       0.0019
     29  CD1       -4.0790   13.4610   25.6430 C.3    23  ILE23       0.0001
     30  N         -7.1310   21.4590   21.8990 N.3    43  LEU43      -0.1245
     31  CA        -6.8850   20.1580   22.5020 C.3    43  LEU43       0.1561
     32  C         -5.5960   20.2530   23.3070 C.2    43  LEU43       0.2260
     33  O         -4.5720   20.7140   22.7900 O.2    43  LEU43      -0.2867
     34  CB        -6.7770   19.0780   21.4210 C.3    43  LEU43       0.0270
     35  CG        -6.8640   17.5880   21.7690 C.3    43  LEU43       0.0019
     36  CD1       -5.5850   17.0800   22.3910 C.3    43  LEU43       0.0001
     37  CD2       -8.0430   17.3070   22.6770 C.3    43  LEU43       0.0001
     38  N         -2.8180   18.2490   25.5890 N.3    45  LYS45      -0.1245
     39  CA        -2.2180   16.9790   25.9790 C.3    45  LYS45       0.1561
     40  C         -1.2160   17.2450   27.0930 C.2    45  LYS45       0.2260
     41  O         -0.2850   18.0380   26.9150 O.2    45  LYS45      -0.2867
     42  CB        -1.5470   16.3030   24.7820 C.3    45  LYS45       0.0271
     43  CG        -2.5190   15.9700   23.6660 C.3    45  LYS45       0.0035
     44  CD        -1.8800   15.2030   22.5260 C.3    45  LYS45       0.0206
     45  CE        -2.9520   14.6670   21.5860 C.3    45  LYS45       0.1093
     46  NZ        -2.3920   14.2150   20.2830 N.3    45  LYS45      -0.1314
     47  N         -2.4370   17.0760   11.6200 N.3    74  VAL74      -0.1245
     48  CA        -2.9870   17.8960   12.6900 C.3    74  VAL74       0.1561
     49  C         -2.0870   19.1050   12.9300 C.2    74  VAL74       0.2260
     50  O         -0.8600   19.0390   12.7870 O.2    74  VAL74      -0.2867
     51  CB        -3.1640   17.0660   13.9740 C.3    74  VAL74       0.0252
     52  CG1       -1.8150   16.6090   14.5100 C.3    74  VAL74       0.0019
     53  CG2       -3.9330   17.8500   15.0370 C.3    74  VAL74       0.0019
     54  N         -2.8180   21.7040   20.6780 N.3    89  GLN89      -0.1231
     55  CA        -3.1240   21.3620   19.2990 C.3    89  GLN89       0.1698
     56  C         -4.5110   21.8750   18.9320 C.2    89  GLN89       0.2592
     57  O         -5.3010   22.2850   19.7890 O.2    89  GLN89      -0.2718
     58  CB        -3.0680   19.8440   19.0780 C.3    89  GLN89       0.0381
     59  CG        -1.7500   19.1940   19.4430 C.3    89  GLN89       0.0905
     60  CD        -1.7220   17.7210   19.0890 C.2    89  GLN89       0.2608
     61  OE1       -2.6770   16.9910   19.3520 O.2    89  GLN89      -0.2717
     62  NE2       -0.6300   17.2780   18.4770 N.am   89  GLN89      -0.0878
     63  N         -4.8100   21.8170   17.6360 N.am   90  GLU90      -0.1966
     64  CA        -6.1370   22.1800   17.1610 C.3    90  GLU90       0.1733
     65  C         -7.1750   21.2030   17.6960 C.2    90  GLU90       0.2616
     66  O         -6.9030   20.0160   17.8950 O.2    90  GLU90      -0.2715
     67  CB        -6.1790   22.1930   15.6300 C.3    90  GLU90       0.0429
     68  CG        -5.9930   20.8200   14.9890 C.3    90  GLU90       0.1163
     69  CD        -6.1970   20.8350   13.4840 C.2    90  GLU90       0.3649
     70  OE1       -7.2530   21.3200   13.0270 O.co2  90  GLU90      -0.2457
     71  OE2       -5.2950   20.3690   12.7560 O.co2  90  GLU90      -0.2457
     72  N         -8.3790   21.7100   17.9300 N.am   91  PHE91      -0.1960
     73  CA        -9.4840   20.8730   18.3740 C.3    91  PHE91       0.1771
     74  C        -10.2810   20.4120   17.1600 C.2    91  PHE91       0.2619
     75  O        -10.8420   21.2350   16.4280 O.2    91  PHE91      -0.2715
     76  CB       -10.3840   21.6190   19.3570 C.3    91  PHE91       0.0574
     77  CG       -11.4640   20.7610   19.9580 C.ar   91  PHE91      -0.0200
     78  CD1      -11.1630   19.8450   20.9540 C.ar   91  PHE91      -0.0042
     79  CD2      -12.7780   20.8670   19.5270 C.ar   91  PHE91      -0.0042
     80  CE1      -12.1510   19.0510   21.5100 C.ar   91  PHE91      -0.0003
     81  CE2      -13.7730   20.0740   20.0820 C.ar   91  PHE91      -0.0003
     82  CZ       -13.4560   19.1660   21.0740 C.ar   91  PHE91      -0.0000
     83  N        -10.3250   19.1020   16.9500 N.am   92  VAL92      -0.1963
     84  CA       -11.0950   18.5030   15.8670 C.3    92  VAL92       0.1727
     85  C        -12.5010   18.2220   16.3790 C.2    92  VAL92       0.2616
     86  O        -12.6720   17.6820   17.4780 O.2    92  VAL92      -0.2715
     87  CB       -10.4140   17.2220   15.3610 C.3    92  VAL92       0.0290
     88  CG1      -11.2690   16.5360   14.3220 C.3    92  VAL92       0.0023
     89  CG2       -9.0520   17.5540   14.7860 C.3    92  VAL92       0.0023
     90  N        -13.5120   18.5830   15.5840 N.am   93  LYS93      -0.1963
     91  CA       -14.8760   18.6300   16.1060 C.3    93  LYS93       0.1728
     92  C        -15.4180   17.2410   16.4340 C.2    93  LYS93       0.2616
     93  O        -16.1180   17.0690   17.4390 O.2    93  LYS93      -0.2715
     94  CB       -15.8030   19.3380   15.1160 C.3    93  LYS93       0.0311
     95  CG       -17.2450   19.4170   15.6070 C.3    93  LYS93       0.0038
     96  CD       -18.1110   20.3420   14.7670 C.3    93  LYS93       0.0206
     97  CE       -19.5160   20.4290   15.3550 C.3    93  LYS93       0.1093
     98  NZ       -20.4200   21.3210   14.5760 N.3    93  LYS93      -0.1314
     99  N        -15.1190   16.2420   15.6050 N.am   94  PHE94      -0.1960
    100  CA       -15.7720   14.9420   15.7010 C.3    94  PHE94       0.1771
    101  C        -14.8780   13.8550   16.2880 C.2    94  PHE94       0.2620
    102  O        -15.2380   12.6750   16.2280 O.2    94  PHE94      -0.2715
    103  CB       -16.2970   14.5190   14.3270 C.3    94  PHE94       0.0574
    104  CG       -17.3620   15.4300   13.7840 C.ar   94  PHE94      -0.0200
    105  CD1      -18.6720   15.3190   14.2190 C.ar   94  PHE94      -0.0042
    106  CD2      -17.0550   16.4030   12.8450 C.ar   94  PHE94      -0.0042
    107  CE1      -19.6560   16.1580   13.7300 C.ar   94  PHE94      -0.0003
    108  CE2      -18.0350   17.2440   12.3510 C.ar   94  PHE94      -0.0003
    109  CZ       -19.3380   17.1210   12.7940 C.ar   94  PHE94      -0.0000
    110  N        -13.7290   14.2180   16.8550 N.am   95  GLY95      -0.1940
    111  CA       -12.9300   13.2710   17.6100 C.3    95  GLY95       0.2014
    112  C        -12.1710   12.2660   16.7580 C.2    95  GLY95       0.2639
    113  O        -11.9440   12.4480   15.5570 O.2    95  GLY95      -0.2714
    114  N        -11.7740   11.1790   17.4140 N.am   96  SER96      -0.1949
    115  CA       -10.9560   10.1400   16.8090 C.3    96  SER96       0.1924
    116  C        -11.8210    9.1420   16.0420 C.2    96  SER96       0.2314
    117  O        -13.0170    8.9860   16.3010 O.2    96  SER96      -0.2863
    118  CB       -10.1340    9.4150   17.8740 C.3    96  SER96       0.2116
    119  OG       -10.9710    8.8160   18.8470 O.3    96  SER96      -0.2180
    120  N        -13.6250    5.6120   17.8110 N.3    99  THR99      -0.1218
    121  CA       -14.9110    5.8320   18.4640 C.3    99  THR99       0.1862
    122  C        -15.9940    6.1640   17.4460 C.2    99  THR99       0.2287
    123  O        -17.1380    5.7120   17.5760 O.2    99  THR99      -0.2866
    124  CB       -14.7820    6.9490   19.5010 C.3    99  THR99       0.1770
    125  OG1      -13.8800    6.5360   20.5340 O.3    99  THR99      -0.2211
    126  CG2      -16.1340    7.2810   20.1210 C.3    99  THR99       0.0375
    127  N         -7.0930    5.4260   16.3520 N.3   140  LYS140     -0.1245
    128  CA        -7.1750    6.3890   17.4440 C.3   140  LYS140      0.1561
    129  C         -6.4500    7.6840   17.1050 C.2   140  LYS140      0.2260
    130  O         -6.7890    8.7440   17.6420 O.2   140  LYS140     -0.2867
    131  CB        -6.6090    5.7780   18.7240 C.3   140  LYS140      0.0271
    132  CG        -6.6100    6.7930   19.8570 C.3   140  LYS140      0.0035
    133  CD        -6.1700    6.1870   21.1850 C.3   140  LYS140      0.0206
    134  CE        -6.4580    7.2090   22.2950 C.3   140  LYS140      0.1093
    135  NZ        -5.7170    8.4650   22.0350 N.3   140  LYS140     -0.1314
    136  N         -8.3340   11.7290   13.0950 N.3   143  LEU143     -0.1245
    137  CA        -9.3390   12.6510   13.6020 C.3   143  LEU143      0.1561
    138  C        -10.2560   13.0800   12.4640 C.2   143  LEU143      0.2260
    139  O         -9.7980   13.3050   11.3410 O.2   143  LEU143     -0.2867
    140  CB        -8.6760   13.8740   14.2370 C.3   143  LEU143      0.0270
    141  CG        -7.4390   13.5670   15.0870 C.3   143  LEU143      0.0019
    142  CD1       -6.7060   14.8420   15.4670 C.3   143  LEU143      0.0001
    143  CD2       -7.8230   12.7770   16.3280 C.3   143  LEU143      0.0001
    144  N         -3.0200   12.4570   13.4050 N.3   161  SER161     -0.1217
    145  CA        -2.5060   13.1100   14.5960 C.3   161  SER161      0.1889
    146  C         -1.0590   12.6850   14.8440 C.2   161  SER161      0.2288
    147  O         -0.4980   11.8470   14.1330 O.2   161  SER161     -0.2866
    148  CB        -3.3950   12.7990   15.7980 C.3   161  SER161      0.2089
    149  OG        -3.1400   13.7010   16.8600 O.3   161  SER161     -0.2183
@<TRIPOS>BOND
     1   139   138    2
     2    47    48    1
     3   108   109   ar
     4   108   106   ar
     5   138   137    1
     6    48    49    1
     7    48    51    1
     8    71    69   ar
     9    50    49    2
    10   109   107   ar
    11   106   104   ar
    12    70    69   ar
    13   136   137    1
    14   144   145    1
    15    69    68    1
    16   137   140    1
    17   107   105   ar
    18   104   105   ar
    19   104   103    1
    20    51    52    1
    21    51    53    1
    22   147   146    2
    23   140   141    1
    24    88    87    1
    25   103   100    1
    26    98    97    1
    27   145   146    1
    28   145   148    1
    29    96    97    1
    30    96    95    1
    31    89    87    1
    32    68    67    1
    33   141   142    1
    34   141   143    1
    35    94    95    1
    36    94    91    1
    37    87    84    1
    38   113   112    2
    39    90    91    1
    40    90    85   am
    41    99   100    1
    42    99    92   am
    43    67    64    1
    44   100   101    1
    45   148   149    1
    46    84    85    1
    47    84    83    1
    48   116   117    2
    49   116   115    1
    50    91    92    1
    51   102   101    2
    52   101   110   am
    53   127   128    1
    54    85    86    2
    55    75    74    2
    56    92    93    2
    57   112   114   am
    58   112   111    1
    59   115   114    1
    60   115   118    1
    61   110   111    1
    62    83    74   am
    63   129   128    1
    64   129   130    2
    65    74    73    1
    66    64    63    1
    67    64    65    1
    68   128   131    1
    69   122   123    2
    70   122   121    1
    71    63    56   am
    72    65    66    2
    73    65    72   am
    74   120   121    1
    75   118   119    1
    76    72    73    1
    77    73    76    1
    78   121   124    1
    79    62    60   am
    80   131   132    1
    81    56    55    1
    82    56    57    2
    83    58    55    1
    84    58    59    1
    85    60    61    2
    86    60    59    1
    87    55    54    1
    88    76    77    1
    89   124   126    1
    90   124   125    1
    91    79    77   ar
    92    79    81   ar
    93   132   133    1
    94    77    78   ar
    95    81    82   ar
    96    46    45    1
    97    78    80   ar
    98    82    80   ar
    99   133   134    1
   100    34    35    1
   101    34    31    1
   102    45    44    1
   103    35    36    1
   104    35    37    1
   105    30    31    1
   106   135   134    1
   107    31    32    1
   108    44    43    1
   109    33    32    2
   110    43    42    1
   111     7     6    1
   112    42    39    1
   113    28    26    1
   114     8     6    1
   115     6     5    1
   116    38    39    1
   117    29    27    1
   118     5     2    1
   119    27    26    1
   120    39    40    1
   121    26    23    1
   122    16    15    2
   123     4     3    2
   124    41    40    2
   125    15    14    1
   126     2     3    1
   127     2     1    1
   128     3     9   am
   129    23    24    1
   130    23    22    1
   131    24    25    2
   132     9    10    1
   133    13    14    1
   134    13    11   am
   135    10    11    1
   136    14    17    1
   137    11    12    2
   138    17    18    1
   139    18    19    1
   140    19    20    2
   141    19    21   am
