@<TRIPOS>MOLECULE
tmp/6bsvA00.pdb
 153 148 0 0 0
SMALL
GASTEIGER

@<TRIPOS>ATOM
      1  N        -15.8030   12.6080  -43.9820 N.3    41  GLY41      -0.1210
      2  CA       -16.6990   13.5630  -44.6000 C.3    41  GLY41       0.1956
      3  C        -17.8360   12.8740  -45.3210 C.2    41  GLY41       0.2613
      4  O        -17.9560   11.6440  -45.3270 O.2    41  GLY41      -0.2717
      5  N        -18.6750   13.7050  -45.9320 N.am   42  SER42      -0.1938
      6  CA       -19.8340   13.2380  -46.6800 C.3    42  SER42       0.2055
      7  C        -20.3530   14.3910  -47.5240 C.2    42  SER42       0.2643
      8  O        -20.0610   15.5600  -47.2550 O.2    42  SER42      -0.2714
      9  CB       -20.9320   12.7080  -45.7510 C.3    42  SER42       0.2130
     10  OG       -21.3760   13.7100  -44.8550 O.3    42  SER42      -0.2179
     11  N        -21.1270   14.0450  -48.5450 N.am   43  ALA43      -0.1963
     12  CA       -21.6240   15.0500  -49.4710 C.3    43  ALA43       0.1713
     13  C        -22.4540   16.0900  -48.7190 C.2    43  ALA43       0.2458
     14  O        -23.1760   15.7430  -47.7760 O.2    43  ALA43      -0.2730
     15  CB       -22.4690   14.3980  -50.5660 C.3    43  ALA43       0.0333
     16  N        -22.3850   17.3690  -49.1100 N.am   44  PRO44      -0.2727
     17  CA       -23.1040   18.4150  -48.3630 C.3    44  PRO44       0.1402
     18  C        -24.6150   18.3620  -48.4990 C.2    44  PRO44       0.2269
     19  O        -25.2970   19.1640  -47.8510 O.2    44  PRO44      -0.2865
     20  CB       -22.5560   19.7190  -48.9650 C.3    44  PRO44       0.0296
     21  CG       -22.0360   19.3430  -50.3090 C.3    44  PRO44       0.0237
     22  CD       -21.5800   17.9210  -50.2140 C.3    44  PRO44       0.0939
     23  N        -15.3550   16.9140  -43.1570 N.3    77  ASN77      -0.1240
     24  CA       -15.5130   17.8190  -44.2860 C.3    77  ASN77       0.1653
     25  C        -16.8330   17.5660  -45.0010 C.2    77  ASN77       0.2266
     26  O        -17.2310   16.4170  -45.2130 O.2    77  ASN77      -0.2867
     27  CB       -14.3530   17.6630  -45.2690 C.3    77  ASN77       0.1155
     28  CG       -14.4630   18.6070  -46.4490 C.2    77  ASN77       0.2627
     29  OD1      -14.4500   19.8280  -46.2840 O.2    77  ASN77      -0.2716
     30  ND2      -14.5700   18.0480  -47.6490 N.am   77  ASN77      -0.0877
     31  N        -17.5120   19.9580  -47.7700 N.3    79  ALA79      -0.1231
     32  CA       -17.3790   20.8420  -48.9180 C.3    79  ALA79       0.1694
     33  C        -16.6650   20.1320  -50.0600 C.2    79  ALA79       0.2591
     34  O        -15.7380   19.3470  -49.8360 O.2    79  ALA79      -0.2718
     35  CB       -16.6130   22.1110  -48.5380 C.3    79  ALA79       0.0304
     36  N        -17.1140   20.4040  -51.2830 N.am   80  LEU80      -0.1980
     37  CA       -16.4160   19.9750  -52.4920 C.3    80  LEU80       0.1596
     38  C        -15.4360   21.0810  -52.8680 C.2    80  LEU80       0.2287
     39  O        -15.8190   22.0920  -53.4630 O.2    80  LEU80      -0.2864
     40  CB       -17.4090   19.6870  -53.6140 C.3    80  LEU80       0.0297
     41  CG       -16.8210   19.3320  -54.9820 C.3    80  LEU80       0.0022
     42  CD1      -16.0000   18.0540  -54.9100 C.3    80  LEU80       0.0001
     43  CD2      -17.9280   19.1990  -56.0190 C.3    80  LEU80       0.0001
     44  N        -16.6350   12.9720  -55.9200 N.3    87  GLY87      -0.1210
     45  CA       -16.7240   11.5780  -55.5300 C.3    87  GLY87       0.1956
     46  C        -15.6260   11.1790  -54.5580 C.2    87  GLY87       0.2611
     47  O        -15.1550   11.9780  -53.7460 O.2    87  GLY87      -0.2717
     48  N        -15.2210    9.9090  -54.6470 N.am   88  PHE88      -0.1976
     49  CA       -14.1540    9.4110  -53.7820 C.3    88  PHE88       0.1639
     50  C        -12.8330   10.1300  -54.0240 C.2    88  PHE88       0.2290
     51  O        -11.9400   10.0610  -53.1730 O.2    88  PHE88      -0.2864
     52  CB       -13.9520    7.8950  -53.9530 C.3    88  PHE88       0.0560
     53  CG       -14.3240    7.3630  -55.3120 C.ar   88  PHE88      -0.0200
     54  CD1      -13.5810    7.6940  -56.4340 C.ar   88  PHE88      -0.0042
     55  CD2      -15.4150    6.5200  -55.4620 C.ar   88  PHE88      -0.0042
     56  CE1      -13.9280    7.2010  -57.6820 C.ar   88  PHE88      -0.0003
     57  CE2      -15.7630    6.0240  -56.7050 C.ar   88  PHE88      -0.0003
     58  CZ       -15.0190    6.3640  -57.8160 C.ar   88  PHE88      -0.0000
     59  N        -12.4900   13.2620  -53.9290 N.3    90  ALA90      -0.1231
     60  CA       -12.5230   14.5350  -53.2190 C.3    90  ALA90       0.1694
     61  C        -11.5690   14.5780  -52.0340 C.2    90  ALA90       0.2591
     62  O        -11.2650   15.6720  -51.5440 O.2    90  ALA90      -0.2718
     63  CB       -13.9420   14.8300  -52.7390 C.3    90  ALA90       0.0304
     64  N        -11.0890   13.4270  -51.5560 N.am   91  LYS91      -0.1980
     65  CA       -10.2300   13.4300  -50.3790 C.3    91  LYS91       0.1596
     66  C         -8.8100   13.8970  -50.6800 C.2    91  LYS91       0.2287
     67  O         -8.1220   14.3600  -49.7640 O.2    91  LYS91      -0.2864
     68  CB       -10.1980   12.0400  -49.7330 C.3    91  LYS91       0.0298
     69  CG        -9.8300   10.8820  -50.6500 C.3    91  LYS91       0.0038
     70  CD       -10.0920    9.5500  -49.9390 C.3    91  LYS91       0.0206
     71  CE       -10.1700    8.3760  -50.9050 C.3    91  LYS91       0.1093
     72  NZ       -10.8980    7.2210  -50.3050 N.3    91  LYS91      -0.1314
     73  N         -8.5970   17.7230  -50.2330 N.3    94  LEU94      -0.1245
     74  CA        -8.8100   17.9610  -48.8090 C.3    94  LEU94       0.1561
     75  C         -7.5730   17.5900  -48.0010 C.2    94  LEU94       0.2260
     76  O         -7.1210   18.3610  -47.1440 O.2    94  LEU94      -0.2867
     77  CB       -10.0200   17.1620  -48.3260 C.3    94  LEU94       0.0270
     78  CG       -10.2730   17.1550  -46.8160 C.3    94  LEU94       0.0019
     79  CD1      -10.6040   18.5520  -46.3180 C.3    94  LEU94       0.0001
     80  CD2      -11.3850   16.1740  -46.4710 C.3    94  LEU94       0.0001
     81  N         -7.1740    9.2690  -42.8280 N.3   110  TRP110     -0.1241
     82  CA        -8.4290    9.2760  -43.5620 C.3   110  TRP110      0.1605
     83  C         -9.2700    8.0620  -43.1860 C.2   110  TRP110      0.2264
     84  O         -8.7480    6.9780  -42.9070 O.2   110  TRP110     -0.2867
     85  CB        -8.1900    9.2720  -45.0700 C.3   110  TRP110      0.0550
     86  CG        -9.4730    9.0820  -45.8000 C.ar  110  TRP110      0.0003
     87  CD1       -9.9320    7.9310  -46.3730 C.ar  110  TRP110      0.0946
     88  CD2      -10.4980   10.0640  -45.9920 C.ar  110  TRP110      0.0152
     89  NE1      -11.1730    8.1420  -46.9250 N.ar  110  TRP110     -0.2442
     90  CE2      -11.5430    9.4440  -46.7050 C.ar  110  TRP110      0.0810
     91  CE3      -10.6290   11.4110  -45.6370 C.ar  110  TRP110      0.0012
     92  CZ2      -12.7030   10.1250  -47.0740 C.ar  110  TRP110      0.0191
     93  CZ3      -11.7840   12.0880  -46.0060 C.ar  110  TRP110      0.0001
     94  CH2      -12.8050   11.4420  -46.7150 C.ar  110  TRP110      0.0015
     95  N        -13.1670    6.4040  -44.4630 N.3   112  ASP112     -0.1225
     96  CA       -14.4710    6.3970  -45.1090 C.3   112  ASP112      0.1805
     97  C        -15.5830    6.6040  -44.0880 C.2   112  ASP112      0.2598
     98  O        -15.4810    6.1900  -42.9300 O.2   112  ASP112     -0.2718
     99  CB       -14.6860    5.0730  -45.8460 C.3   112  ASP112      0.1424
    100  CG       -14.1500    5.0980  -47.2660 C.2   112  ASP112      0.3668
    101  OD1      -13.5500    6.1220  -47.6580 O.co2 112  ASP112     -0.2456
    102  OD2      -14.3330    4.0910  -47.9840 O.co2 112  ASP112     -0.2456
    103  N        -16.6620    7.2500  -44.5310 N.am  113  SER113     -0.1938
    104  CA       -17.8060    7.4390  -43.6500 C.3   113  SER113      0.2055
    105  C        -18.5060    6.1170  -43.3550 C.2   113  SER113      0.2643
    106  O        -19.0590    5.9420  -42.2630 O.2   113  SER113     -0.2714
    107  CB       -18.7870    8.4320  -44.2650 C.3   113  SER113      0.2130
    108  OG       -19.4930    7.8480  -45.3440 O.3   113  SER113     -0.2179
    109  N        -18.4930    5.1780  -44.3060 N.am  114  ASP114     -0.1971
    110  CA       -19.0510    3.8480  -44.0920 C.3   114  ASP114      0.1709
    111  C        -18.0410    2.8880  -43.4730 C.2   114  ASP114      0.2293
    112  O        -18.1170    1.6740  -43.7030 O.2   114  ASP114     -0.2864
    113  CB       -19.5970    3.2870  -45.4090 C.3   114  ASP114      0.1436
    114  CG       -18.5020    2.8810  -46.3770 C.2   114  ASP114      0.3671
    115  OD1      -17.4040    3.4700  -46.3220 O.co2 114  ASP114     -0.2456
    116  OD2      -18.7490    1.9710  -47.1990 O.co2 114  ASP114     -0.2456
    117  N        -15.7280   -2.0680  -42.4380 N.3   262  HIS262     -0.1241
    118  CA       -15.9090   -1.1420  -43.5510 C.3   262  HIS262      0.1621
    119  C        -16.9340   -1.7350  -44.5100 C.2   262  HIS262      0.2264
    120  O        -16.7320   -2.8340  -45.0380 O.2   262  HIS262     -0.2867
    121  CB       -14.5710   -0.8850  -44.2490 C.3   262  HIS262      0.0745
    122  CG       -14.6330    0.1330  -45.3450 C.ar  262  HIS262      0.0817
    123  ND1      -13.5550    0.4140  -46.1580 N.ar  262  HIS262     -0.2268
    124  CD2      -15.6370    0.9390  -45.7620 C.ar  262  HIS262      0.1154
    125  CE1      -13.8930    1.3470  -47.0290 C.ar  262  HIS262      0.1986
    126  NE2      -15.1520    1.6820  -46.8110 N.ar  262  HIS262     -0.2212
    127  N        -18.0000   -1.6790  -47.5520 N.3   264  VAL264     -0.1231
    128  CA       -17.7840   -1.4370  -48.9730 C.3   264  VAL264      0.1692
    129  C        -18.8570   -2.1500  -49.7800 C.2   264  VAL264      0.2592
    130  O        -19.1870   -3.3150  -49.5230 O.2   264  VAL264     -0.2718
    131  CB       -16.3780   -1.8980  -49.3970 C.3   264  VAL264      0.0266
    132  CG1      -15.3180   -1.2110  -48.5570 C.3   264  VAL264      0.0020
    133  CG2      -16.2470   -3.4010  -49.2760 C.3   264  VAL264      0.0020
    134  N        -19.4070   -1.4470  -50.7690 N.am  265  GLY265     -0.1957
    135  CA       -20.4330   -1.9980  -51.6250 C.3   265  GLY265      0.1869
    136  C        -21.8530   -1.7080  -51.1940 C.2   265  GLY265      0.2309
    137  O        -22.7860   -2.0100  -51.9490 O.2   265  GLY265     -0.2863
    138  N        -23.3970    1.4400  -49.9770 N.3   267  LYS267     -0.1231
    139  CA       -23.9870    2.7090  -50.3870 C.3   267  LYS267      0.1678
    140  C        -25.2780    2.9770  -49.6090 C.2   267  LYS267      0.2434
    141  O        -26.3530    3.1130  -50.2070 O.2   267  LYS267     -0.2733
    142  CB       -24.2530    2.7300  -51.8860 C.3   267  LYS267      0.0284
    143  CG       -23.0680    2.3520  -52.7530 C.3   267  LYS267      0.0035
    144  CD       -21.8760    3.2530  -52.5050 C.3   267  LYS267      0.0206
    145  CE       -20.7750    2.9840  -53.5130 C.3   267  LYS267      0.1093
    146  NZ       -19.4420    3.4010  -53.0070 N.3   267  LYS267     -0.1314
    147  N        -25.2120    3.0540  -48.2800 N.am  268  PRO268     -0.2729
    148  CA       -26.4280    3.3700  -47.5160 C.3   268  PRO268      0.1401
    149  C        -26.9920    4.7380  -47.8480 C.2   268  PRO268      0.2269
    150  O        -28.2020    4.9570  -47.7070 O.2   268  PRO268     -0.2865
    151  CB       -25.9530    3.2880  -46.0590 C.3   268  PRO268      0.0296
    152  CG       -24.4910    3.5840  -46.1290 C.3   268  PRO268      0.0237
    153  CD       -24.0160    2.9940  -47.4210 C.3   268  PRO268      0.0939
@<TRIPOS>BOND
     1    58    56   ar
     2    58    57   ar
     3    56    54   ar
     4    57    55   ar
     5    54    53   ar
     6    43    41    1
     7    44    45    1
     8    45    46    1
     9    55    53   ar
    10    53    52    1
    11    41    42    1
    12    41    40    1
    13    48    46   am
    14    48    49    1
    15    46    47    2
    16    50    49    1
    17    50    51    2
    18    52    49    1
    19    59    60    1
    20    40    37    1
    21   145   146    1
    22   145   144    1
    23    39    38    2
    24    60    63    1
    25    60    61    1
    26    38    37    1
    27   143   144    1
    28   143   142    1
    29    37    36    1
    30    61    64   am
    31    61    62    2
    32   137   136    2
    33   142   139    1
    34   135   136    1
    35   135   134    1
    36    64    65    1
    37    36    33   am
    38    71    72    1
    39    71    70    1
    40   134   129   am
    41    66    65    1
    42    66    67    2
    43    69    70    1
    44    69    68    1
    45    15    12    1
    46   139   138    1
    47   139   140    1
    48    65    68    1
    49    21    22    1
    50    21    20    1
    51    73    74    1
    52    22    16    1
    53   141   140    2
    54    33    34    2
    55    33    32    1
    56   129   130    2
    57   129   128    1
    58   140   147   am
    59    12    13    1
    60    12    11    1
    61   131   133    1
    62   131   128    1
    63   131   132    1
    64    16    13   am
    65    16    17    1
    66   128   127    1
    67    20    17    1
    68    32    35    1
    69    32    31    1
    70    74    77    1
    71    74    75    1
    72    13    14    2
    73    11     7   am
    74    18    17    1
    75    18    19    2
    76    77    78    1
    77   147   148    1
    78   147   153    1
    79    75    76    2
    80   102   100   ar
    81   149   150    2
    82   149   148    1
    83   101   100   ar
    84    30    28   am
    85     7     8    2
    86     7     6    1
    87   148   151    1
    88   153   152    1
    89   100    99    1
    90   116   114   ar
    91    92    94   ar
    92    92    90   ar
    93   125   126   ar
    94   125   123   ar
    95    89    90   ar
    96    89    87   ar
    97    78    80    1
    98    78    79    1
    99   126   124   ar
   100    94    93   ar
   101    90    88   ar
   102     6     5    1
   103     6     9    1
   104    28    29    2
   105    28    27    1
   106   114   115   ar
   107   114   113    1
   108    87    86   ar
   109   123   122   ar
   110   152   151    1
   111    93    91   ar
   112    88    86   ar
   113    88    91   ar
   114     5     3   am
   115    99    96    1
   116    86    85    1
   117   124   122   ar
   118     9    10    1
   119   113   110    1
   120   122   121    1
   121   108   107    1
   122     4     3    2
   123     3     2    1
   124    27    24    1
   125    26    25    2
   126    96    95    1
   127    96    97    1
   128    85    82    1
   129   120   119    2
   130    25    24    1
   131     2     1    1
   132   103    97   am
   133   103   104    1
   134   119   118    1
   135   109   110    1
   136   109   105   am
   137    24    23    1
   138   107   104    1
   139   121   118    1
   140   110   111    1
   141    97    98    2
   142   112   111    2
   143   104   105    1
   144    82    83    1
   145    82    81    1
   146   118   117    1
   147   105   106    2
   148    83    84    2
