@<TRIPOS>MOLECULE
tmp/6bswA01.pdb
 226 223 0 0 0
SMALL
GASTEIGER

@<TRIPOS>ATOM
      1  N        -15.5190   10.0060  -54.5380 N.3    88  PHE88      -0.1241
      2  CA       -14.4680    9.4850  -53.6690 C.3    88  PHE88       0.1605
      3  C        -13.1010   10.0790  -53.9780 C.2    88  PHE88       0.2264
      4  O        -12.1660    9.8600  -53.2020 O.2    88  PHE88      -0.2867
      5  CB       -14.3920    7.9520  -53.7460 C.3    88  PHE88       0.0534
      6  CG       -14.6910    7.3810  -55.1040 C.ar   88  PHE88      -0.0203
      7  CD1      -13.8900    7.6740  -56.1920 C.ar   88  PHE88      -0.0042
      8  CD2      -15.7760    6.5370  -55.2830 C.ar   88  PHE88      -0.0042
      9  CE1      -14.1720    7.1450  -57.4380 C.ar   88  PHE88      -0.0003
     10  CE2      -16.0600    6.0020  -56.5250 C.ar   88  PHE88      -0.0003
     11  CZ       -15.2560    6.3070  -57.6040 C.ar   88  PHE88      -0.0000
     12  N         -4.2740   -1.2130  -45.2830 N.3   137  HIS137     -0.1241
     13  CA        -4.5500   -2.6320  -45.1260 C.3   137  HIS137      0.1621
     14  C         -4.4560   -3.3100  -46.4860 C.2   137  HIS137      0.2264
     15  O         -5.1110   -2.8870  -47.4430 O.2   137  HIS137     -0.2867
     16  CB        -5.9330   -2.8540  -44.5170 C.3   137  HIS137      0.0745
     17  CG        -6.2250   -4.2870  -44.1950 C.ar  137  HIS137      0.0817
     18  ND1       -6.7820   -5.1560  -45.1080 N.ar  137  HIS137     -0.2268
     19  CD2       -6.0260   -5.0060  -43.0640 C.ar  137  HIS137      0.1154
     20  CE1       -6.9190   -6.3470  -44.5520 C.ar  137  HIS137      0.1986
     21  NE2       -6.4680   -6.2830  -43.3120 N.ar  137  HIS137     -0.2212
     22  N         -2.0310   -6.6540  -48.8840 N.3   139  TRP139     -0.1241
     23  CA        -1.0450   -7.7220  -48.9840 C.3   139  TRP139      0.1605
     24  C         -0.0930   -7.4140  -50.1300 C.2   139  TRP139      0.2264
     25  O         -0.5340   -7.0580  -51.2270 O.2   139  TRP139     -0.2867
     26  CB        -1.7250   -9.0780  -49.2080 C.3   139  TRP139      0.0550
     27  CG        -2.6690   -9.4630  -48.1070 C.ar  139  TRP139      0.0003
     28  CD1       -2.3920  -10.2530  -47.0300 C.ar  139  TRP139      0.0946
     29  CD2       -4.0410   -9.0720  -47.9750 C.ar  139  TRP139      0.0152
     30  NE1       -3.5060  -10.3790  -46.2360 N.ar  139  TRP139     -0.2442
     31  CE2       -4.5320   -9.6630  -46.7940 C.ar  139  TRP139      0.0810
     32  CE3       -4.9020   -8.2790  -48.7410 C.ar  139  TRP139      0.0012
     33  CZ2       -5.8460   -9.4870  -46.3600 C.ar  139  TRP139      0.0191
     34  CZ3       -6.2060   -8.1050  -48.3080 C.ar  139  TRP139      0.0001
     35  CH2       -6.6640   -8.7070  -47.1290 C.ar  139  TRP139      0.0015
     36  N          1.7380   -9.3860  -52.0300 N.3   141  GLU141     -0.1231
     37  CA         1.6150  -10.2410  -53.2060 C.3   141  GLU141      0.1699
     38  C          0.3960   -9.8650  -54.0420 C.2   141  GLU141      0.2592
     39  O          0.4580   -9.8720  -55.2760 O.2   141  GLU141     -0.2718
     40  CB         1.5570  -11.7140  -52.7900 C.3   141  GLU141      0.0402
     41  CG         0.3790  -12.1110  -51.8990 C.3   141  GLU141      0.1161
     42  CD         0.6050  -11.7900  -50.4320 C.2   141  GLU141      0.3649
     43  OE1        1.5370  -11.0150  -50.1230 O.co2 141  GLU141     -0.2457
     44  OE2       -0.1490  -12.3170  -49.5850 O.co2 141  GLU141     -0.2457
     45  N         -0.7170   -9.5240  -53.3910 N.am  142  MET142     -0.1979
     46  CA        -1.9310   -9.2020  -54.1320 C.3   142  MET142      0.1605
     47  C         -1.8330   -7.8680  -54.8610 C.2   142  MET142      0.2287
     48  O         -2.5330   -7.6710  -55.8590 O.2   142  MET142     -0.2864
     49  CB        -3.1350   -9.1840  -53.1910 C.3   142  MET142      0.0413
     50  CG        -3.6140  -10.5670  -52.7720 C.3   142  MET142      0.0598
     51  SD        -5.1640  -10.5160  -51.8540 S.3   142  MET142     -0.1393
     52  CE        -6.3000   -9.9510  -53.1180 C.3   142  MET142      0.0692
     53  N         -7.2400   -5.2470  -57.7540 N.3   149  TRP149     -0.1227
     54  CA        -7.7900   -3.9500  -57.3800 C.3   149  TRP149      0.1737
     55  C         -8.2790   -3.9080  -55.9370 C.2   149  TRP149      0.2595
     56  O         -8.5910   -2.8180  -55.4440 O.2   149  TRP149     -0.2718
     57  CB        -8.9270   -3.5710  -58.3320 C.3   149  TRP149      0.0564
     58  CG       -10.2220   -4.2710  -58.0670 C.ar  149  TRP149      0.0003
     59  CD1      -10.4690   -5.6100  -58.1660 C.ar  149  TRP149      0.0946
     60  CD2      -11.4600   -3.6630  -57.6790 C.ar  149  TRP149      0.0152
     61  NE1      -11.7810   -5.8730  -57.8550 N.ar  149  TRP149     -0.2442
     62  CE2      -12.4110   -4.6950  -57.5530 C.ar  149  TRP149      0.0810
     63  CE3      -11.8560   -2.3460  -57.4220 C.ar  149  TRP149      0.0012
     64  CZ2      -13.7310   -4.4520  -57.1790 C.ar  149  TRP149      0.0191
     65  CZ3      -13.1680   -2.1080  -57.0510 C.ar  149  TRP149      0.0001
     66  CH2      -14.0890   -3.1560  -56.9340 C.ar  149  TRP149      0.0015
     67  N         -8.3400   -5.0480  -55.2500 N.am  150  ILE150     -0.1980
     68  CA        -8.6880   -5.0970  -53.8370 C.3   150  ILE150      0.1595
     69  C         -7.5170   -5.5940  -52.9910 C.2   150  ILE150      0.2287
     70  O         -7.7050   -5.9930  -51.8460 O.2   150  ILE150     -0.2864
     71  CB        -9.9420   -5.9590  -53.6010 C.3   150  ILE150      0.0276
     72  CG1       -9.7350   -7.3700  -54.1610 C.3   150  ILE150      0.0022
     73  CG2      -11.1580   -5.2960  -54.2290 C.3   150  ILE150      0.0022
     74  CD1      -10.7850   -8.3640  -53.7210 C.3   150  ILE150      0.0001
     75  N         -6.7620   -1.2280  -49.5050 N.3   153  ASN153     -0.1240
     76  CA        -7.9920   -0.4720  -49.3000 C.3   153  ASN153      0.1653
     77  C         -7.6500    0.9590  -48.9130 C.2   153  ASN153      0.2266
     78  O         -6.8350    1.1840  -48.0130 O.2   153  ASN153     -0.2867
     79  CB        -8.8650   -1.1220  -48.2180 C.3   153  ASN153      0.1155
     80  CG       -10.1960   -0.4160  -48.0400 C.2   153  ASN153      0.2627
     81  OD1      -10.3070    0.5390  -47.2720 O.2   153  ASN153     -0.2716
     82  ND2      -11.2150   -0.8870  -48.7500 N.am  153  ASN153     -0.0877
     83  N        -14.1680   -4.7850  -62.1680 N.3   197  PRO197     -0.2102
     84  CA       -15.2800   -4.5670  -63.1050 C.3   197  PRO197      0.1504
     85  C        -15.0700   -3.3160  -63.9420 C.2   197  PRO197      0.2576
     86  O        -14.0280   -2.6630  -63.8370 O.2   197  PRO197     -0.2718
     87  CB       -16.5050   -4.4460  -62.1870 C.3   197  PRO197      0.0282
     88  CG       -15.9580   -4.1070  -60.8460 C.3   197  PRO197      0.0208
     89  CD       -14.6140   -4.7550  -60.7650 C.3   197  PRO197      0.0893
     90  N        -16.0470   -2.9700  -64.7740 N.am  198  ALA198     -0.1966
     91  CA       -15.9310   -1.8470  -65.6970 C.3   198  ALA198      0.1728
     92  C        -16.6950   -0.6560  -65.1280 C.2   198  ALA198      0.2616
     93  O        -17.9290   -0.6750  -65.0660 O.2   198  ALA198     -0.2715
     94  CB       -16.4600   -2.2270  -67.0780 C.3   198  ALA198      0.0334
     95  N        -15.9640    0.3760  -64.7180 N.am  199  PHE199     -0.1960
     96  CA       -16.5760    1.6120  -64.2430 C.3   199  PHE199      0.1771
     97  C        -15.4970    2.6850  -64.1730 C.2   199  PHE199      0.2619
     98  O        -14.3140    2.4200  -64.4010 O.2   199  PHE199     -0.2715
     99  CB       -17.2630    1.4210  -62.8860 C.3   199  PHE199      0.0574
    100  CG       -16.3230    1.0720  -61.7640 C.ar  199  PHE199     -0.0200
    101  CD1      -15.7120   -0.1700  -61.7110 C.ar  199  PHE199     -0.0042
    102  CD2      -16.0740    1.9800  -60.7460 C.ar  199  PHE199     -0.0042
    103  CE1      -14.8550   -0.4950  -60.6750 C.ar  199  PHE199     -0.0003
    104  CE2      -15.2210    1.6610  -59.7070 C.ar  199  PHE199     -0.0003
    105  CZ       -14.6100    0.4200  -59.6710 C.ar  199  PHE199     -0.0000
    106  N        -15.9310    3.9070  -63.8630 N.am  200  GLU200     -0.1977
    107  CA       -15.0250    5.0470  -63.8130 C.3   200  GLU200      0.1602
    108  C        -13.8390    4.7570  -62.9030 C.2   200  GLU200      0.2287
    109  O        -13.9270    3.9650  -61.9600 O.2   200  GLU200     -0.2864
    110  CB       -15.7630    6.2920  -63.3130 C.3   200  GLU200      0.0415
    111  CG       -16.8180    6.8240  -64.2670 C.3   200  GLU200      0.1163
    112  CD       -17.5080    8.0630  -63.7330 C.2   200  GLU200      0.3649
    113  OE1      -17.3140    8.3870  -62.5420 O.co2 200  GLU200     -0.2457
    114  OE2      -18.2440    8.7140  -64.5050 O.co2 200  GLU200     -0.2457
    115  N         -8.9140    3.9260  -55.2500 N.3   204  GLN204     -0.1245
    116  CA        -8.3010    2.6790  -54.8000 C.3   204  GLN204      0.1566
    117  C         -7.6020    1.9660  -55.9520 C.2   204  GLN204      0.2260
    118  O         -6.4270    1.5970  -55.8440 O.2   204  GLN204     -0.2867
    119  CB        -9.3540    1.7730  -54.1600 C.3   204  GLN204      0.0367
    120  CG        -8.8180    0.4170  -53.7240 C.3   204  GLN204      0.0905
    121  CD        -9.7350   -0.2810  -52.7400 C.2   204  GLN204      0.2608
    122  OE1      -10.1870    0.3200  -51.7650 O.2   204  GLN204     -0.2717
    123  NE2      -10.0180   -1.5540  -52.9920 N.am  204  GLN204     -0.0878
    124  N         -7.3010   -5.4860  -38.6340 N.3   229  TYR229     -0.1241
    125  CA        -8.2530   -4.9550  -39.6100 C.3   229  TYR229      0.1605
    126  C         -8.3030   -3.4280  -39.5310 C.2   229  TYR229      0.2264
    127  O         -9.2770   -2.8180  -39.0850 O.2   229  TYR229     -0.2867
    128  CB        -9.6300   -5.5740  -39.3990 C.3   229  TYR229      0.0534
    129  CG        -9.7730   -6.9580  -39.9970 C.ar  229  TYR229     -0.0201
    130  CD1       -9.5910   -7.1680  -41.3580 C.ar  229  TYR229     -0.0009
    131  CD2      -10.0990   -8.0520  -39.2050 C.ar  229  TYR229     -0.0009
    132  CE1       -9.7160   -8.4250  -41.9120 C.ar  229  TYR229      0.0417
    133  CE2      -10.2300   -9.3180  -39.7530 C.ar  229  TYR229      0.0417
    134  CZ       -10.0380   -9.4960  -41.1070 C.ar  229  TYR229      0.1957
    135  OH       -10.1670  -10.7450  -41.6650 O.3   229  TYR229     -0.2866
    136  N         -8.6060   -2.0320  -42.2160 N.3   231  HIS231     -0.1241
    137  CA        -9.8140   -2.0850  -43.0250 C.3   231  HIS231      0.1621
    138  C        -10.3950   -3.4840  -42.9030 C.2   231  HIS231      0.2264
    139  O         -9.7020   -4.4700  -43.1760 O.2   231  HIS231     -0.2867
    140  CB        -9.5350   -1.7670  -44.4940 C.3   231  HIS231      0.0745
    141  CG       -10.4860   -2.4310  -45.4410 C.ar  231  HIS231      0.0817
    142  ND1      -11.7770   -1.9880  -45.6310 N.ar  231  HIS231     -0.2268
    143  CD2      -10.3390   -3.5140  -46.2400 C.ar  231  HIS231      0.1154
    144  CE1      -12.3820   -2.7660  -46.5120 C.ar  231  HIS231      0.1986
    145  NE2      -11.5310   -3.7000  -46.8970 N.ar  231  HIS231     -0.2212
    146  N        -13.3950   -5.8820  -44.2060 N.3   233  TYR233     -0.1241
    147  CA       -14.5120   -6.2140  -45.0810 C.3   233  TYR233      0.1605
    148  C        -15.6870   -6.7310  -44.2600 C.2   233  TYR233      0.2264
    149  O        -15.5950   -7.7900  -43.6310 O.2   233  TYR233     -0.2867
    150  CB       -14.0750   -7.2490  -46.1220 C.3   233  TYR233      0.0534
    151  CG       -15.1820   -7.7550  -47.0230 C.ar  233  TYR233     -0.0201
    152  CD1      -16.1060   -6.8830  -47.5830 C.ar  233  TYR233     -0.0009
    153  CD2      -15.2840   -9.1040  -47.3350 C.ar  233  TYR233     -0.0009
    154  CE1      -17.1130   -7.3450  -48.4120 C.ar  233  TYR233      0.0417
    155  CE2      -16.2850   -9.5740  -48.1650 C.ar  233  TYR233      0.0417
    156  CZ       -17.1960   -8.6910  -48.7000 C.ar  233  TYR233      0.1957
    157  OH       -18.1920   -9.1580  -49.5270 O.3   233  TYR233     -0.2866
    158  N        -17.3130  -10.5950  -44.1010 N.3   236  ILE236     -0.1245
    159  CA       -16.7570  -11.7440  -43.3950 C.3   236  ILE236      0.1561
    160  C        -16.6450  -11.4940  -41.8950 C.2   236  ILE236      0.2260
    161  O        -16.0230  -12.2920  -41.1850 O.2   236  ILE236     -0.2867
    162  CB       -15.3940  -12.1500  -43.9800 C.3   236  ILE236      0.0252
    163  CG1      -14.3930  -10.9940  -43.8700 C.3   236  ILE236      0.0019
    164  CG2      -15.5520  -12.5830  -45.4340 C.3   236  ILE236      0.0019
    165  CD1      -12.9660  -11.3850  -44.1860 C.3   236  ILE236      0.0001
    166  N        -15.9590   -2.1240  -42.2940 N.3   262  HIS262     -0.1241
    167  CA       -16.1180   -1.1970  -43.4080 C.3   262  HIS262      0.1621
    168  C        -17.1460   -1.7780  -44.3650 C.2   262  HIS262      0.2264
    169  O        -16.9580   -2.8810  -44.8880 O.2   262  HIS262     -0.2867
    170  CB       -14.7740   -0.9610  -44.1060 C.3   262  HIS262      0.0745
    171  CG       -14.8170    0.0800  -45.1810 C.ar  262  HIS262      0.0817
    172  ND1      -13.7250    0.3750  -45.9700 N.ar  262  HIS262     -0.2268
    173  CD2      -15.8150    0.8920  -45.6020 C.ar  262  HIS262      0.1154
    174  CE1      -14.0490    1.3240  -46.8300 C.ar  262  HIS262      0.1986
    175  NE2      -15.3120    1.6560  -46.6270 N.ar  262  HIS262     -0.2212
    176  N        -18.0990   -1.6250  -47.4130 N.3   264  VAL264     -0.1231
    177  CA       -17.8290   -1.4070  -48.8280 C.3   264  VAL264      0.1692
    178  C        -18.9400   -2.0160  -49.6710 C.2   264  VAL264      0.2592
    179  O        -19.4310   -3.1170  -49.3900 O.2   264  VAL264     -0.2718
    180  CB       -16.4620   -2.0050  -49.2040 C.3   264  VAL264      0.0266
    181  CG1      -15.3440   -1.2750  -48.4770 C.3   264  VAL264      0.0020
    182  CG2      -16.4180   -3.4980  -48.8850 C.3   264  VAL264      0.0020
    183  N        -19.3370   -1.2970  -50.7190 N.am  265  GLY265     -0.1957
    184  CA       -20.3410   -1.7770  -51.6450 C.3   265  GLY265      0.1869
    185  C        -21.7750   -1.5490  -51.2240 C.2   265  GLY265      0.2309
    186  O        -22.6850   -1.8450  -52.0090 O.2   265  GLY265     -0.2863
    187  N        -23.3060    1.5310  -49.9140 N.3   267  LYS267     -0.1245
    188  CA       -23.8700    2.8140  -50.3190 C.3   267  LYS267      0.1561
    189  C        -25.1040    3.1470  -49.4900 C.2   267  LYS267      0.2260
    190  O        -26.1910    3.3430  -50.0490 O.2   267  LYS267     -0.2867
    191  CB       -24.2320    2.8010  -51.8070 C.3   267  LYS267      0.0271
    192  CG       -23.0960    2.3820  -52.7260 C.3   267  LYS267      0.0035
    193  CD       -21.8270    3.1700  -52.4360 C.3   267  LYS267      0.0206
    194  CE       -20.7000    2.8030  -53.3820 C.3   267  LYS267      0.1093
    195  NZ       -19.3810    3.2180  -52.8330 N.3   267  LYS267     -0.1314
    196  N        -27.6860    2.1270  -55.6900 N.3   272  PHE272     -0.1241
    197  CA       -27.1080    1.1480  -56.6090 C.3   272  PHE272      0.1605
    198  C        -25.8640    0.4930  -56.0090 C.2   272  PHE272      0.2264
    199  O        -24.8110    0.4020  -56.6440 O.2   272  PHE272     -0.2867
    200  CB       -26.7880    1.7900  -57.9620 C.3   272  PHE272      0.0534
    201  CG       -27.9720    2.4400  -58.6170 C.ar  272  PHE272     -0.0203
    202  CD1      -29.0130    1.6730  -59.1150 C.ar  272  PHE272     -0.0042
    203  CD2      -28.0430    3.8180  -58.7400 C.ar  272  PHE272     -0.0042
    204  CE1      -30.1040    2.2690  -59.7190 C.ar  272  PHE272     -0.0003
    205  CE2      -29.1310    4.4190  -59.3440 C.ar  272  PHE272     -0.0003
    206  CZ       -30.1630    3.6440  -59.8340 C.ar  272  PHE272     -0.0000
    207  N        -23.7740   -2.8250  -54.2490 N.3   274  ASP274     -0.1225
    208  CA       -23.5400   -4.2000  -54.6640 C.3   274  ASP274      0.1805
    209  C        -24.2600   -5.2190  -53.7900 C.2   274  ASP274      0.2597
    210  O        -24.2460   -6.4100  -54.1200 O.2   274  ASP274     -0.2718
    211  CB       -22.0380   -4.5070  -54.6570 C.3   274  ASP274      0.1424
    212  CG       -21.3140   -3.9300  -55.8590 C.2   274  ASP274      0.3668
    213  OD1      -21.9690   -3.2920  -56.7110 O.co2 274  ASP274     -0.2456
    214  OD2      -20.0840   -4.1210  -55.9530 O.co2 274  ASP274     -0.2456
    215  N        -24.8850   -4.7930  -52.7020 N.am  275  TYR275     -0.1976
    216  CA       -25.5810   -5.6860  -51.7910 C.3   275  TYR275      0.1639
    217  C        -26.9470   -5.1100  -51.4580 C.2   275  TYR275      0.2290
    218  O        -27.1800   -3.9080  -51.6250 O.2   275  TYR275     -0.2864
    219  CB       -24.7770   -5.8970  -50.4990 C.3   275  TYR275      0.0560
    220  CG       -23.3350   -6.2860  -50.7330 C.ar  275  TYR275     -0.0198
    221  CD1      -22.9770   -7.6100  -50.9560 C.ar  275  TYR275     -0.0009
    222  CD2      -22.3300   -5.3290  -50.7270 C.ar  275  TYR275     -0.0009
    223  CE1      -21.6580   -7.9670  -51.1690 C.ar  275  TYR275      0.0417
    224  CE2      -21.0090   -5.6760  -50.9380 C.ar  275  TYR275      0.0417
    225  CZ       -20.6780   -6.9960  -51.1590 C.ar  275  TYR275      0.1957
    226  OH       -19.3630   -7.3430  -51.3690 O.3   275  TYR275     -0.2866
@<TRIPOS>BOND
     1    94    91    1
     2    91    92    1
     3    91    90    1
     4    92    93    2
     5    92    95   am
     6    90    85   am
     7    95    96    1
     8   114   112   ar
     9    98    97    2
    10   111   112    1
    11   111   110    1
    12    96    97    1
    13    96    99    1
    14    97   106   am
    15    85    86    2
    16    85    84    1
    17   106   107    1
    18   107   110    1
    19   107   108    1
    20   112   113   ar
    21    84    87    1
    22    84    83    1
    23   108   109    2
    24    99   100    1
    25    87    88    1
    26    83    89    1
    27   100   101   ar
    28   100   102   ar
    29   101   103   ar
    30    88    89    1
    31   102   104   ar
    32   103   105   ar
    33   206   204   ar
    34   206   205   ar
    35   204   202   ar
    36   104   105   ar
    37   205   203   ar
    38   202   201   ar
    39   203   201   ar
    40   201   200    1
    41    57    58    1
    42    57    54    1
    43    59    58   ar
    44    59    61   ar
    45    58    60   ar
    46   200   197    1
    47    61    62   ar
    48    53    54    1
    49    60    62   ar
    50    60    63   ar
    51    11     9   ar
    52    11    10   ar
    53    62    64   ar
    54     9     7   ar
    55    63    65   ar
    56    54    55    1
    57    64    66   ar
    58    65    66   ar
    59   213   212   ar
    60   199   198    2
    61   197   198    1
    62   197   196    1
    63    10     8   ar
    64     7     6   ar
    65   214   212   ar
    66   117   118    2
    67   117   116    1
    68    55    56    2
    69    55    67   am
    70    48    47    2
    71   212   211    1
    72     8     6   ar
    73    39    38    2
    74   115   116    1
    75    67    68    1
    76     6     5    1
    77    47    46    1
    78   116   119    1
    79   208   211    1
    80   208   207    1
    81   208   209    1
    82     1     2    1
    83    73    71    1
    84    72    74    1
    85    72    71    1
    86   119   120    1
    87    46    45    1
    88    46    49    1
    89   210   209    2
    90    38    45   am
    91    38    37    1
    92     3     2    1
    93     3     4    2
    94    68    71    1
    95    68    69    1
    96   209   215   am
    97     5     2    1
    98   120   121    1
    99   194   195    1
   100   194   193    1
   101    37    40    1
   102    37    36    1
   103    49    50    1
   104    52    51    1
   105   123   121   am
   106    69    70    2
   107    40    41    1
   108    50    51    1
   109   121   122    2
   110   192   193    1
   111   192   191    1
   112   215   216    1
   113   186   185    2
   114    41    42    1
   115   191   188    1
   116   216   217    1
   117   216   219    1
   118   184   185    1
   119   184   183    1
   120   218   217    2
   121   226   225    1
   122    25    24    2
   123   223   225   ar
   124   223   221   ar
   125   225   224   ar
   126   221   220   ar
   127   224   222   ar
   128   220   222   ar
   129   220   219    1
   130   183   178   am
   131    42    43   ar
   132    42    44   ar
   133   188   187    1
   134   188   189    1
   135    24    23    1
   136   190   189    2
   137   178   179    2
   138   178   177    1
   139   157   156    1
   140    75    76    1
   141    76    77    1
   142    76    79    1
   143    26    23    1
   144    26    27    1
   145   180   182    1
   146   180   177    1
   147   180   181    1
   148    23    22    1
   149    77    78    2
   150   177   176    1
   151    82    80   am
   152    32    34   ar
   153    32    29   ar
   154   156   154   ar
   155   156   155   ar
   156   154   152   ar
   157    34    35   ar
   158    79    80    1
   159   155   153   ar
   160    27    29   ar
   161    27    28   ar
   162    80    81    2
   163    29    31   ar
   164   152   151   ar
   165    15    14    2
   166   153   151   ar
   167    35    33   ar
   168    28    30   ar
   169   151   150    1
   170   145   144   ar
   171   145   143   ar
   172   174   175   ar
   173   174   172   ar
   174    31    33   ar
   175    31    30   ar
   176   175   173   ar
   177   144   142   ar
   178    14    13    1
   179   143   141   ar
   180   150   147    1
   181   172   171   ar
   182   142   141   ar
   183   173   171   ar
   184   141   140    1
   185   164   162    1
   186    12    13    1
   187   171   170    1
   188    13    16    1
   189    18    20   ar
   190    18    17   ar
   191   147   148    1
   192   147   146    1
   193   169   168    2
   194    20    21   ar
   195    16    17    1
   196   140   137    1
   197   168   167    1
   198   148   149    2
   199    17    19   ar
   200   165   163    1
   201   170   167    1
   202   158   159    1
   203   162   163    1
   204   162   159    1
   205   167   166    1
   206   159   160    1
   207    21    19   ar
   208   139   138    2
   209   137   138    1
   210   137   136    1
   211   132   130   ar
   212   132   134   ar
   213   160   161    2
   214   135   134    1
   215   130   129   ar
   216   134   133   ar
   217   129   128    1
   218   129   131   ar
   219   133   131   ar
   220   125   126    1
   221   125   128    1
   222   125   124    1
   223   126   127    2
