@<TRIPOS>MOLECULE
tmp/6bsxC01.pdb
 119 112 0 0 0
SMALL
GASTEIGER

@<TRIPOS>ATOM
      1  N        -26.1440   14.4340  -14.5050 N.3     9  ALA9       -0.1245
      2  CA       -26.4760   13.1190  -13.9760 C.3     9  ALA9        0.1562
      3  C        -25.2280   12.4440  -13.4460 C.2     9  ALA9        0.2260
      4  O        -24.1820   12.5450  -14.0470 O.2     9  ALA9       -0.2867
      5  CB       -27.1160   12.2620  -15.0160 C.3     9  ALA9        0.0290
      6  N        -23.6310    8.9550  -12.4720 N.3    11  LEU11      -0.1245
      7  CA       -23.8750    7.5450  -12.8280 C.3    11  LEU11       0.1561
      8  C        -22.8230    6.6790  -12.1880 C.2    11  LEU11       0.2260
      9  O        -21.7630    7.1660  -11.7870 O.2    11  LEU11      -0.2867
     10  CB       -23.8490    7.3520  -14.3520 C.3    11  LEU11       0.0270
     11  CG       -24.7870    8.1970  -15.1980 C.3    11  LEU11       0.0019
     12  CD1      -24.5970    7.9350  -16.6860 C.3    11  LEU11       0.0001
     13  CD2      -26.2350    7.9750  -14.7650 C.3    11  LEU11       0.0001
     14  N        -33.2870    7.8450   -5.9730 N.3    39  GLU39      -0.1245
     15  CA       -32.7660    8.8000   -6.8930 C.3    39  GLU39       0.1567
     16  C        -33.4200   10.1360   -6.5480 C.2    39  GLU39       0.2260
     17  O        -34.6280   10.2460   -6.4090 O.2    39  GLU39      -0.2867
     18  CB       -32.9900    8.3960   -8.3720 C.3    39  GLU39       0.0388
     19  CG       -32.7460    9.5570   -9.3900 C.3    39  GLU39       0.1160
     20  CD       -32.8750    9.1000  -10.8560 C.2    39  GLU39       0.3649
     21  OE1      -32.4420    7.9580  -11.1560 O.co2  39  GLU39      -0.2457
     22  OE2      -33.4030    9.8720  -11.7180 O.co2  39  GLU39      -0.2457
     23  N        -28.5000   15.1380  -10.4610 N.3    58  VAL58      -0.1245
     24  CA       -29.2910   13.9050  -10.3960 C.3    58  VAL58       0.1561
     25  C        -28.4510   12.7000   -9.9110 C.2    58  VAL58       0.2260
     26  O        -27.6720   12.1130  -10.6720 O.2    58  VAL58      -0.2867
     27  CB       -29.9170   13.5480  -11.7530 C.3    58  VAL58       0.0252
     28  CG1      -30.8980   12.4360  -11.5500 C.3    58  VAL58       0.0019
     29  CG2      -30.6500   14.7720  -12.3760 C.3    58  VAL58       0.0019
     30  N        -28.3630    9.3650   -9.2490 N.3    60  THR60      -0.1203
     31  CA       -29.0380    8.1470   -9.6700 C.3    60  THR60       0.1994
     32  C        -28.7810    6.9670   -8.7380 C.2    60  THR60       0.2618
     33  O        -27.7770    6.9310   -8.0040 O.2    60  THR60      -0.2717
     34  CB       -28.6320    7.7190  -11.0880 C.3    60  THR60       0.1784
     35  OG1      -27.2910    7.1400  -11.0730 O.3    60  THR60      -0.2211
     36  CG2      -28.7640    8.9250  -12.0610 C.3    60  THR60       0.0376
     37  N        -29.7320    6.0270   -8.7670 N.am   61  ALA61      -0.1965
     38  CA       -29.6600    4.8680   -7.8750 C.3    61  ALA61       0.1728
     39  C        -28.6070    3.8500   -8.2820 C.2    61  ALA61       0.2617
     40  O        -28.2760    2.9830   -7.4920 O.2    61  ALA61      -0.2715
     41  CB       -31.0230    4.1800   -7.7580 C.3    61  ALA61       0.0334
     42  N        -28.0910    3.9330   -9.4970 N.am   62  GLY62      -0.1940
     43  CA       -27.0910    2.9520   -9.8820 C.3    62  GLY62       0.2014
     44  C        -27.4140    2.1900  -11.1340 C.2    62  GLY62       0.2638
     45  O        -28.5900    1.9930  -11.4750 O.2    62  GLY62      -0.2714
     46  N        -26.3700    1.7500  -11.8220 N.am   63  GLN63      -0.1977
     47  CA       -26.5180    1.0120  -13.0540 C.3    63  GLN63       0.1601
     48  C        -25.5850   -0.1860  -13.0040 C.2    63  GLN63       0.2287
     49  O        -24.6170   -0.2210  -12.2290 O.2    63  GLN63      -0.2864
     50  CB       -26.1800    1.8640  -14.2640 C.3    63  GLN63       0.0394
     51  CG       -27.0550    3.0960  -14.4320 C.3    63  GLN63       0.0908
     52  CD       -26.6810    4.2640  -13.5130 C.2    63  GLN63       0.2608
     53  OE1      -25.5040    4.5870  -13.3690 O.2    63  GLN63      -0.2717
     54  NE2      -27.6560    4.8690  -12.8790 N.am   63  GLN63      -0.0878
     55  N        -28.2270   -2.4670  -17.2340 N.3    67  SER67      -0.1202
     56  CA       -29.0380   -1.2560  -17.2440 C.3    67  SER67       0.2020
     57  C        -29.2500   -0.7770  -18.6680 C.2    67  SER67       0.2619
     58  O        -28.4370   -1.0810  -19.5360 O.2    67  SER67      -0.2717
     59  CB       -28.3690   -0.1640  -16.4240 C.3    67  SER67       0.2103
     60  OG       -28.3620   -0.4930  -15.0560 O.3    67  SER67      -0.2182
     61  N        -30.3160    0.0100  -18.8780 N.am   68  ILE68      -0.1965
     62  CA       -30.6950    0.5260  -20.1980 C.3    68  ILE68       0.1727
     63  C        -30.6430    2.0430  -20.2280 C.2    68  ILE68       0.2616
     64  O        -30.8410    2.7020  -19.2020 O.2    68  ILE68      -0.2715
     65  CB       -32.1110    0.0740  -20.5940 C.3    68  ILE68       0.0290
     66  CG1      -33.1330    0.5880  -19.5680 C.3    68  ILE68       0.0022
     67  CG2      -32.1510   -1.4490  -20.7320 C.3    68  ILE68       0.0023
     68  CD1      -34.5690    0.1220  -19.7960 C.3    68  ILE68       0.0001
     69  N        -30.3530    2.5970  -21.4000 N.am   69  PHE69      -0.1974
     70  CA       -30.1460    4.0290  -21.5320 C.3    69  PHE69       0.1639
     71  C        -30.9200    4.5650  -22.7190 C.2    69  PHE69       0.2290
     72  O        -30.3320    4.9390  -23.7340 O.2    69  PHE69      -0.2864
     73  CB       -28.6580    4.3560  -21.6860 C.3    69  PHE69       0.0560
     74  CG       -27.8590    4.1500  -20.4280 C.ar   69  PHE69      -0.0200
     75  CD1      -27.3290    2.9100  -20.1230 C.ar   69  PHE69      -0.0042
     76  CD2      -27.6400    5.1900  -19.5590 C.ar   69  PHE69      -0.0042
     77  CE1      -26.6160    2.7210  -18.9690 C.ar   69  PHE69      -0.0003
     78  CE2      -26.9200    5.0020  -18.4080 C.ar   69  PHE69      -0.0003
     79  CZ       -26.4110    3.7720  -18.1140 C.ar   69  PHE69      -0.0000
     80  N        -34.1200    9.2390  -21.2050 N.3    73  TYR73      -0.1241
     81  CA       -33.4320    9.5840  -19.9520 C.3    73  TYR73       0.1605
     82  C        -32.4810   10.7760  -20.1300 C.2    73  TYR73       0.2264
     83  O        -32.0490   11.3720  -19.1480 O.2    73  TYR73      -0.2867
     84  CB       -32.6250    8.3870  -19.3870 C.3    73  TYR73       0.0534
     85  CG       -33.3990    7.1510  -18.9260 C.ar   73  TYR73      -0.0201
     86  CD1      -34.7730    7.0280  -19.1100 C.ar   73  TYR73      -0.0009
     87  CD2      -32.7280    6.0950  -18.3030 C.ar   73  TYR73      -0.0009
     88  CE1      -35.4600    5.8840  -18.6910 C.ar   73  TYR73       0.0417
     89  CE2      -33.3980    4.9520  -17.8780 C.ar   73  TYR73       0.0417
     90  CZ       -34.7610    4.8420  -18.0760 C.ar   73  TYR73       0.1957
     91  OH       -35.4130    3.6930  -17.6540 O.3    73  TYR73      -0.2866
     92  N        -30.5400   16.8740  -19.7130 N.3    77  ILE77      -0.1245
     93  CA       -29.2430   16.6410  -19.0760 C.3    77  ILE77       0.1561
     94  C        -28.0920   17.3350  -19.7830 C.2    77  ILE77       0.2260
     95  O        -27.8880   17.1340  -20.9800 O.2    77  ILE77      -0.2867
     96  CB       -28.9360   15.1510  -19.0010 C.3    77  ILE77       0.0252
     97  CG1      -30.0430   14.4380  -18.2060 C.3    77  ILE77       0.0019
     98  CG2      -27.5380   14.9300  -18.3990 C.3    77  ILE77       0.0019
     99  CD1      -30.0830   14.7990  -16.7480 C.3    77  ILE77       0.0001
    100  N        -22.5860   14.5460  -17.6370 N.3    80  TYR80      -0.1241
    101  CA       -22.5920   13.2570  -16.9250 C.3    80  TYR80       0.1605
    102  C        -21.3090   13.0780  -16.1300 C.2    80  TYR80       0.2264
    103  O        -20.2250   13.3840  -16.6220 O.2    80  TYR80      -0.2867
    104  CB       -22.7130   12.0830  -17.9040 C.3    80  TYR80       0.0534
    105  CG       -23.9510   12.1080  -18.7120 C.ar   80  TYR80      -0.0201
    106  CD1      -24.0170   12.8900  -19.8630 C.ar   80  TYR80      -0.0009
    107  CD2      -25.0880   11.4030  -18.3120 C.ar   80  TYR80      -0.0009
    108  CE1      -25.1730   12.9570  -20.6140 C.ar   80  TYR80       0.0417
    109  CE2      -26.2500   11.4710  -19.0660 C.ar   80  TYR80       0.0417
    110  CZ       -26.2770   12.2550  -20.2180 C.ar   80  TYR80       0.1957
    111  OH       -27.4330   12.3370  -20.9930 O.3    80  TYR80      -0.2866
    112  N        -26.6120    6.2220  -26.3920 N.3   105  MET105     -0.1245
    113  CA       -27.8190    6.9730  -26.0710 C.3   105  MET105      0.1570
    114  C        -27.7790    8.3810  -26.6400 C.2   105  MET105      0.2261
    115  O        -28.7180    8.8080  -27.3060 O.2   105  MET105     -0.2867
    116  CB       -28.0450    7.0460  -24.5630 C.3   105  MET105      0.0387
    117  CG       -29.2330    7.9300  -24.1770 C.3   105  MET105      0.0595
    118  SD       -29.4310    8.1440  -22.3930 S.3   105  MET105     -0.1393
    119  CE       -28.0550    9.2240  -22.0750 C.3   105  MET105      0.0692
@<TRIPOS>BOND
     1   115   114    2
     2   114   113    1
     3   112   113    1
     4   113   116    1
     5   116   117    1
     6   117   118    1
     7    72    71    2
     8    71    70    1
     9   118   119    1
    10    73    70    1
    11    73    74    1
    12    70    69    1
    13    69    63   am
    14    80    81    1
    15   111   110    1
    16    95    94    2
    17    67    65    1
    18   108   110   ar
    19   108   106   ar
    20    65    62    1
    21    65    66    1
    22    74    75   ar
    23    74    76   ar
    24    63    62    1
    25    63    64    2
    26   110   109   ar
    27    62    61    1
    28    82    81    1
    29    82    83    2
    30    75    77   ar
    31    81    84    1
    32   106   105   ar
    33    68    66    1
    34    94    93    1
    35    92    93    1
    36    76    78   ar
    37    58    57    2
    38    84    85    1
    39    86    85   ar
    40    86    88   ar
    41    93    96    1
    42   109   107   ar
    43    96    98    1
    44    96    97    1
    45    77    79   ar
    46    85    87   ar
    47    61    57   am
    48   105   107   ar
    49   105   104    1
    50    88    90   ar
    51    57    56    1
    52    78    79   ar
    53    87    89   ar
    54    97    99    1
    55    90    89   ar
    56    90    91    1
    57   104   101    1
    58   100   101    1
    59    56    55    1
    60    56    59    1
    61   101   102    1
    62    12    11    1
    63   103   102    2
    64    59    60    1
    65    11    13    1
    66    11    10    1
    67     5     2    1
    68     1     2    1
    69    51    50    1
    70    51    52    1
    71    10     7    1
    72    50    47    1
    73     4     3    2
    74     2     3    1
    75    52    53    2
    76    52    54   am
    77    47    48    1
    78    47    46    1
    79    48    49    2
    80     7     6    1
    81     7     8    1
    82    29    27    1
    83     8     9    2
    84    36    34    1
    85    46    44   am
    86    27    28    1
    87    27    24    1
    88    22    20   ar
    89    45    44    2
    90    21    20   ar
    91    44    43    1
    92    34    35    1
    93    34    31    1
    94    20    19    1
    95    26    25    2
    96    23    24    1
    97    24    25    1
    98    43    42    1
    99    31    30    1
   100    31    32    1
   101    42    39   am
   102    19    18    1
   103    37    32   am
   104    37    38    1
   105    32    33    2
   106    18    15    1
   107    39    38    1
   108    39    40    2
   109    38    41    1
   110    15    16    1
   111    15    14    1
   112    16    17    2
