@<TRIPOS>MOLECULE
tmp/6bszA00.pdb
 106 98 0 0 0
SMALL
GASTEIGER

@<TRIPOS>ATOM
      1  N        -28.0580  -27.8730   32.8040 N.3    35  LYS35      -0.1245
      2  CA       -29.4370  -27.6500   33.2400 C.3    35  LYS35       0.1561
      3  C        -29.8400  -28.5750   34.3940 C.2    35  LYS35       0.2260
      4  O        -30.6590  -28.2060   35.2370 O.2    35  LYS35      -0.2867
      5  CB       -30.3920  -27.8320   32.0560 C.3    35  LYS35       0.0271
      6  CG       -31.7750  -27.2320   32.2460 C.3    35  LYS35       0.0035
      7  CD       -32.7020  -27.6370   31.1100 C.3    35  LYS35       0.0206
      8  CE       -34.0540  -26.9520   31.2210 C.3    35  LYS35       0.1093
      9  NZ       -34.9170  -27.2400   30.0420 N.3    35  LYS35      -0.1314
     10  N        -27.5530  -27.2670   38.5370 N.3    39  ARG39      -0.1245
     11  CA       -28.6590  -26.7150   39.3210 C.3    39  ARG39       0.1563
     12  C        -29.0100  -27.5870   40.5230 C.2    39  ARG39       0.2260
     13  O        -29.2440  -27.0750   41.6170 O.2    39  ARG39      -0.2867
     14  CB       -29.8890  -26.4900   38.4380 C.3    39  ARG39       0.0307
     15  CG       -29.6670  -25.4930   37.3090 C.3    39  ARG39       0.0489
     16  CD       -30.9600  -25.1820   36.5840 C.3    39  ARG39       0.2205
     17  NE       -30.7320  -24.3920   35.3770 N.pl3  39  ARG39      -0.0865
     18  CZ       -31.6800  -24.0610   34.5030 C.cat  39  ARG39       0.5346
     19  NH1      -32.9350  -24.4490   34.6930 N.pl3  39  ARG39       0.1354
     20  NH2      -31.3710  -23.3390   33.4350 N.pl3  39  ARG39       0.1354
     21  N        -38.0990  -26.5540   36.7170 N.3    95  ALA95      -0.1231
     22  CA       -37.4220  -25.7280   35.7200 C.3    95  ALA95       0.1694
     23  C        -38.3860  -25.3070   34.6110 C.2    95  ALA95       0.2592
     24  O        -38.6060  -24.1140   34.3940 O.2    95  ALA95      -0.2718
     25  CB       -36.2160  -26.4580   35.1430 C.3    95  ALA95       0.0304
     26  N        -38.9590  -26.2900   33.9210 N.am   96  ALA96      -0.1966
     27  CA       -39.9400  -26.0320   32.8720 C.3    96  ALA96       0.1728
     28  C        -41.2660  -25.5790   33.4760 C.2    96  ALA96       0.2616
     29  O        -41.6940  -26.0940   34.5120 O.2    96  ALA96      -0.2715
     30  CB       -40.1350  -27.2670   32.0040 C.3    96  ALA96       0.0334
     31  N        -41.9010  -24.6090   32.8230 N.am   97  SER97      -0.1950
     32  CA       -43.1530  -24.0250   33.3040 C.3    97  SER97       0.1924
     33  C        -44.3010  -25.0300   33.3540 C.2    97  SER97       0.2314
     34  O        -45.0300  -25.0860   34.3450 O.2    97  SER97      -0.2863
     35  CB       -43.5460  -22.8210   32.4490 C.3    97  SER97       0.2116
     36  OG       -42.7020  -21.7150   32.7120 O.3    97  SER97      -0.2180
     37  N        -36.5580  -21.2740   37.6430 N.3   118  ALA118     -0.1231
     38  CA       -36.4690  -21.1160   36.1890 C.3   118  ALA118      0.1694
     39  C        -37.7960  -20.8210   35.4850 C.2   118  ALA118      0.2593
     40  O        -37.8050  -20.1780   34.4350 O.2   118  ALA118     -0.2718
     41  CB       -35.8000  -22.3360   35.5640 C.3   118  ALA118      0.0304
     42  N        -38.9010  -21.3010   36.0560 N.am  119  SER119     -0.1938
     43  CA       -40.2220  -21.2080   35.4200 C.3   119  SER119      0.2055
     44  C        -40.7210  -19.7690   35.2990 C.2   119  SER119      0.2643
     45  O        -40.8780  -19.0720   36.3010 O.2   119  SER119     -0.2714
     46  CB       -41.2410  -22.0670   36.1690 C.3   119  SER119      0.2130
     47  OG       -40.8190  -23.4180   36.2110 O.3   119  SER119     -0.2179
     48  N        -40.9760  -19.3400   34.0640 N.am  120  THR120     -0.1950
     49  CA       -41.2640  -17.9320   33.7770 C.3   120  THR120      0.1897
     50  C        -42.6320  -17.6500   33.1350 C.2   120  THR120      0.2313
     51  O        -42.9250  -16.5050   32.7970 O.2   120  THR120     -0.2863
     52  CB       -40.1540  -17.2930   32.8990 C.3   120  THR120      0.1794
     53  OG1      -39.9150  -18.1100   31.7470 O.3   120  THR120     -0.2208
     54  CG2      -38.8580  -17.1280   33.6820 C.3   120  THR120      0.0378
     55  N        -44.7050  -22.7280   28.4660 N.3   168  TYR168     -0.1241
     56  CA       -43.6430  -21.7280   28.3550 C.3   168  TYR168      0.1605
     57  C        -43.5260  -21.1380   26.9500 C.2   168  TYR168      0.2264
     58  O        -43.4960  -19.9160   26.7860 O.2   168  TYR168     -0.2867
     59  CB       -42.2980  -22.3080   28.8060 C.3   168  TYR168      0.0534
     60  CG       -41.1050  -21.4430   28.4570 C.ar  168  TYR168     -0.0201
     61  CD1      -40.9200  -20.1990   29.0610 C.ar  168  TYR168     -0.0009
     62  CD2      -40.1610  -21.8710   27.5240 C.ar  168  TYR168     -0.0009
     63  CE1      -39.8270  -19.4010   28.7420 C.ar  168  TYR168      0.0417
     64  CE2      -39.0640  -21.0810   27.2010 C.ar  168  TYR168      0.0417
     65  CZ       -38.9040  -19.8500   27.8150 C.ar  168  TYR168      0.1957
     66  OH       -37.8220  -19.0630   27.5050 O.3   168  TYR168     -0.2866
     67  N        -37.1460  -24.7530   24.3840 N.3   224  ASN224     -0.1240
     68  CA       -36.2190  -25.3700   25.3400 C.3   224  ASN224      0.1653
     69  C        -34.8570  -25.7080   24.7240 C.2   224  ASN224      0.2266
     70  O        -34.7120  -25.7270   23.4990 O.2   224  ASN224     -0.2867
     71  CB       -36.8460  -26.6060   26.0040 C.3   224  ASN224      0.1155
     72  CG       -37.3200  -27.6440   24.9980 C.2   224  ASN224      0.2627
     73  OD1      -36.5220  -28.2370   24.2700 O.2   224  ASN224     -0.2716
     74  ND2      -38.6270  -27.8780   24.9660 N.am  224  ASN224     -0.0877
     75  N        -34.8900  -16.6770   27.7440 N.3   250  ASP250     -0.1225
     76  CA       -34.0230  -17.1520   28.8300 C.3   250  ASP250      0.1805
     77  C        -33.6510  -18.6330   28.7220 C.2   250  ASP250      0.2598
     78  O        -32.6370  -19.0650   29.2750 O.2   250  ASP250     -0.2718
     79  CB       -34.6520  -16.8560   30.1950 C.3   250  ASP250      0.1424
     80  CG       -35.8970  -17.6770   30.4560 C.2   250  ASP250      0.3668
     81  OD1      -36.8910  -17.5180   29.7170 O.co2 250  ASP250     -0.2456
     82  OD2      -35.8800  -18.4790   31.4100 O.co2 250  ASP250     -0.2456
     83  N        -34.4760  -19.3990   28.0130 N.am  251  SER251     -0.1952
     84  CA       -34.1940  -20.8070   27.7390 C.3   251  SER251      0.1924
     85  C        -32.9900  -20.9690   26.8090 C.2   251  SER251      0.2314
     86  O        -32.3340  -22.0110   26.8110 O.2   251  SER251     -0.2863
     87  CB       -35.4250  -21.4930   27.1510 C.3   251  SER251      0.2116
     88  OG       -35.8860  -20.8050   26.0010 O.3   251  SER251     -0.2180
     89  N        -26.2850  -19.8930   27.3300 N.3   255  LYS255     -0.1245
     90  CA       -26.0090  -21.3120   27.5520 C.3   255  LYS255      0.1561
     91  C        -25.1470  -21.9340   26.4550 C.2   255  LYS255      0.2260
     92  O        -25.2090  -21.5250   25.2920 O.2   255  LYS255     -0.2867
     93  CB       -27.3230  -22.0840   27.7130 C.3   255  LYS255      0.0271
     94  CG       -28.0670  -21.7400   29.0000 C.3   255  LYS255      0.0035
     95  CD       -29.5800  -21.7620   28.8250 C.3   255  LYS255      0.0206
     96  CE       -30.1770  -23.1110   29.1650 C.3   255  LYS255      0.1093
     97  NZ       -31.6620  -23.0440   29.2450 N.3   255  LYS255     -0.1314
     98  N        -28.4920  -20.0680   35.7200 N.3   331  LYS331     -0.1245
     99  CA       -29.5570  -20.0200   36.7180 C.3   331  LYS331      0.1561
    100  C        -29.1780  -20.6330   38.0740 C.2   331  LYS331      0.2260
    101  O        -30.0470  -20.8620   38.9190 O.2   331  LYS331     -0.2867
    102  CB       -30.8460  -20.6310   36.1550 C.3   331  LYS331      0.0271
    103  CG       -31.4260  -19.8420   34.9870 C.3   331  LYS331      0.0035
    104  CD       -32.7890  -20.3660   34.5750 C.3   331  LYS331      0.0206
    105  CE       -33.3750  -19.5600   33.4240 C.3   331  LYS331      0.1093
    106  NZ       -32.6800  -19.8190   32.1310 N.3   331  LYS331     -0.1314
@<TRIPOS>BOND
     1    70    69    2
     2    73    72    2
     3    67    68    1
     4    69    68    1
     5    74    72   am
     6    72    71    1
     7    92    91    2
     8    68    71    1
     9    88    87    1
    10    91    90    1
    11    58    57    2
    12    85    86    2
    13    85    84    1
    14    57    56    1
    15    87    84    1
    16    64    62   ar
    17    64    65   ar
    18    89    90    1
    19    66    65    1
    20    62    60   ar
    21    90    93    1
    22    93    94    1
    23    84    83    1
    24    75    76    1
    25    65    63   ar
    26    83    77   am
    27    56    55    1
    28    56    59    1
    29    60    59    1
    30    60    61   ar
    31    77    76    1
    32    77    78    2
    33    63    61   ar
    34    95    94    1
    35    95    96    1
    36    76    79    1
    37    96    97    1
    38    81    80   ar
    39     9     8    1
    40    79    80    1
    41    80    82   ar
    42     7     8    1
    43     7     6    1
    44    53    52    1
    45    30    27    1
    46     5     6    1
    47     5     2    1
    48   106   105    1
    49    35    36    1
    50    35    32    1
    51    51    50    2
    52     1     2    1
    53    31    32    1
    54    31    28   am
    55    27    28    1
    56    27    26    1
    57    52    54    1
    58    52    49    1
    59    50    49    1
    60     2     3    1
    61    32    33    1
    62    33    34    2
    63   105   104    1
    64    20    18    1
    65    28    29    2
    66    49    48    1
    67    26    23   am
    68    48    44   am
    69     3     4    2
    70    24    23    2
    71    40    39    2
    72    18    19    1
    73    18    17    2
    74   104   103    1
    75    23    22    1
    76   103   102    1
    77    25    22    1
    78    44    43    1
    79    44    45    2
    80    17    16    1
    81    43    42    1
    82    43    46    1
    83    39    42   am
    84    39    38    1
    85    41    38    1
    86    22    21    1
    87    98    99    1
    88   102    99    1
    89    46    47    1
    90    38    37    1
    91    16    15    1
    92    99   100    1
    93    15    14    1
    94   100   101    2
    95    14    11    1
    96    10    11    1
    97    11    12    1
    98    12    13    2
