@<TRIPOS>MOLECULE
tmp/6bt0B01.pdb
 108 107 0 0 0
SMALL
GASTEIGER

@<TRIPOS>ATOM
      1  N         21.1820   -5.4060  -21.5810 N.3    10  LEU10      -0.1245
      2  CA        19.7630   -5.2160  -21.8990 C.3    10  LEU10       0.1561
      3  C         18.9360   -6.4080  -21.4290 C.2    10  LEU10       0.2260
      4  O         19.4250   -7.5440  -21.4130 O.2    10  LEU10      -0.2867
      5  CB        19.5960   -5.0830  -23.4160 C.3    10  LEU10       0.0270
      6  CG        20.5940   -4.2260  -24.1990 C.3    10  LEU10       0.0019
      7  CD1       20.2890   -4.2540  -25.6830 C.3    10  LEU10       0.0001
      8  CD2       20.5640   -2.7910  -23.7320 C.3    10  LEU10       0.0001
      9  N         15.9290    0.0470   -9.7870 N.3    35  PRO35      -0.2102
     10  CA        15.6370   -0.5020  -11.1050 C.3    35  PRO35       0.1504
     11  C         15.3350    0.5490  -12.1770 C.2    35  PRO35       0.2576
     12  O         14.9760    0.1840  -13.2980 O.2    35  PRO35      -0.2718
     13  CB        14.4170   -1.4040  -10.8480 C.3    35  PRO35       0.0282
     14  CG        13.7530   -0.8410   -9.6300 C.3    35  PRO35       0.0208
     15  CD        14.8020   -0.0940   -8.8530 C.3    35  PRO35       0.0893
     16  N         15.5230    1.8310  -11.8490 N.am   36  THR36      -0.1939
     17  CA        15.0940    2.9460  -12.6810 C.3    36  THR36       0.2028
     18  C         16.0580    3.3540  -13.8020 C.2    36  THR36       0.2642
     19  O         15.7140    3.2420  -14.9880 O.2    36  THR36      -0.2714
     20  CB        14.9290    4.2150  -11.8310 C.3    36  THR36       0.1808
     21  OG1       14.0860    3.9530  -10.7070 O.3    36  THR36      -0.2208
     22  CG2       14.3550    5.3130  -12.6690 C.3    36  THR36       0.0379
     23  N         17.2420    3.8360  -13.4150 N.am   37  ILE37      -0.1963
     24  CA        18.0770    4.6920  -14.2660 C.3    37  ILE37       0.1727
     25  C         19.1950    3.8950  -14.9390 C.2    37  ILE37       0.2616
     26  O         19.5830    2.8330  -14.4840 O.2    37  ILE37      -0.2715
     27  CB        18.7520    5.8710  -13.4700 C.3    37  ILE37       0.0290
     28  CG1       17.8970    6.3530  -12.2730 C.3    37  ILE37       0.0022
     29  CG2       19.0780    7.0460  -14.4130 C.3    37  ILE37       0.0023
     30  CD1       18.5090    7.4860  -11.4690 C.3    37  ILE37       0.0001
     31  N         19.6930    4.4300  -16.0410 N.am   38  GLU38      -0.1977
     32  CA        20.9490    4.0010  -16.6160 C.3    38  GLU38       0.1602
     33  C         22.1150    4.4320  -15.7300 C.2    38  GLU38       0.2287
     34  O         22.3210    5.6160  -15.4520 O.2    38  GLU38      -0.2864
     35  CB        21.1440    4.6110  -17.9920 C.3    38  GLU38       0.0415
     36  CG        22.3910    4.1310  -18.7130 C.3    38  GLU38       0.1163
     37  CD        22.3720    4.5000  -20.1790 C.2    38  GLU38       0.3649
     38  OE1       21.5160    3.9380  -20.9160 O.co2  38  GLU38      -0.2457
     39  OE2       23.2100    5.3510  -20.5810 O.co2  38  GLU38      -0.2457
     40  N         21.4510   -0.8110  -18.4820 N.3    59  THR59      -0.1203
     41  CA        20.2480   -0.1220  -18.9000 C.3    59  THR59       0.1994
     42  C         19.1270   -0.3450  -17.9080 C.2    59  THR59       0.2618
     43  O         19.1860   -1.2470  -17.0750 O.2    59  THR59      -0.2717
     44  CB        19.7560   -0.6060  -20.2690 C.3    59  THR59       0.1784
     45  OG1       19.3480   -1.9750  -20.1800 O.3    59  THR59      -0.2211
     46  CG2       20.8540   -0.4430  -21.3350 C.3    59  THR59       0.0376
     47  N         18.0990    0.4830  -18.0310 N.am   60  ALA60      -0.1965
     48  CA        16.9070    0.4290  -17.1720 C.3    60  ALA60       0.1728
     49  C         16.2180   -0.9460  -17.1240 C.2    60  ALA60       0.2617
     50  O         16.1910   -1.6120  -16.0910 O.2    60  ALA60      -0.2715
     51  CB        15.9150    1.4790  -17.6420 C.3    60  ALA60       0.0334
     52  N         15.6920   -1.3570  -18.2690 N.am   61  GLY61      -0.1940
     53  CA        14.8860   -2.5600  -18.3670 C.3    61  GLY61       0.2014
     54  C         13.8150   -2.2970  -19.3970 C.2    61  GLY61       0.2638
     55  O         12.9420   -1.4610  -19.1850 O.2    61  GLY61      -0.2714
     56  N         13.8930   -3.0180  -20.5030 N.am   62  GLN62      -0.1977
     57  CA        12.9980   -2.8480  -21.6350 C.3    62  GLN62       0.1601
     58  C         11.8400   -3.8270  -21.4840 C.2    62  GLN62       0.2287
     59  O         11.8770   -4.7330  -20.6410 O.2    62  GLN62      -0.2864
     60  CB        13.7320   -3.1390  -22.9640 C.3    62  GLN62       0.0394
     61  CG        14.9430   -2.2550  -23.2900 C.3    62  GLN62       0.0908
     62  CD        16.1810   -2.5350  -22.4250 C.2    62  GLN62       0.2608
     63  OE1       16.1640   -3.3670  -21.5170 O.2    62  GLN62      -0.2717
     64  NE2       17.2520   -1.8170  -22.6970 N.am   62  GLN62      -0.0878
     65  N          8.7910   -1.0980  -25.9080 N.3    66  SER66      -0.1202
     66  CA         9.8750   -0.1360  -25.7130 C.3    66  SER66       0.2020
     67  C         10.4050    0.3340  -27.0730 C.2    66  SER66       0.2619
     68  O         10.3670   -0.3900  -28.0750 O.2    66  SER66      -0.2717
     69  CB        11.0150   -0.7290  -24.8580 C.3    66  SER66       0.2103
     70  OG        10.8630   -0.4630  -23.4700 O.3    66  SER66      -0.2182
     71  N         10.9290    1.5540  -27.0560 N.am   67  ILE67      -0.1965
     72  CA        11.3020    2.3030  -28.2370 C.3    67  ILE67       0.1727
     73  C         12.8010    2.5650  -28.1700 C.2    67  ILE67       0.2616
     74  O         13.2710    3.3740  -27.3570 O.2    67  ILE67      -0.2715
     75  CB        10.5670    3.6760  -28.2620 C.3    67  ILE67       0.0290
     76  CG1        9.0430    3.5220  -28.0420 C.3    67  ILE67       0.0022
     77  CG2       10.8640    4.4300  -29.5560 C.3    67  ILE67       0.0023
     78  CD1        8.4090    4.7080  -27.3430 C.3    67  ILE67       0.0001
     79  N         13.5600    1.8590  -28.9980 N.am   68  PHE68      -0.1960
     80  CA        14.9540    2.2210  -29.2190 C.3    68  PHE68       0.1756
     81  C         14.9320    3.4710  -30.0680 C.2    68  PHE68       0.2461
     82  O         14.1410    3.5400  -31.0070 O.2    68  PHE68      -0.2730
     83  CB        15.6970    1.1300  -29.9770 C.3    68  PHE68       0.0574
     84  CG        15.8950   -0.1190  -29.1830 C.ar   68  PHE68      -0.0200
     85  CD1       16.9320   -0.2130  -28.2690 C.ar   68  PHE68      -0.0042
     86  CD2       15.0390   -1.1980  -29.3360 C.ar   68  PHE68      -0.0042
     87  CE1       17.1190   -1.3680  -27.5270 C.ar   68  PHE68      -0.0003
     88  CE2       15.2180   -2.3550  -28.5950 C.ar   68  PHE68      -0.0003
     89  CZ        16.2610   -2.4400  -27.6920 C.ar   68  PHE68      -0.0000
     90  N         15.7660    4.4760  -29.7400 N.am   69  PRO69      -0.2727
     91  CA        15.9520    5.5580  -30.7200 C.3    69  PRO69       0.1402
     92  C         16.4640    4.9980  -32.0670 C.2    69  PRO69       0.2269
     93  O         17.3030    4.0910  -32.0530 O.2    69  PRO69      -0.2865
     94  CB        17.0030    6.4550  -30.0510 C.3    69  PRO69       0.0296
     95  CG        16.8410    6.1980  -28.5870 C.3    69  PRO69       0.0237
     96  CD        16.4380    4.7600  -28.4580 C.3    69  PRO69       0.0939
     97  N         20.8090    6.7560  -31.7490 N.3    72  TYR72      -0.1241
     98  CA        21.5280    6.4910  -30.5070 C.3    72  TYR72       0.1605
     99  C         22.9920    5.9450  -30.6440 C.2    72  TYR72       0.2264
    100  O         23.9430    6.7410  -30.6940 O.2    72  TYR72      -0.2867
    101  CB        20.6290    5.6300  -29.5890 C.3    72  TYR72       0.0534
    102  CG        21.3740    4.8790  -28.5150 C.ar   72  TYR72      -0.0201
    103  CD1       22.0000    5.5590  -27.4690 C.ar   72  TYR72      -0.0009
    104  CD2       21.4870    3.4840  -28.5670 C.ar   72  TYR72      -0.0009
    105  CE1       22.7110    4.8700  -26.5010 C.ar   72  TYR72       0.0417
    106  CE2       22.1950    2.7860  -27.6080 C.ar   72  TYR72       0.0417
    107  CZ        22.8090    3.4790  -26.5780 C.ar   72  TYR72       0.1957
    108  OH        23.5040    2.7820  -25.6130 O.3    72  TYR72      -0.2866
@<TRIPOS>BOND
     1    92    93    2
     2    92    91    1
     3    97    98    1
     4    82    81    2
     5    91    94    1
     6    91    90    1
     7   100    99    2
     8    99    98    1
     9    98   101    1
    10    81    90   am
    11    81    80    1
    12    94    95    1
    13    83    80    1
    14    83    84    1
    15    90    96    1
    16   101   102    1
    17    77    75    1
    18    86    84   ar
    19    86    88   ar
    20    80    79    1
    21    84    85   ar
    22    79    73   am
    23    88    89   ar
    24    95    96    1
    25   104   102   ar
    26   104   106   ar
    27   102   103   ar
    28    85    87   ar
    29    75    72    1
    30    75    76    1
    31    72    73    1
    32    72    71    1
    33    73    74    2
    34    68    67    2
    35    76    78    1
    36    89    87   ar
    37   106   107   ar
    38   103   105   ar
    39    67    71   am
    40    67    66    1
    41   107   105   ar
    42   107   108    1
    43    65    66    1
    44    66    69    1
    45     7     6    1
    46    69    70    1
    47     6     8    1
    48     6     5    1
    49     5     2    1
    50    61    60    1
    51    61    62    1
    52    60    57    1
    53    64    62   am
    54    62    63    2
    55     2     1    1
    56     2     3    1
    57    57    58    1
    58    57    56    1
    59    58    59    2
    60     3     4    2
    61    46    44    1
    62    38    37   ar
    63    39    37   ar
    64    56    54   am
    65    44    45    1
    66    44    41    1
    67    37    36    1
    68    54    55    2
    69    54    53    1
    70    41    40    1
    71    41    42    1
    72    36    35    1
    73    53    52    1
    74    52    49   am
    75    47    42   am
    76    47    48    1
    77    35    32    1
    78    42    43    2
    79    51    48    1
    80    48    49    1
    81    49    50    2
    82    32    31    1
    83    32    33    1
    84    31    25   am
    85    33    34    2
    86    19    18    2
    87    25    26    2
    88    25    24    1
    89    29    27    1
    90    24    27    1
    91    24    23    1
    92    18    23   am
    93    18    17    1
    94    27    28    1
    95    12    11    2
    96    17    16    1
    97    17    20    1
    98    22    20    1
    99    28    30    1
   100    11    16   am
   101    11    10    1
   102    20    21    1
   103    10    13    1
   104    10     9    1
   105    13    14    1
   106     9    15    1
   107    14    15    1
