@<TRIPOS>MOLECULE
tmp/6bt4A00.pdb
 146 139 0 0 0
SMALL
GASTEIGER

@<TRIPOS>ATOM
      1  N         -8.2890  -23.2080  -12.7480 N.3    28  ARG28      -0.1245
      2  CA        -8.8280  -22.3210  -13.7730 C.3    28  ARG28       0.1563
      3  C         -9.7670  -21.2420  -13.1830 C.2    28  ARG28       0.2260
      4  O         -9.7810  -20.0910  -13.6460 O.2    28  ARG28      -0.2867
      5  CB        -9.5170  -23.1750  -14.8550 C.3    28  ARG28       0.0307
      6  CG        -8.5180  -24.1930  -15.4850 C.3    28  ARG28       0.0489
      7  CD        -9.1640  -25.2390  -16.4120 C.3    28  ARG28       0.2205
      8  NE       -10.1750  -24.6300  -17.2650 N.pl3  28  ARG28      -0.0865
      9  CZ        -9.9100  -23.9910  -18.4010 C.cat  28  ARG28       0.5346
     10  NH1       -8.6540  -23.8890  -18.8460 N.pl3  28  ARG28       0.1354
     11  NH2      -10.9040  -23.4640  -19.0970 N.pl3  28  ARG28       0.1354
     12  N        -13.2860  -12.9160  -22.2980 N.3    71  VAL71      -0.1231
     13  CA       -11.9420  -13.3280  -21.9420 C.3    71  VAL71       0.1692
     14  C        -11.8640  -14.8480  -21.8940 C.2    71  VAL71       0.2592
     15  O        -10.8610  -15.4260  -22.3000 O.2    71  VAL71      -0.2718
     16  CB       -11.4870  -12.7120  -20.6080 C.3    71  VAL71       0.0266
     17  CG1      -10.0740  -13.1730  -20.2630 C.3    71  VAL71       0.0020
     18  CG2      -11.5230  -11.1820  -20.7080 C.3    71  VAL71       0.0020
     19  N        -12.9320  -15.4980  -21.4410 N.am   72  ILE72      -0.1966
     20  CA       -12.9840  -16.9530  -21.5050 C.3    72  ILE72       0.1727
     21  C        -14.1040  -17.4480  -22.4180 C.2    72  ILE72       0.2616
     22  O        -15.1630  -16.8420  -22.5060 O.2    72  ILE72      -0.2715
     23  CB       -13.1780  -17.5840  -20.1140 C.3    72  ILE72       0.0290
     24  CG1      -14.5120  -17.1570  -19.5190 C.3    72  ILE72       0.0022
     25  CG2      -12.0470  -17.1830  -19.1810 C.3    72  ILE72       0.0023
     26  CD1      -14.8460  -17.8510  -18.2290 C.3    72  ILE72       0.0001
     27  N        -13.8160  -18.5290  -23.1310 N.am   73  LYS73      -0.1963
     28  CA       -14.8190  -19.3710  -23.7620 C.3    73  LYS73       0.1728
     29  C        -14.8780  -20.5610  -22.8440 C.2    73  LYS73       0.2617
     30  O        -14.2920  -20.5350  -21.7680 O.2    73  LYS73      -0.2715
     31  CB       -14.4170  -19.7970  -25.1790 C.3    73  LYS73       0.0311
     32  CG       -14.6800  -18.7810  -26.2890 C.3    73  LYS73       0.0038
     33  CD       -14.1860  -19.3170  -27.6440 C.3    73  LYS73       0.0206
     34  CE       -14.9490  -18.7240  -28.8300 C.3    73  LYS73       0.1093
     35  NZ       -14.5280  -19.3150  -30.1360 N.3    73  LYS73      -0.1314
     36  N        -15.5310  -21.6320  -23.2430 N.am   74  GLY74      -0.1940
     37  CA       -15.3600  -22.8290  -22.4460 C.3    74  GLY74       0.2014
     38  C        -14.1300  -23.5900  -22.9000 C.2    74  GLY74       0.2640
     39  O        -13.2830  -23.0690  -23.6310 O.2    74  GLY74      -0.2714
     40  N        -14.0470  -24.8390  -22.4680 N.am   75  THR75      -0.1936
     41  CA       -13.2110  -25.8210  -23.1310 C.3    75  THR75       0.2028
     42  C        -13.9980  -26.4280  -24.2860 C.2    75  THR75       0.2643
     43  O        -13.4700  -27.2130  -25.0640 O.2    75  THR75      -0.2714
     44  CB       -12.7840  -26.9430  -22.1750 C.3    75  THR75       0.1808
     45  OG1      -13.9570  -27.6350  -21.7140 O.3    75  THR75      -0.2208
     46  CG2      -12.0080  -26.3670  -20.9810 C.3    75  THR75       0.0379
     47  N        -15.2690  -26.0500  -24.3880 N.am   76  GLY76      -0.1939
     48  CA       -16.2010  -26.7250  -25.2690 C.3    76  GLY76       0.2014
     49  C        -17.1290  -27.5980  -24.4410 C.2    76  GLY76       0.2638
     50  O        -18.3210  -27.6900  -24.7240 O.2    76  GLY76      -0.2714
     51  N        -16.5750  -28.2380  -23.4140 N.am   77  ASN77      -0.1972
     52  CA       -17.3600  -29.0250  -22.4580 C.3    77  ASN77       0.1688
     53  C        -17.3720  -28.3500  -21.0940 C.2    77  ASN77       0.2292
     54  O        -16.8780  -28.9100  -20.1130 O.2    77  ASN77      -0.2864
     55  CB       -16.8030  -30.4450  -22.3080 C.3    77  ASN77       0.1181
     56  CG       -16.4450  -31.0850  -23.6370 C.2    77  ASN77       0.2629
     57  OD1      -16.8830  -30.6340  -24.6960 O.2    77  ASN77      -0.2716
     58  ND2      -15.6510  -32.1530  -23.5850 N.am   77  ASN77      -0.0877
     59  N        -16.4540  -24.9790  -18.4400 N.3    79  PHE79      -0.1241
     60  CA       -15.2760  -24.1850  -18.1370 C.3    79  PHE79       0.1605
     61  C        -14.2590  -24.9440  -17.2630 C.2    79  PHE79       0.2264
     62  O        -13.0940  -24.5690  -17.1970 O.2    79  PHE79      -0.2867
     63  CB       -15.6940  -22.8680  -17.4600 C.3    79  PHE79       0.0534
     64  CG       -14.5390  -22.0080  -17.0710 C.ar   79  PHE79      -0.0203
     65  CD1      -13.7450  -21.4230  -18.0400 C.ar   79  PHE79      -0.0042
     66  CD2      -14.2220  -21.8110  -15.7390 C.ar   79  PHE79      -0.0042
     67  CE1      -12.6450  -20.6550  -17.6870 C.ar   79  PHE79      -0.0003
     68  CE2      -13.1290  -21.0300  -15.3750 C.ar   79  PHE79      -0.0003
     69  CZ       -12.3370  -20.4590  -16.3510 C.ar   79  PHE79      -0.0000
     70  N         -5.0280  -25.0260  -14.2010 N.3    85  ILE85      -0.1245
     71  CA        -4.7960  -24.3300  -15.4560 C.3    85  ILE85       0.1561
     72  C         -3.3690  -24.6220  -15.9460 C.2    85  ILE85       0.2260
     73  O         -2.4220  -24.6480  -15.1720 O.2    85  ILE85      -0.2867
     74  CB        -5.0550  -22.8120  -15.3120 C.3    85  ILE85       0.0252
     75  CG1       -5.2170  -22.1650  -16.6920 C.3    85  ILE85       0.0019
     76  CG2       -3.9690  -22.1480  -14.4800 C.3    85  ILE85       0.0019
     77  CD1       -5.7170  -20.7050  -16.6760 C.3    85  ILE85       0.0001
     78  N         -3.3750  -22.4340  -21.6430 N.3    89  SER89      -0.1217
     79  CA        -4.6380  -21.8100  -21.2640 C.3    89  SER89       0.1889
     80  C         -4.4100  -20.4370  -20.6350 C.2    89  SER89       0.2288
     81  O         -5.1450  -19.4900  -20.9250 O.2    89  SER89      -0.2866
     82  CB        -5.4360  -22.6990  -20.3050 C.3    89  SER89       0.2089
     83  OG        -5.8610  -23.8670  -20.9720 O.3    89  SER89      -0.2183
     84  N         -3.8880  -18.1440  -23.4050 N.3    92  SER92      -0.1202
     85  CA        -5.1510  -17.8030  -24.0090 C.3    92  SER92       0.2020
     86  C         -5.9000  -16.7180  -23.2010 C.2    92  SER92       0.2618
     87  O         -6.4510  -15.7930  -23.7990 O.2    92  SER92      -0.2717
     88  CB        -6.0100  -19.0470  -24.1650 C.3    92  SER92       0.2103
     89  OG        -7.1980  -18.7190  -24.8570 O.3    92  SER92      -0.2182
     90  N         -5.8940  -16.8130  -21.8670 N.am   93  LEU93      -0.1979
     91  CA        -6.5030  -15.7750  -21.0140 C.3    93  LEU93       0.1596
     92  C         -5.9090  -14.3910  -21.2660 C.2    93  LEU93       0.2287
     93  O         -6.6380  -13.4050  -21.3990 O.2    93  LEU93      -0.2864
     94  CB        -6.3350  -16.0870  -19.5250 C.3    93  LEU93       0.0297
     95  CG        -7.0860  -17.2380  -18.8720 C.3    93  LEU93       0.0022
     96  CD1       -6.8290  -17.2470  -17.3690 C.3    93  LEU93       0.0001
     97  CD2       -8.5660  -17.1190  -19.1590 C.3    93  LEU93       0.0001
     98  N         -6.5040  -12.8850  -24.9840 N.3    96  GLU96      -0.1245
     99  CA        -7.8810  -12.4300  -25.0910 C.3    96  GLU96       0.1567
    100  C         -8.1390  -11.2070  -24.2410 C.2    96  GLU96       0.2260
    101  O         -8.8070  -10.2850  -24.6730 O.2    96  GLU96      -0.2867
    102  CB        -8.8640  -13.5380  -24.6800 C.3    96  GLU96       0.0388
    103  CG        -8.8390  -14.7600  -25.5700 C.3    96  GLU96       0.1160
    104  CD        -9.4100  -14.4890  -26.9520 C.2    96  GLU96       0.3649
    105  OE1      -10.0700  -13.4410  -27.1340 O.co2  96  GLU96      -0.2457
    106  OE2       -9.1980  -15.3260  -27.8570 O.co2  96  GLU96      -0.2457
    107  N         -2.0860  -29.1150  -30.5350 N.3   119  ASN119     -0.1225
    108  CA        -3.4670  -29.2750  -30.9820 C.3   119  ASN119      0.1785
    109  C         -4.2090  -27.9370  -31.1160 C.2   119  ASN119      0.2597
    110  O         -4.8920  -27.7000  -32.1110 O.2   119  ASN119     -0.2718
    111  CB        -4.2160  -30.2170  -30.0240 C.3   119  ASN119      0.1169
    112  CG        -3.5170  -30.3590  -28.6710 C.2   119  ASN119      0.2627
    113  OD1       -3.6810  -29.5210  -27.7840 O.2   119  ASN119     -0.2716
    114  ND2       -2.7300  -31.4200  -28.5140 N.am  119  ASN119     -0.0877
    115  N         -4.0760  -27.0750  -30.1100 N.am  120  TRP120     -0.1976
    116  CA        -4.6500  -25.7300  -30.1360 C.3   120  TRP120      0.1640
    117  C         -3.7360  -24.7980  -29.3680 C.2   120  TRP120      0.2290
    118  O         -2.9300  -25.2500  -28.5600 O.2   120  TRP120     -0.2864
    119  CB        -6.0540  -25.7030  -29.5180 C.3   120  TRP120      0.0576
    120  CG        -6.0470  -25.9000  -28.0290 C.ar  120  TRP120      0.0006
    121  CD1       -6.1310  -27.0910  -27.3510 C.ar  120  TRP120      0.0946
    122  CD2       -5.9400  -24.8780  -27.0290 C.ar  120  TRP120      0.0152
    123  NE1       -6.0890  -26.8670  -25.9940 N.ar  120  TRP120     -0.2442
    124  CE2       -5.9660  -25.5180  -25.7710 C.ar  120  TRP120      0.0810
    125  CE3       -5.8450  -23.4860  -27.0740 C.ar  120  TRP120      0.0012
    126  CZ2       -5.8860  -24.8080  -24.5720 C.ar  120  TRP120      0.0191
    127  CZ3       -5.7620  -22.7860  -25.8870 C.ar  120  TRP120      0.0001
    128  CH2       -5.7850  -23.4460  -24.6520 C.ar  120  TRP120      0.0015
    129  N         -1.2250  -18.4580  -29.6470 N.3   124  LYS124     -0.1245
    130  CA        -1.3340  -17.6750  -28.4210 C.3   124  LYS124      0.1561
    131  C         -0.0740  -17.7750  -27.5660 C.2   124  LYS124      0.2260
    132  O          0.3410  -16.7920  -26.9540 O.2   124  LYS124     -0.2867
    133  CB        -2.5830  -18.1000  -27.6430 C.3   124  LYS124      0.0271
    134  CG        -3.8440  -17.6840  -28.4010 C.3   124  LYS124      0.0035
    135  CD        -5.1040  -18.1730  -27.7560 C.3   124  LYS124      0.0206
    136  CE        -6.3210  -17.7070  -28.5410 C.3   124  LYS124      0.1093
    137  NZ        -7.5520  -18.3920  -28.0580 N.3   124  LYS124     -0.1314
    138  N          1.4350  -27.7460  -21.7430 N.3   144  LYS144     -0.1245
    139  CA         0.4490  -28.4730  -20.9400 C.3   144  LYS144      0.1561
    140  C          0.8000  -28.5370  -19.4560 C.2   144  LYS144      0.2260
    141  O          0.0410  -29.1080  -18.6660 O.2   144  LYS144     -0.2867
    142  CB         0.2600  -29.8920  -21.4770 C.3   144  LYS144      0.0271
    143  CG        -0.0520  -29.9560  -22.9620 C.3   144  LYS144      0.0035
    144  CD        -1.4790  -29.5270  -23.2780 C.3   144  LYS144      0.0206
    145  CE        -1.9320  -30.1090  -24.6240 C.3   144  LYS144      0.1093
    146  NZ        -3.3980  -30.4240  -24.6700 N.3   144  LYS144     -0.1314
@<TRIPOS>BOND
     1   110   109    2
     2   109   108    1
     3   109   115   am
     4   108   107    1
     5   108   111    1
     6   116   115    1
     7   116   119    1
     8   116   117    1
     9    35    34    1
    10   111   112    1
    11   129   130    1
    12   119   120    1
    13   117   118    2
    14    34    33    1
    15   112   114   am
    16   112   113    2
    17   136   137    1
    18   136   135    1
    19   130   133    1
    20   130   131    1
    21   134   135    1
    22   134   133    1
    23   120   121   ar
    24   120   122   ar
    25   106   104   ar
    26    33    32    1
    27   131   132    2
    28   121   123   ar
    29   105   104   ar
    30   125   122   ar
    31   125   127   ar
    32   122   124   ar
    33   104   103    1
    34    32    31    1
    35   123   124   ar
    36   127   128   ar
    37   124   126   ar
    38   103   102    1
    39    48    49    1
    40    48    47    1
    41    31    28    1
    42    99    98    1
    43    99   102    1
    44    99   100    1
    45    43    42    2
    46    89    88    1
    47    50    49    2
    48    57    56    2
    49   101   100    2
    50   146   145    1
    51   128   126   ar
    52   145   144    1
    53    49    51   am
    54    47    42   am
    55    42    41    1
    56    88    85    1
    57    85    84    1
    58    85    86    1
    59    87    86    2
    60    28    27    1
    61    28    29    1
    62    56    58   am
    63    56    55    1
    64    39    38    2
    65    51    52    1
    66   144   143    1
    67    36    29   am
    68    36    37    1
    69    86    90   am
    70    41    40    1
    71    41    44    1
    72    27    21   am
    73   143   142    1
    74    38    40   am
    75    38    37    1
    76    29    30    2
    77    22    21    2
    78    52    55    1
    79    52    53    1
    80    21    20    1
    81    15    14    2
    82    12    13    1
    83    44    45    1
    84    44    46    1
    85    13    14    1
    86    13    16    1
    87    14    19   am
    88    90    91    1
    89   138   139    1
    90    78    79    1
    91    20    19    1
    92    20    23    1
    93   142   139    1
    94    93    92    2
    95    92    91    1
    96    79    80    1
    97    79    82    1
    98    53    54    2
    99    91    94    1
   100    83    82    1
   101   139   140    1
   102    81    80    2
   103    18    16    1
   104    16    17    1
   105    23    24    1
   106    23    25    1
   107    94    95    1
   108    24    26    1
   109   140   141    2
   110    97    95    1
   111    11     9    1
   112    95    96    1
   113    10     9    1
   114    59    60    1
   115     9     8    2
   116    60    63    1
   117    60    61    1
   118    65    67   ar
   119    65    64   ar
   120    67    69   ar
   121    63    64    1
   122     8     7    1
   123    61    62    2
   124    64    66   ar
   125    75    77    1
   126    75    74    1
   127     7     6    1
   128    69    68   ar
   129    72    71    1
   130    72    73    2
   131    66    68   ar
   132     6     5    1
   133    71    74    1
   134    71    70    1
   135    74    76    1
   136     5     2    1
   137     2     3    1
   138     2     1    1
   139     4     3    2
