@<TRIPOS>MOLECULE
tmp/6bt5A00.pdb
 115 107 0 0 0
SMALL
GASTEIGER

@<TRIPOS>ATOM
      1  N        -28.3130  -55.3580   32.6320 N.3    35  LYS35      -0.1245
      2  CA       -26.9300  -55.5750   33.0570 C.3    35  LYS35       0.1561
      3  C        -26.5360  -54.6780   34.2340 C.2    35  LYS35       0.2260
      4  O        -25.6970  -55.0540   35.0540 O.2    35  LYS35      -0.2867
      5  CB       -25.9840  -55.3480   31.8730 C.3    35  LYS35       0.0271
      6  CG       -24.5690  -55.8770   32.0600 C.3    35  LYS35       0.0035
      7  CD       -23.7190  -55.5730   30.8380 C.3    35  LYS35       0.0206
      8  CE       -22.2660  -55.9550   31.0580 C.3    35  LYS35       0.1093
      9  NZ       -21.4570  -55.7600   29.8220 N.3    35  LYS35      -0.1314
     10  N        -28.8460  -55.9990   38.3790 N.3    39  ARG39      -0.1245
     11  CA       -27.7420  -56.5370   39.1770 C.3    39  ARG39       0.1563
     12  C        -27.4230  -55.6570   40.3830 C.2    39  ARG39       0.2260
     13  O        -27.1540  -56.1650   41.4720 O.2    39  ARG39      -0.2867
     14  CB       -26.4910  -56.7300   38.3140 C.3    39  ARG39       0.0307
     15  CG       -26.6460  -57.7650   37.2100 C.3    39  ARG39       0.0489
     16  CD       -25.3350  -57.9980   36.4800 C.3    39  ARG39       0.2205
     17  NE       -25.5150  -58.8320   35.2940 N.pl3  39  ARG39      -0.0865
     18  CZ       -24.5580  -59.1150   34.4140 C.cat  39  ARG39       0.5346
     19  NH1      -23.3320  -58.6330   34.5710 N.pl3  39  ARG39       0.1354
     20  NH2      -24.8300  -59.8840   33.3700 N.pl3  39  ARG39       0.1354
     21  N        -18.2260  -56.6050   36.7480 N.3    94  ALA94      -0.1231
     22  CA       -18.8980  -57.3880   35.7130 C.3    94  ALA94       0.1694
     23  C        -17.9200  -57.8950   34.6510 C.2    94  ALA94       0.2592
     24  O        -17.6770  -59.0990   34.5500 O.2    94  ALA94      -0.2718
     25  CB       -20.0240  -56.5830   35.0760 C.3    94  ALA94       0.0304
     26  N        -17.3640  -56.9710   33.8670 N.am   95  ALA95      -0.1966
     27  CA       -16.4100  -57.3140   32.8140 C.3    95  ALA95       0.1728
     28  C        -15.0580  -57.7040   33.4030 C.2    95  ALA95       0.2616
     29  O        -14.6560  -57.1910   34.4500 O.2    95  ALA95      -0.2715
     30  CB       -16.2590  -56.1600   31.8350 C.3    95  ALA95       0.0334
     31  N        -14.3650  -58.6120   32.7180 N.am   96  SER96      -0.1950
     32  CA       -13.0900  -59.1510   33.1920 C.3    96  SER96       0.1924
     33  C        -11.9710  -58.1140   33.2450 C.2    96  SER96       0.2314
     34  O        -11.2110  -58.0730   34.2130 O.2    96  SER96      -0.2863
     35  CB       -12.6630  -60.3410   32.3360 C.3    96  SER96       0.2116
     36  OG       -13.4790  -61.4690   32.6010 O.3    96  SER96      -0.2180
     37  N        -19.6580  -61.8600   37.5340 N.3   117  ALA117     -0.1231
     38  CA       -19.7510  -62.0400   36.0820 C.3   117  ALA117      0.1694
     39  C        -18.4250  -62.3220   35.3650 C.2   117  ALA117      0.2593
     40  O        -18.4200  -62.9540   34.3070 O.2   117  ALA117     -0.2718
     41  CB       -20.4550  -60.8440   35.4450 C.3   117  ALA117      0.0304
     42  N        -17.3160  -61.8460   35.9330 N.am  118  SER118     -0.1938
     43  CA       -15.9950  -61.9560   35.2990 C.3   118  SER118      0.2055
     44  C        -15.5120  -63.4020   35.1900 C.2   118  SER118      0.2643
     45  O        -15.4200  -64.1110   36.1930 O.2   118  SER118     -0.2714
     46  CB       -14.9670  -61.1030   36.0450 C.3   118  SER118      0.2130
     47  OG       -15.3580  -59.7420   36.0570 O.3   118  SER118     -0.2179
     48  N        -15.2000  -63.8240   33.9660 N.am  119  THR119     -0.1950
     49  CA       -14.8950  -65.2310   33.6850 C.3   119  THR119      0.1897
     50  C        -13.5330  -65.4880   33.0240 C.2   119  THR119      0.2313
     51  O        -13.2270  -66.6270   32.6700 O.2   119  THR119     -0.2863
     52  CB       -16.0060  -65.8940   32.8230 C.3   119  THR119      0.1794
     53  OG1      -16.2270  -65.1180   31.6390 O.3   119  THR119     -0.2208
     54  CG2      -17.3130  -66.0150   33.6000 C.3   119  THR119      0.0378
     55  N        -11.5410  -60.5070   28.4580 N.3   167  TYR167     -0.1241
     56  CA       -12.6080  -61.5000   28.3170 C.3   167  TYR167      0.1605
     57  C        -12.7460  -62.0350   26.8930 C.2   167  TYR167      0.2264
     58  O        -12.8000  -63.2490   26.6850 O.2   167  TYR167     -0.2867
     59  CB       -13.9430  -60.9250   28.8030 C.3   167  TYR167      0.0534
     60  CG       -15.1580  -61.7480   28.4270 C.ar  167  TYR167     -0.0201
     61  CD1      -15.3910  -62.9960   29.0090 C.ar  167  TYR167     -0.0009
     62  CD2      -16.0840  -61.2710   27.4990 C.ar  167  TYR167     -0.0009
     63  CE1      -16.5070  -63.7510   28.6660 C.ar  167  TYR167      0.0417
     64  CE2      -17.2040  -62.0180   27.1530 C.ar  167  TYR167      0.0417
     65  CZ       -17.4100  -63.2550   27.7420 C.ar  167  TYR167      0.1957
     66  OH       -18.5160  -63.9960   27.4050 O.3   167  TYR167     -0.2866
     67  N        -19.3230  -58.3840   24.1960 N.3   223  ASN223     -0.1225
     68  CA       -20.3170  -57.7880   25.0920 C.3   223  ASN223      0.1785
     69  C        -21.6520  -57.5130   24.3960 C.2   223  ASN223      0.2597
     70  O        -21.7040  -57.3800   23.1720 O.2   223  ASN223     -0.2718
     71  CB       -19.7700  -56.5220   25.7720 C.3   223  ASN223      0.1169
     72  CG       -19.3140  -55.4620   24.7790 C.2   223  ASN223      0.2627
     73  OD1      -20.1080  -54.9410   23.9950 O.2   223  ASN223     -0.2716
     74  ND2      -18.0310  -55.1240   24.8280 N.am  223  ASN223     -0.0877
     75  N        -22.7190  -57.4260   25.1900 N.am  224  GLU224     -0.1979
     76  CA       -24.0920  -57.2960   24.6820 C.3   224  GLU224      0.1602
     77  C        -24.3160  -56.1250   23.7180 C.2   224  GLU224      0.2287
     78  O        -25.1420  -56.2190   22.8080 O.2   224  GLU224     -0.2864
     79  CB       -25.1010  -57.2470   25.8400 C.3   224  GLU224      0.0415
     80  CG       -24.8590  -56.1390   26.8640 C.3   224  GLU224      0.1163
     81  CD       -25.9010  -56.1190   27.9680 C.2   224  GLU224      0.3649
     82  OE1      -26.5830  -55.0840   28.1200 O.co2 224  GLU224     -0.2457
     83  OE2      -26.0430  -57.1350   28.6820 O.co2 224  GLU224     -0.2457
     84  N        -21.2480  -66.4110   27.6560 N.3   249  ASP249     -0.1225
     85  CA       -22.0240  -65.9350   28.8100 C.3   249  ASP249      0.1805
     86  C        -22.4750  -64.4770   28.6970 C.2   249  ASP249      0.2598
     87  O        -23.5030  -64.0980   29.2620 O.2   249  ASP249     -0.2718
     88  CB       -21.2540  -66.1540   30.1180 C.3   249  ASP249      0.1424
     89  CG       -19.9180  -65.4370   30.1400 C.2   249  ASP249      0.3668
     90  OD1      -19.0230  -65.8110   29.3530 O.co2 249  ASP249     -0.2456
     91  OD2      -19.7600  -64.5040   30.9560 O.co2 249  ASP249     -0.2456
     92  N        -21.7050  -63.6720   27.9680 N.am  250  SER250     -0.1952
     93  CA       -22.0470  -62.2700   27.7260 C.3   250  SER250      0.1924
     94  C        -23.2500  -62.1260   26.7910 C.2   250  SER250      0.2314
     95  O        -23.9160  -61.0890   26.7840 O.2   250  SER250     -0.2863
     96  CB       -20.8430  -61.5060   27.1740 C.3   250  SER250      0.2116
     97  OG       -20.3380  -62.1280   26.0060 O.3   250  SER250     -0.2180
     98  N        -30.0390  -63.2080   27.2300 N.3   254  LYS254     -0.1245
     99  CA       -30.3670  -61.7890   27.3610 C.3   254  LYS254      0.1561
    100  C        -31.3370  -61.3010   26.2890 C.2   254  LYS254      0.2260
    101  O        -31.3180  -61.7790   25.1530 O.2   254  LYS254     -0.2867
    102  CB       -29.0960  -60.9390   27.3150 C.3   254  LYS254      0.0271
    103  CG       -28.1720  -61.1030   28.5050 C.3   254  LYS254      0.0035
    104  CD       -26.8770  -60.3570   28.2600 C.3   254  LYS254      0.0206
    105  CE       -25.9380  -60.4600   29.4430 C.3   254  LYS254      0.1093
    106  NZ       -24.6770  -59.7090   29.1900 N.3   254  LYS254     -0.1314
    107  N        -27.7010  -63.1690   35.5080 N.3   330  LYS330     -0.1245
    108  CA       -26.6500  -63.2160   36.5250 C.3   330  LYS330      0.1561
    109  C        -27.0370  -62.5560   37.8520 C.2   330  LYS330      0.2260
    110  O        -26.1710  -62.2480   38.6750 O.2   330  LYS330     -0.2867
    111  CB       -25.3430  -62.6370   35.9710 C.3   330  LYS330      0.0271
    112  CG       -24.7420  -63.4700   34.8490 C.3   330  LYS330      0.0035
    113  CD       -23.4270  -62.8950   34.3580 C.3   330  LYS330      0.0206
    114  CE       -22.9620  -63.5930   33.0890 C.3   330  LYS330      0.1093
    115  NZ       -23.8170  -63.2530   31.9160 N.3   330  LYS330     -0.1314
@<TRIPOS>BOND
     1    78    77    2
     2    70    69    2
     3    77    76    1
     4    73    72    2
     5    67    68    1
     6    69    68    1
     7    69    75   am
     8    76    75    1
     9    76    79    1
    10    72    74   am
    11    72    71    1
    12    68    71    1
    13   101   100    2
    14    79    80    1
    15    97    96    1
    16   100    99    1
    17    58    57    2
    18    95    94    2
    19    94    93    1
    20    80    81    1
    21    57    56    1
    22    64    62   ar
    23    64    65   ar
    24    96    93    1
    25    98    99    1
    26   102    99    1
    27   102   103    1
    28    66    65    1
    29    62    60   ar
    30    84    85    1
    31    93    92    1
    32    65    63   ar
    33    81    82   ar
    34    81    83   ar
    35    92    86   am
    36   104   103    1
    37   104   105    1
    38    56    55    1
    39    56    59    1
    40    60    59    1
    41    60    61   ar
    42    63    61   ar
    43    86    85    1
    44    86    87    2
    45    85    88    1
    46   106   105    1
    47    90    89   ar
    48     9     8    1
    49    88    89    1
    50    89    91   ar
    51     7     8    1
    52     7     6    1
    53    53    52    1
    54    30    27    1
    55     5     6    1
    56     5     2    1
    57   115   114    1
    58    35    36    1
    59    35    32    1
    60     1     2    1
    61    51    50    2
    62    31    32    1
    63    31    28   am
    64    27    28    1
    65    27    26    1
    66    52    54    1
    67    52    49    1
    68    50    49    1
    69     2     3    1
    70   114   113    1
    71    32    33    1
    72    33    34    2
    73    20    18    1
    74    28    29    2
    75    49    48    1
    76    26    23   am
    77    48    44   am
    78     3     4    2
    79    40    39    2
    80   113   112    1
    81    18    19    1
    82    18    17    2
    83    24    23    2
    84    23    22    1
    85   112   111    1
    86    25    22    1
    87    44    43    1
    88    44    45    2
    89    17    16    1
    90    43    42    1
    91    43    46    1
    92    39    42   am
    93    39    38    1
    94    41    38    1
    95   107   108    1
    96    22    21    1
    97   111   108    1
    98    46    47    1
    99    38    37    1
   100    16    15    1
   101   108   109    1
   102    15    14    1
   103   109   110    2
   104    14    11    1
   105    10    11    1
   106    11    12    1
   107    12    13    2
