@<TRIPOS>MOLECULE
tmp/6bt6A00.pdb
 104 98 0 0 0
SMALL
GASTEIGER

@<TRIPOS>ATOM
      1  N          2.4380    3.6370  -15.1730 N.3    44  SER44      -0.1217
      2  CA         2.0560    2.7940  -16.3040 C.3    44  SER44       0.1889
      3  C          0.6320    3.0250  -16.7960 C.2    44  SER44       0.2288
      4  O          0.2610    2.4400  -17.8200 O.2    44  SER44      -0.2866
      5  CB         2.2780    1.3140  -16.0040 C.3    44  SER44       0.2089
      6  OG         3.6560    1.0210  -15.9240 O.3    44  SER44      -0.2183
      7  N         13.6630   -2.8160  -16.7760 N.3    78  ASN78      -0.1225
      8  CA        13.5160   -3.3390  -15.4220 C.3    78  ASN78       0.1785
      9  C         12.3680   -4.3220  -15.2350 C.2    78  ASN78       0.2597
     10  O         12.3420   -5.0180  -14.2170 O.2    78  ASN78      -0.2718
     11  CB        13.3330   -2.1940  -14.4210 C.3    78  ASN78       0.1169
     12  CG        12.1280   -1.3320  -14.7290 C.2    78  ASN78       0.2627
     13  OD1       11.7280   -1.1890  -15.8830 O.2    78  ASN78      -0.2716
     14  ND2       11.5540   -0.7340  -13.6970 N.am   78  ASN78      -0.0877
     15  N         11.4020   -4.3680  -16.1490 N.am   79  TYR79      -0.1976
     16  CA        10.2640   -5.2760  -16.0110 C.3    79  TYR79       0.1639
     17  C          9.7910   -5.5960  -17.4230 C.2    79  TYR79       0.2290
     18  O          9.1730   -4.7540  -18.0820 O.2    79  TYR79      -0.2864
     19  CB         9.1460   -4.6740  -15.1740 C.3    79  TYR79       0.0560
     20  CG         8.0580   -5.6840  -14.9110 C.ar   79  TYR79      -0.0198
     21  CD1        8.2980   -6.7730  -14.0790 C.ar   79  TYR79      -0.0009
     22  CD2        6.8160   -5.5940  -15.5290 C.ar   79  TYR79      -0.0009
     23  CE1        7.3300   -7.7270  -13.8400 C.ar   79  TYR79       0.0417
     24  CE2        5.8320   -6.5480  -15.2910 C.ar   79  TYR79       0.0417
     25  CZ         6.0950   -7.6150  -14.4400 C.ar   79  TYR79       0.1957
     26  OH         5.1440   -8.5820  -14.1940 O.3    79  TYR79      -0.2866
     27  N          1.7890   -5.0630  -18.4940 N.3   104  SER104     -0.1217
     28  CA         2.5700   -3.9270  -17.9740 C.3   104  SER104      0.1889
     29  C          4.0620   -4.0050  -18.2820 C.2   104  SER104      0.2288
     30  O          4.9110   -3.5690  -17.5310 O.2   104  SER104     -0.2866
     31  CB         2.2850   -3.6310  -16.5380 C.3   104  SER104      0.2089
     32  OG         2.2550   -2.2220  -16.3070 O.3   104  SER104     -0.2183
     33  N          7.4850   -3.0320  -19.6390 N.3   106  ASN106     -0.1240
     34  CA         8.1080   -1.7300  -19.8800 C.3   106  ASN106      0.1653
     35  C          8.9090   -1.6830  -21.1790 C.2   106  ASN106      0.2266
     36  O          9.0020   -0.6170  -21.7970 O.2   106  ASN106     -0.2867
     37  CB         9.0190   -1.3560  -18.7110 C.3   106  ASN106      0.1155
     38  CG         8.3110   -0.5690  -17.6340 C.2   106  ASN106      0.2627
     39  OD1        7.1450   -0.2110  -17.7720 O.2   106  ASN106     -0.2716
     40  ND2        9.0330   -0.2720  -16.5560 N.am  106  ASN106     -0.0877
     41  N         12.5010    3.1320  -17.7450 N.3   141  PRO141     -0.2102
     42  CA        11.6700    3.1680  -16.5390 C.3   141  PRO141      0.1504
     43  C         11.5780    4.5310  -15.8520 C.2   141  PRO141      0.2576
     44  O         10.8620    4.6350  -14.8540 O.2   141  PRO141     -0.2718
     45  CB        12.4100    2.2040  -15.6130 C.3   141  PRO141      0.0282
     46  CG        13.8530    2.4540  -15.9530 C.3   141  PRO141      0.0208
     47  CD        13.8690    2.6710  -17.4480 C.3   141  PRO141      0.0893
     48  N         12.2960    5.5460  -16.3430 N.am  142  THR142     -0.1953
     49  CA        12.4000    6.7820  -15.5710 C.3   142  THR142      0.1897
     50  C         11.1010    7.5770  -15.5160 C.2   142  THR142      0.2313
     51  O         10.9630    8.4360  -14.6430 O.2   142  THR142     -0.2863
     52  CB        13.5630    7.6730  -16.0230 C.3   142  THR142      0.1794
     53  OG1       13.3450    8.1370  -17.3590 O.3   142  THR142     -0.2208
     54  CG2       14.9030    6.9390  -15.9120 C.3   142  THR142      0.0378
     55  N          8.5840    6.7490  -14.1920 N.3   144  ASN144     -0.1225
     56  CA         7.9550    6.3820  -12.9280 C.3   144  ASN144      0.1785
     57  C          8.6380    6.9680  -11.6930 C.2   144  ASN144      0.2597
     58  O          8.3410    6.5220  -10.5810 O.2   144  ASN144     -0.2718
     59  CB         7.8870    4.8630  -12.7930 C.3   144  ASN144      0.1169
     60  CG         7.2390    4.2160  -13.9880 C.2   144  ASN144      0.2627
     61  OD1        6.0440    4.3750  -14.2280 O.2   144  ASN144     -0.2716
     62  ND2        8.0280    3.4900  -14.7610 N.am  144  ASN144     -0.0877
     63  N          9.5400    7.9460  -11.8500 N.am  145  THR145     -0.1953
     64  CA        10.2130    8.4930  -10.6720 C.3   145  THR145      0.1897
     65  C          9.2360    9.1490   -9.7010 C.2   145  THR145      0.2313
     66  O          9.4830    9.1520   -8.4850 O.2   145  THR145     -0.2863
     67  CB        11.3420    9.4620  -11.0530 C.3   145  THR145      0.1794
     68  OG1       10.8770   10.4580  -11.9720 O.3   145  THR145     -0.2208
     69  CG2       12.5170    8.7310  -11.6790 C.3   145  THR145      0.0378
     70  N         -3.3390   -7.5020  -14.1970 N.3   190  THR190     -0.1218
     71  CA        -2.7300   -6.8870  -13.0170 C.3   190  THR190      0.1862
     72  C         -3.7120   -6.1690  -12.1010 C.2   190  THR190      0.2287
     73  O         -3.2650   -5.5520  -11.1250 O.2   190  THR190     -0.2866
     74  CB        -1.6600   -5.8710  -13.4350 C.3   190  THR190      0.1770
     75  OG1       -2.3110   -4.7630  -14.0720 O.3   190  THR190     -0.2211
     76  CG2       -0.6420   -6.4820  -14.3810 C.3   190  THR190      0.0375
     77  N         -3.3030   -0.5440  -14.5550 N.3   209  THR209     -0.1203
     78  CA        -2.6550   -0.1520  -13.3140 C.3   209  THR209      0.1994
     79  C         -1.3520    0.6060  -13.5850 C.2   209  THR209      0.2618
     80  O         -0.8070    0.6050  -14.6910 O.2   209  THR209     -0.2717
     81  CB        -2.3180   -1.4020  -12.5030 C.3   209  THR209      0.1784
     82  OG1       -1.5600   -2.2970  -13.3260 O.3   209  THR209     -0.2211
     83  CG2       -3.5730   -2.1110  -12.0150 C.3   209  THR209      0.0376
     84  N         -0.8330    1.2340  -12.5330 N.am  210  GLY210     -0.1942
     85  CA         0.5120    1.7780  -12.5610 C.3   210  GLY210      0.2014
     86  C          1.0540    1.9120  -11.1580 C.2   210  GLY210      0.2639
     87  O          0.2970    1.9820  -10.1840 O.2   210  GLY210     -0.2714
     88  N          2.3840    1.9430  -11.0610 N.am  211  ALA211     -0.1963
     89  CA         3.0680    2.1200   -9.7900 C.3   211  ALA211      0.1728
     90  C          4.4320    2.7480  -10.0380 C.2   211  ALA211      0.2617
     91  O          5.0340    2.5730  -11.1010 O.2   211  ALA211     -0.2715
     92  CB         3.2250    0.7980   -9.0300 C.3   211  ALA211      0.0334
     93  N          4.9180    3.4760   -9.0420 N.am  212  GLY212     -0.1940
     94  CA         6.2180    4.0980   -9.1470 C.3   212  GLY212      0.2014
     95  C          6.7870    4.4080   -7.7820 C.2   212  GLY212      0.2638
     96  O          6.3170    3.9040   -6.7610 O.2   212  GLY212     -0.2714
     97  N          7.8280    5.2390   -7.7730 N.am  213  ASP213     -0.1971
     98  CA         8.3910    5.6710   -6.5040 C.3   213  ASP213      0.1709
     99  C          7.3700    6.5410   -5.7680 C.2   213  ASP213      0.2293
    100  O          6.2810    6.8370   -6.2730 O.2   213  ASP213     -0.2864
    101  CB         9.7120    6.4090   -6.7200 C.3   213  ASP213      0.1436
    102  CG        10.9290    5.4910   -6.6880 C.2   213  ASP213      0.3671
    103  OD1       10.8030    4.2860   -6.3740 O.co2 213  ASP213     -0.2456
    104  OD2       12.0280    6.0010   -6.9840 O.co2 213  ASP213     -0.2456
@<TRIPOS>BOND
     1    36    35    2
     2    35    34    1
     3    34    33    1
     4    34    37    1
     5    37    38    1
     6    27    28    1
     7    29    28    1
     8    29    30    2
     9    18    17    2
    10    28    31    1
    11     4     3    2
    12    39    38    2
    13    41    47    1
    14    41    42    1
    15    38    40   am
    16    47    46    1
    17    17    16    1
    18    53    52    1
    19     3     2    1
    20     7     8    1
    21    42    43    1
    22    42    45    1
    23    31    32    1
    24    48    43   am
    25    48    49    1
    26     2     5    1
    27     2     1    1
    28    15    16    1
    29    15     9   am
    30    52    54    1
    31    52    49    1
    32    16    19    1
    33     5     6    1
    34    46    45    1
    35    13    12    2
    36    43    44    2
    37    49    50    1
    38    22    24   ar
    39    22    20   ar
    40    50    51    2
    41     8     9    1
    42     8    11    1
    43    24    25   ar
    44     9    10    2
    45    19    20    1
    46    20    21   ar
    47    62    60   am
    48    12    11    1
    49    12    14   am
    50    80    79    2
    51    77    78    1
    52    25    26    1
    53    25    23   ar
    54    76    74    1
    55    61    60    2
    56    70    71    1
    57    55    56    1
    58    21    23   ar
    59    75    74    1
    60    60    59    1
    61    79    78    1
    62    79    84   am
    63    74    71    1
    64    82    81    1
    65    78    81    1
    66    71    72    1
    67    56    59    1
    68    56    57    1
    69    85    84    1
    70    85    86    1
    71    81    83    1
    72    72    73    2
    73    68    67    1
    74    63    57   am
    75    63    64    1
    76    57    58    2
    77    69    67    1
    78    86    88   am
    79    86    87    2
    80    91    90    2
    81    88    89    1
    82    67    64    1
    83    64    65    1
    84    90    89    1
    85    90    93   am
    86    89    92    1
    87    65    66    2
    88    94    93    1
    89    94    95    1
    90    95    97   am
    91    95    96    2
    92    97    98    1
    93   104   102   ar
    94   101   102    1
    95   101    98    1
    96   102   103   ar
    97    98    99    1
    98   100    99    2
