@<TRIPOS>MOLECULE
tmp/6bt6A01.pdb
 93 88 0 0 0
SMALL
GASTEIGER

@<TRIPOS>ATOM
      1  N         13.6630   -2.8160  -16.7760 N.3    78  ASN78      -0.1225
      2  CA        13.5160   -3.3390  -15.4220 C.3    78  ASN78       0.1785
      3  C         12.3680   -4.3220  -15.2350 C.2    78  ASN78       0.2597
      4  O         12.3420   -5.0180  -14.2170 O.2    78  ASN78      -0.2718
      5  CB        13.3330   -2.1940  -14.4210 C.3    78  ASN78       0.1169
      6  CG        12.1280   -1.3320  -14.7290 C.2    78  ASN78       0.2627
      7  OD1       11.7280   -1.1890  -15.8830 O.2    78  ASN78      -0.2716
      8  ND2       11.5540   -0.7340  -13.6970 N.am   78  ASN78      -0.0877
      9  N         11.4020   -4.3680  -16.1490 N.am   79  TYR79      -0.1976
     10  CA        10.2640   -5.2760  -16.0110 C.3    79  TYR79       0.1639
     11  C          9.7910   -5.5960  -17.4230 C.2    79  TYR79       0.2290
     12  O          9.1730   -4.7540  -18.0820 O.2    79  TYR79      -0.2864
     13  CB         9.1460   -4.6740  -15.1740 C.3    79  TYR79       0.0560
     14  CG         8.0580   -5.6840  -14.9110 C.ar   79  TYR79      -0.0198
     15  CD1        8.2980   -6.7730  -14.0790 C.ar   79  TYR79      -0.0009
     16  CD2        6.8160   -5.5940  -15.5290 C.ar   79  TYR79      -0.0009
     17  CE1        7.3300   -7.7270  -13.8400 C.ar   79  TYR79       0.0417
     18  CE2        5.8320   -6.5480  -15.2910 C.ar   79  TYR79       0.0417
     19  CZ         6.0950   -7.6150  -14.4400 C.ar   79  TYR79       0.1957
     20  OH         5.1440   -8.5820  -14.1940 O.3    79  TYR79      -0.2866
     21  N          0.1770   -7.0070  -19.4120 N.3   103  TYR103     -0.1227
     22  CA         1.2330   -7.4890  -18.5190 C.3   103  TYR103      0.1736
     23  C          2.0380   -6.2930  -17.9690 C.2   103  TYR103      0.2596
     24  O          2.9060   -6.4950  -17.1350 O.2   103  TYR103     -0.2718
     25  CB         2.1570   -8.5140  -19.2020 C.3   103  TYR103      0.0548
     26  CG         1.4070   -9.7740  -19.5100 C.ar  103  TYR103     -0.0200
     27  CD1        0.6840   -9.9210  -20.6740 C.ar  103  TYR103     -0.0009
     28  CD2        1.3700  -10.8160  -18.5550 C.ar  103  TYR103     -0.0009
     29  CE1       -0.0510  -11.0680  -20.9120 C.ar  103  TYR103      0.0417
     30  CE2        0.6570  -11.9400  -18.8060 C.ar  103  TYR103      0.0417
     31  CZ        -0.0610  -12.0620  -19.9380 C.ar  103  TYR103      0.1957
     32  OH        -0.7500  -13.2430  -20.1900 O.3   103  TYR103     -0.2866
     33  N          1.7890   -5.0630  -18.4940 N.am  104  SER104     -0.1952
     34  CA         2.5700   -3.9270  -17.9740 C.3   104  SER104      0.1924
     35  C          4.0620   -4.0050  -18.2820 C.2   104  SER104      0.2314
     36  O          4.9110   -3.5690  -17.5310 O.2   104  SER104     -0.2863
     37  CB         2.2850   -3.6310  -16.5380 C.3   104  SER104      0.2116
     38  OG         2.2550   -2.2220  -16.3070 O.3   104  SER104     -0.2180
     39  N         12.5010    3.1320  -17.7450 N.3   141  PRO141     -0.2116
     40  CA        11.6700    3.1680  -16.5390 C.3   141  PRO141      0.1372
     41  C         11.5780    4.5310  -15.8520 C.2   141  PRO141      0.2244
     42  O         10.8620    4.6350  -14.8540 O.2   141  PRO141     -0.2868
     43  CB        12.4100    2.2040  -15.6130 C.3   141  PRO141      0.0268
     44  CG        13.8530    2.4540  -15.9530 C.3   141  PRO141      0.0207
     45  CD        13.8690    2.6710  -17.4480 C.3   141  PRO141      0.0892
     46  N         -3.3390   -7.5020  -14.1970 N.3   190  THR190     -0.1218
     47  CA        -2.7300   -6.8870  -13.0170 C.3   190  THR190      0.1862
     48  C         -3.7120   -6.1690  -12.1010 C.2   190  THR190      0.2287
     49  O         -3.2650   -5.5520  -11.1250 O.2   190  THR190     -0.2866
     50  CB        -1.6600   -5.8710  -13.4350 C.3   190  THR190      0.1770
     51  OG1       -2.3110   -4.7630  -14.0720 O.3   190  THR190     -0.2211
     52  CG2       -0.6420   -6.4820  -14.3810 C.3   190  THR190      0.0375
     53  N         -3.3030   -0.5440  -14.5550 N.3   209  THR209     -0.1218
     54  CA        -2.6550   -0.1520  -13.3140 C.3   209  THR209      0.1862
     55  C         -1.3520    0.6060  -13.5850 C.2   209  THR209      0.2287
     56  O         -0.8070    0.6050  -14.6910 O.2   209  THR209     -0.2866
     57  CB        -2.3180   -1.4020  -12.5030 C.3   209  THR209      0.1770
     58  OG1       -1.5600   -2.2970  -13.3260 O.3   209  THR209     -0.2211
     59  CG2       -3.5730   -2.1110  -12.0150 C.3   209  THR209      0.0375
     60  N          2.3840    1.9430  -11.0610 N.3   211  ALA211     -0.1231
     61  CA         3.0680    2.1200   -9.7900 C.3   211  ALA211      0.1694
     62  C          4.4320    2.7480  -10.0380 C.2   211  ALA211      0.2593
     63  O          5.0340    2.5730  -11.1010 O.2   211  ALA211     -0.2718
     64  CB         3.2250    0.7980   -9.0300 C.3   211  ALA211      0.0304
     65  N          4.9180    3.4760   -9.0420 N.am  212  GLY212     -0.1942
     66  CA         6.2180    4.0980   -9.1470 C.3   212  GLY212      0.2014
     67  C          6.7870    4.4080   -7.7820 C.2   212  GLY212      0.2638
     68  O          6.3170    3.9040   -6.7610 O.2   212  GLY212     -0.2714
     69  N          7.8280    5.2390   -7.7730 N.am  213  ASP213     -0.1971
     70  CA         8.3910    5.6710   -6.5040 C.3   213  ASP213      0.1709
     71  C          7.3700    6.5410   -5.7680 C.2   213  ASP213      0.2293
     72  O          6.2810    6.8370   -6.2730 O.2   213  ASP213     -0.2864
     73  CB         9.7120    6.4090   -6.7200 C.3   213  ASP213      0.1436
     74  CG        10.9290    5.4910   -6.6880 C.2   213  ASP213      0.3671
     75  OD1       10.8030    4.2860   -6.3740 O.co2 213  ASP213     -0.2456
     76  OD2       12.0280    6.0010   -6.9840 O.co2 213  ASP213     -0.2456
     77  N          3.5240    0.3520   -1.9470 N.3   246  SER246     -0.1217
     78  CA         2.3200    0.4880   -2.7500 C.3   246  SER246      0.1889
     79  C          1.0720    0.2440   -1.9030 C.2   246  SER246      0.2288
     80  O          1.0840   -0.5170   -0.9330 O.2   246  SER246     -0.2866
     81  CB         2.3500   -0.5000   -3.9090 C.3   246  SER246      0.2089
     82  OG         2.1320   -1.8100   -3.4310 O.3   246  SER246     -0.2183
     83  N         -2.5250   -0.5390   -3.1280 N.3   248  ARG248     -0.1245
     84  CA        -3.6640   -0.8200   -3.9990 C.3   248  ARG248      0.1563
     85  C         -4.9710   -0.8340   -3.2210 C.2   248  ARG248      0.2260
     86  O         -6.0240   -0.4920   -3.7700 O.2   248  ARG248     -0.2867
     87  CB        -3.4490   -2.1250   -4.7600 C.3   248  ARG248      0.0307
     88  CG        -2.3460   -2.0120   -5.7940 C.3   248  ARG248      0.0489
     89  CD        -2.0600   -3.3220   -6.4900 C.3   248  ARG248      0.2205
     90  NE        -1.5230   -4.2940   -5.5440 N.pl3 248  ARG248     -0.0865
     91  CZ        -1.0680   -5.4940   -5.8800 C.cat 248  ARG248      0.5346
     92  NH1       -1.0830   -5.8810   -7.1450 N.pl3 248  ARG248      0.1354
     93  NH2       -0.6000   -6.3110   -4.9470 N.pl3 248  ARG248      0.1354
@<TRIPOS>BOND
     1    29    27   ar
     2    29    31   ar
     3    27    26   ar
     4    32    31    1
     5    31    30   ar
     6    26    25    1
     7    26    28   ar
     8    21    22    1
     9    25    22    1
    10    30    28   ar
    11    22    23    1
    12    33    34    1
    13    33    23   am
    14    35    34    1
    15    35    36    2
    16    12    11    2
    17    34    37    1
    18    23    24    2
    19    39    45    1
    20    39    40    1
    21    45    44    1
    22    11    10    1
    23     1     2    1
    24    40    41    1
    25    40    43    1
    26    37    38    1
    27     9    10    1
    28     9     3   am
    29    10    13    1
    30    44    43    1
    31     7     6    2
    32    41    42    2
    33    16    18   ar
    34    16    14   ar
    35     2     3    1
    36     2     5    1
    37    18    19   ar
    38     3     4    2
    39    13    14    1
    40    14    15   ar
    41     6     5    1
    42     6     8   am
    43    56    55    2
    44    53    54    1
    45    19    20    1
    46    19    17   ar
    47    52    50    1
    48    46    47    1
    49    15    17   ar
    50    51    50    1
    51    55    54    1
    52    50    47    1
    53    58    57    1
    54    54    57    1
    55    47    48    1
    56    57    59    1
    57    48    49    2
    58    63    62    2
    59    60    61    1
    60    62    61    1
    61    62    65   am
    62    61    64    1
    63    66    65    1
    64    66    67    1
    65    67    69   am
    66    67    68    2
    67    69    70    1
    68    92    91    1
    69    76    74   ar
    70    73    74    1
    71    73    70    1
    72    74    75   ar
    73    70    71    1
    74    89    88    1
    75    89    90    1
    76    72    71    2
    77    91    90    2
    78    91    93    1
    79    88    87    1
    80    87    84    1
    81    84    85    1
    82    84    83    1
    83    81    82    1
    84    81    78    1
    85    86    85    2
    86    78    77    1
    87    78    79    1
    88    79    80    2
