@<TRIPOS>MOLECULE
tmp/6btgA00.pdb
 98 96 0 0 0
SMALL
GASTEIGER

@<TRIPOS>ATOM
      1  N        103.2360   70.6540   12.5370 N.3    26  THR26      -0.1203
      2  CA       104.2550   71.6010   12.0850 C.3    26  THR26       0.1994
      3  C        105.1720   72.0450   13.2270 C.2    26  THR26       0.2618
      4  O        105.9050   73.0310   13.1030 O.2    26  THR26      -0.2717
      5  CB       103.6140   72.8430   11.4420 C.3    26  THR26       0.1784
      6  OG1      103.0100   73.6570   12.4560 O.3    26  THR26      -0.2211
      7  CG2      102.5610   72.4190   10.4260 C.3    26  THR26       0.0376
      8  N        105.1360   71.3200   14.3400 N.am   27  GLY27      -0.1942
      9  CA       106.0020   71.6520   15.4570 C.3    27  GLY27       0.2014
     10  C        107.4620   71.4020   15.1280 C.2    27  GLY27       0.2639
     11  O        107.7840   70.6250   14.2320 O.2    27  GLY27      -0.2714
     12  N        108.3500   72.0660   15.8590 N.am   28  GLY28      -0.1939
     13  CA       109.7760   71.9050   15.6390 C.3    28  GLY28       0.2014
     14  C        110.2580   72.7880   14.4970 C.2    28  GLY28       0.2638
     15  O        109.4610   73.4470   13.8300 O.2    28  GLY28      -0.2714
     16  N        111.5700   72.8180   14.2950 N.am   29  ASN29      -0.1972
     17  CA       112.1690   73.6500   13.2490 C.3    29  ASN29       0.1688
     18  C        113.6590   73.3590   13.1000 C.2    29  ASN29       0.2292
     19  O        114.2970   72.8200   14.0030 O.2    29  ASN29      -0.2864
     20  CB       111.9280   75.1430   13.5290 C.3    29  ASN29       0.1181
     21  CG       111.8600   75.4720   15.0160 C.2    29  ASN29       0.2629
     22  OD1      112.8660   75.4500   15.7260 O.2    29  ASN29      -0.2716
     23  ND2      110.6540   75.7630   15.4970 N.am   29  ASN29      -0.0877
     24  N        113.7490   76.7620    8.5390 N.3    43  SER43      -0.1203
     25  CA       112.4320   76.3060    8.1230 C.3    43  SER43       0.2005
     26  C        111.3770   77.4000    8.2920 C.2    43  SER43       0.2461
     27  O        111.4600   78.2290    9.1960 O.2    43  SER43      -0.2732
     28  CB       112.0610   75.0560    8.9200 C.3    43  SER43       0.2103
     29  OG       112.0180   75.3630   10.2930 O.3    43  SER43      -0.2182
     30  N        110.3720   77.4230    7.3960 N.am   44  PRO44      -0.2717
     31  CA       109.2900   78.4070    7.5080 C.3    44  PRO44       0.1536
     32  C        108.3060   78.0590    8.6220 C.2    44  PRO44       0.2599
     33  O        108.1430   76.8760    8.9400 O.2    44  PRO44      -0.2715
     34  CB       108.6080   78.3320    6.1400 C.3    44  PRO44       0.0310
     35  CG       108.8460   76.9510    5.6930 C.3    44  PRO44       0.0237
     36  CD       110.2050   76.5460    6.2300 C.3    44  PRO44       0.0939
     37  N        107.6670   79.0710    9.1970 N.am   45  SER45      -0.1936
     38  CA       106.7430   78.8760   10.3110 C.3    45  SER45       0.2055
     39  C        105.4430   78.2260    9.8650 C.2    45  SER45       0.2643
     40  O        104.8660   78.6140    8.8510 O.2    45  SER45      -0.2714
     41  CB       106.4410   80.2140   10.9910 C.3    45  SER45       0.2130
     42  OG       105.4680   80.0810   12.0160 O.3    45  SER45      -0.2179
     43  N        104.9880   77.2350   10.6280 N.am   46  GLY46      -0.1954
     44  CA       103.6620   76.6690   10.4410 C.3    46  GLY46       0.1869
     45  C        103.3630   75.9300    9.1460 C.2    46  GLY46       0.2309
     46  O        102.1970   75.7260    8.8160 O.2    46  GLY46      -0.2863
     47  N        110.4640   80.5660   10.9070 N.3    74  SER74      -0.1202
     48  CA       110.0870   79.9210   12.1690 C.3    74  SER74       0.2020
     49  C        109.9160   80.8970   13.3230 C.2    74  SER74       0.2619
     50  O        110.7390   81.7880   13.5240 O.2    74  SER74      -0.2717
     51  CB       111.1270   78.8750   12.5710 C.3    74  SER74       0.2103
     52  OG       110.9390   78.5210   13.9350 O.3    74  SER74      -0.2182
     53  N        108.8600   80.7140   14.1130 N.am   75  SER75      -0.1937
     54  CA       108.6410   81.5560   15.2830 C.3    75  SER75       0.2055
     55  C        109.7480   81.4020   16.3310 C.2    75  SER75       0.2642
     56  O        109.8600   82.2130   17.2470 O.2    75  SER75      -0.2714
     57  CB       107.2900   81.2350   15.9250 C.3    75  SER75       0.2130
     58  OG       107.3290   79.9540   16.5260 O.3    75  SER75      -0.2179
     59  N        110.5530   80.3560   16.1740 N.am   76  GLU76      -0.1976
     60  CA       111.6240   80.0690   17.1110 C.3    76  GLU76       0.1602
     61  C        112.9840   80.4870   16.5400 C.2    76  GLU76       0.2287
     62  O        114.0090   79.9320   16.9170 O.2    76  GLU76      -0.2864
     63  CB       111.6120   78.5710   17.4800 C.3    76  GLU76       0.0415
     64  CG       110.1950   78.0290   17.7810 C.3    76  GLU76       0.1163
     65  CD       110.1780   76.7720   18.6560 C.2    76  GLU76       0.3649
     66  OE1      109.6750   75.7230   18.1950 O.co2  76  GLU76      -0.2457
     67  OE2      110.6380   76.8420   19.8150 O.co2  76  GLU76      -0.2457
     68  N        110.0270   68.1350   18.8520 N.3    97  HIS97      -0.1241
     69  CA       108.9820   67.9060   19.8410 C.3    97  HIS97       0.1621
     70  C        108.7970   66.4020   19.9850 C.2    97  HIS97       0.2264
     71  O        107.7330   65.8820   19.6750 O.2    97  HIS97      -0.2867
     72  CB       107.6510   68.5270   19.4140 C.3    97  HIS97       0.0745
     73  CG       107.6660   70.0200   19.3730 C.ar   97  HIS97       0.0817
     74  ND1      106.5590   70.7580   19.0090 N.ar   97  HIS97      -0.2268
     75  CD2      108.6390   70.9150   19.6690 C.ar   97  HIS97       0.1154
     76  CE1      106.8540   72.0440   19.0740 C.ar   97  HIS97       0.1986
     77  NE2      108.1100   72.1680   19.4680 N.ar   97  HIS97      -0.2212
     78  N        107.3550   79.9320   24.3810 N.3   133  PHE133     -0.1241
     79  CA       107.8400   79.6620   23.0350 C.3   133  PHE133      0.1605
     80  C        107.9250   80.9490   22.2050 C.2   133  PHE133      0.2264
     81  O        107.1260   81.8770   22.3710 O.2   133  PHE133     -0.2867
     82  CB       106.9540   78.6180   22.3350 C.3   133  PHE133      0.0534
     83  CG       105.8060   79.1990   21.5510 C.ar  133  PHE133     -0.0203
     84  CD1      105.9280   79.4410   20.1870 C.ar  133  PHE133     -0.0042
     85  CD2      104.5940   79.4800   22.1740 C.ar  133  PHE133     -0.0042
     86  CE1      104.8680   79.9770   19.4660 C.ar  133  PHE133     -0.0003
     87  CE2      103.5240   80.0120   21.4560 C.ar  133  PHE133     -0.0003
     88  CZ       103.6620   80.2600   20.1030 C.ar  133  PHE133     -0.0000
     89  N        108.4300   71.2860   26.6880 N.3   157  HIS157     -0.1241
     90  CA       108.4570   71.7360   25.3030 C.3   157  HIS157      0.1621
     91  C        109.1210   70.7080   24.3730 C.2   157  HIS157      0.2264
     92  O        108.4650   70.1710   23.4840 O.2   157  HIS157     -0.2867
     93  CB       109.1530   73.1040   25.2370 C.3   157  HIS157      0.0745
     94  CG       109.1260   73.7420   23.8790 C.ar  157  HIS157      0.0817
     95  ND1      109.2910   75.1000   23.6910 N.ar  157  HIS157     -0.2268
     96  CD2      108.9880   73.2050   22.6440 C.ar  157  HIS157      0.1154
     97  CE1      109.2420   75.3700   22.3980 C.ar  157  HIS157      0.1986
     98  NE2      109.0610   74.2380   21.7420 N.ar  157  HIS157     -0.2212
@<TRIPOS>BOND
     1    35    34    1
     2    35    36    1
     3    34    31    1
     4    36    30    1
     5    30    31    1
     6    30    26   am
     7    31    32    1
     8    25    26    1
     9    25    24    1
    10    25    28    1
    11    26    27    2
    12    32    33    2
    13    32    37   am
    14    46    45    2
    15    40    39    2
    16    28    29    1
    17    45    44    1
    18    37    38    1
    19    39    38    1
    20    39    43   am
    21    38    41    1
    22     7     5    1
    23    44    43    1
    24    47    48    1
    25    41    42    1
    26     5     2    1
    27     5     6    1
    28     2     1    1
    29     2     3    1
    30    48    51    1
    31    48    49    1
    32    51    52    1
    33    18    17    1
    34    18    19    2
    35     4     3    2
    36     3     8   am
    37    17    20    1
    38    17    16    1
    39    49    50    2
    40    49    53   am
    41    20    21    1
    42    15    14    2
    43    53    54    1
    44    11    10    2
    45    16    14   am
    46     8     9    1
    47    14    13    1
    48    21    23   am
    49    21    22    2
    50    10     9    1
    51    10    12   am
    52    54    57    1
    53    54    55    1
    54    13    12    1
    55    57    58    1
    56    59    55   am
    57    59    60    1
    58    55    56    2
    59    61    62    2
    60    61    60    1
    61    60    63    1
    62    63    64    1
    63    64    65    1
    64    66    65   ar
    65    65    67   ar
    66    68    69    1
    67    74    76   ar
    68    74    73   ar
    69    76    77   ar
    70    73    72    1
    71    73    75   ar
    72    72    69    1
    73    86    88   ar
    74    86    84   ar
    75    77    75   ar
    76    71    70    2
    77    69    70    1
    78    88    87   ar
    79    84    83   ar
    80    87    85   ar
    81    83    85   ar
    82    83    82    1
    83    98    97   ar
    84    98    96   ar
    85    80    81    2
    86    80    79    1
    87    82    79    1
    88    97    95   ar
    89    96    94   ar
    90    79    78    1
    91    92    91    2
    92    95    94   ar
    93    94    93    1
    94    91    90    1
    95    93    90    1
    96    90    89    1
