@<TRIPOS>MOLECULE
tmp/6btlA01.pdb
 98 94 0 0 0
SMALL
GASTEIGER

@<TRIPOS>ATOM
      1  N         47.2320  -33.0260    2.5870 N.3    14  SER14      -0.1217
      2  CA        46.8810  -32.2490    3.7720 C.3    14  SER14       0.1889
      3  C         47.1310  -33.0500    5.0430 C.2    14  SER14       0.2288
      4  O         47.7680  -32.5630    5.9840 O.2    14  SER14      -0.2866
      5  CB        45.4230  -31.8050    3.6970 C.3    14  SER14       0.2089
      6  OG        45.2300  -30.8930    2.6330 O.3    14  SER14      -0.2183
      7  N         51.1670  -34.4950    5.4910 N.3    17  LEU17      -0.1231
      8  CA        52.1860  -33.5650    5.9710 C.3    17  LEU17       0.1693
      9  C         51.9900  -33.2010    7.4420 C.2    17  LEU17       0.2591
     10  O         52.9740  -33.0360    8.1710 O.2    17  LEU17      -0.2718
     11  CB        52.1880  -32.3110    5.0960 C.3    17  LEU17       0.0284
     12  CG        52.5630  -32.5040    3.6240 C.3    17  LEU17       0.0019
     13  CD1       52.3830  -31.2040    2.8610 C.3    17  LEU17       0.0001
     14  CD2       53.9940  -32.9910    3.5050 C.3    17  LEU17       0.0001
     15  N         50.7440  -33.0710    7.9010 N.am   18  GLU18      -0.1979
     16  CA        50.5150  -32.7390    9.3030 C.3    18  GLU18       0.1602
     17  C         50.9360  -33.8640   10.2420 C.2    18  GLU18       0.2287
     18  O         51.1750  -33.6060   11.4270 O.2    18  GLU18      -0.2864
     19  CB        49.0440  -32.3900    9.5340 C.3    18  GLU18       0.0415
     20  CG        48.6900  -32.1100   10.9920 C.3    18  GLU18       0.1163
     21  CD        49.3790  -30.8750   11.5460 C.2    18  GLU18       0.3649
     22  OE1       49.8610  -30.0490   10.7430 O.co2  18  GLU18      -0.2457
     23  OE2       49.4370  -30.7330   12.7870 O.co2  18  GLU18      -0.2457
     24  N         55.1730  -33.8440   10.1060 N.3    21  TRP21      -0.1227
     25  CA        55.7100  -32.6890   10.8180 C.3    21  TRP21       0.1737
     26  C         55.5640  -32.8640   12.3250 C.2    21  TRP21       0.2595
     27  O         56.5330  -32.7040   13.0770 O.2    21  TRP21      -0.2718
     28  CB        55.0140  -31.4080   10.3540 C.3    21  TRP21       0.0564
     29  CG        55.5070  -30.1870   11.0670 C.ar   21  TRP21       0.0003
     30  CD1       54.9590  -29.6060   12.1730 C.ar   21  TRP21       0.0946
     31  CD2       56.6620  -29.4060   10.7350 C.ar   21  TRP21       0.0152
     32  NE1       55.6960  -28.5080   12.5460 N.ar   21  TRP21      -0.2442
     33  CE2       56.7470  -28.3640   11.6790 C.ar   21  TRP21       0.0810
     34  CE3       57.6310  -29.4850    9.7290 C.ar   21  TRP21       0.0012
     35  CZ2       57.7610  -27.4080   11.6480 C.ar   21  TRP21       0.0191
     36  CZ3       58.6380  -28.5340    9.7000 C.ar   21  TRP21       0.0001
     37  CH2       58.6940  -27.5100   10.6540 C.ar   21  TRP21       0.0015
     38  N         54.3560  -33.1890   12.7860 N.am   22  ASN22      -0.1974
     39  CA        54.1190  -33.5050   14.1930 C.3    22  ASN22       0.1688
     40  C         54.6280  -34.9210   14.4470 C.2    22  ASN22       0.2292
     41  O         53.8730  -35.8940   14.5120 O.2    22  ASN22      -0.2864
     42  CB        52.6430  -33.3570   14.5390 C.3    22  ASN22       0.1181
     43  CG        52.1410  -31.9460   14.3340 C.2    22  ASN22       0.2629
     44  OD1       52.8250  -31.1160   13.7390 O.2    22  ASN22      -0.2716
     45  ND2       50.9390  -31.6650   14.8260 N.am   22  ASN22      -0.0877
     46  N         58.0670  -24.0550   -0.7650 N.3   109  SER109     -0.1202
     47  CA        58.2010  -23.9680    0.6860 C.3   109  SER109      0.2020
     48  C         58.2290  -25.3570    1.3130 C.2   109  SER109      0.2618
     49  O         59.1540  -25.6970    2.0590 O.2   109  SER109     -0.2717
     50  CB        57.0640  -23.1340    1.2680 C.3   109  SER109      0.2103
     51  OG        55.8380  -23.8330    1.1660 O.3   109  SER109     -0.2182
     52  N         57.2190  -26.1780    1.0160 N.am  110  TYR110     -0.1975
     53  CA        57.2690  -27.5800    1.4200 C.3   110  TYR110      0.1639
     54  C         58.5380  -28.2490    0.9100 C.2   110  TYR110      0.2290
     55  O         59.1430  -29.0690    1.6100 O.2   110  TYR110     -0.2864
     56  CB        56.0370  -28.3200    0.9040 C.3   110  TYR110      0.0560
     57  CG        54.7530  -27.9380    1.5980 C.ar  110  TYR110     -0.0198
     58  CD1       54.7420  -27.5960    2.9420 C.ar  110  TYR110     -0.0009
     59  CD2       53.5510  -27.9230    0.9070 C.ar  110  TYR110     -0.0009
     60  CE1       53.5670  -27.2510    3.5790 C.ar  110  TYR110      0.0417
     61  CE2       52.3730  -27.5790    1.5330 C.ar  110  TYR110      0.0417
     62  CZ        52.3850  -27.2440    2.8690 C.ar  110  TYR110      0.1957
     63  OH        51.2090  -26.9010    3.4960 O.3   110  TYR110     -0.2866
     64  N         61.3930  -26.9940    0.6400 N.3   112  GLY112     -0.1210
     65  CA        62.4590  -26.6340    1.5550 C.3   112  GLY112      0.1956
     66  C         62.2110  -27.1100    2.9720 C.2   112  GLY112      0.2611
     67  O         63.1580  -27.3470    3.7280 O.2   112  GLY112     -0.2717
     68  N         60.9380  -27.2460    3.3480 N.am  113  MET113     -0.1979
     69  CA        60.6100  -27.7710    4.6690 C.3   113  MET113      0.1605
     70  C         61.3090  -29.0980    4.9260 C.2   113  MET113      0.2287
     71  O         61.7310  -29.3790    6.0530 O.2   113  MET113     -0.2864
     72  CB        59.0980  -27.9400    4.8090 C.3   113  MET113      0.0413
     73  CG        58.6870  -28.7770    6.0100 C.3   113  MET113      0.0598
     74  SD        56.9190  -29.1380    6.0510 S.3   113  MET113     -0.1393
     75  CE        56.7140  -30.0500    4.5230 C.3   113  MET113      0.0692
     76  N         65.5890  -28.9740    5.5330 N.3   116  ASP116     -0.1225
     77  CA        66.1790  -28.4470    6.7630 C.3   116  ASP116      0.1805
     78  C         65.3570  -28.8860    7.9720 C.2   116  ASP116      0.2598
     79  O         64.9270  -28.0760    8.7940 O.2   116  ASP116     -0.2718
     80  CB        66.3070  -26.9250    6.7030 C.3   116  ASP116      0.1424
     81  CG        64.9740  -26.2300    6.5200 C.2   116  ASP116      0.3668
     82  OD1       63.9620  -26.9260    6.2990 O.co2 116  ASP116     -0.2456
     83  OD2       64.9410  -24.9830    6.6010 O.co2 116  ASP116     -0.2456
     84  N         65.1400  -30.1980    8.0930 N.am  117  THR117     -0.1953
     85  CA        64.3630  -30.7500    9.2070 C.3   117  THR117      0.1897
     86  C         64.7620  -32.2280    9.3400 C.2   117  THR117      0.2313
     87  O         64.1780  -33.0920    8.6910 O.2   117  THR117     -0.2863
     88  CB        62.8670  -30.5970    8.9910 C.3   117  THR117      0.1794
     89  OG1       62.5380  -29.2100    8.8350 O.3   117  THR117     -0.2208
     90  CG2       62.0940  -31.1590   10.1750 C.3   117  THR117      0.0378
     91  N         43.8070  -32.8050    8.4750 N.3   339  ILE339     -0.1245
     92  CA        44.8440  -32.2470    9.3350 C.3   339  ILE339      0.1561
     93  C         44.5470  -32.5580   10.7950 C.2   339  ILE339      0.2260
     94  O         45.4700  -32.7640   11.5920 O.2   339  ILE339     -0.2867
     95  CB        44.9750  -30.7300    9.0990 C.3   339  ILE339      0.0252
     96  CG1       45.1880  -30.4310    7.6130 C.3   339  ILE339      0.0019
     97  CG2       46.1110  -30.1510    9.9340 C.3   339  ILE339      0.0019
     98  CD1       45.1730  -28.9530    7.2860 C.3   339  ILE339      0.0001
@<TRIPOS>BOND
     1    46    47    1
     2    64    65    1
     3    47    50    1
     4    47    48    1
     5    56    53    1
     6    56    57    1
     7    59    61   ar
     8    59    57   ar
     9    54    53    1
    10    54    55    2
    11    52    48   am
    12    52    53    1
    13    51    50    1
    14    48    49    2
    15    61    62   ar
    16    65    66    1
    17    57    58   ar
    18     1     2    1
    19     6     5    1
    20    13    12    1
    21    62    63    1
    22    62    60   ar
    23    58    60   ar
    24    66    68   am
    25    66    67    2
    26    68    69    1
    27    14    12    1
    28    12    11    1
    29     5     2    1
    30     2     3    1
    31    75    74    1
    32    69    72    1
    33    69    70    1
    34    72    73    1
    35    70    71    2
    36     3     4    2
    37    11     8    1
    38     7     8    1
    39    76    77    1
    40     8     9    1
    41    73    74    1
    42    82    81   ar
    43    81    83   ar
    44    81    80    1
    45    80    77    1
    46    77    78    1
    47    98    96    1
    48     9    15   am
    49     9    10    2
    50    96    95    1
    51    15    16    1
    52    78    84   am
    53    78    79    2
    54    84    85    1
    55    91    92    1
    56    87    86    2
    57    89    88    1
    58    88    85    1
    59    88    90    1
    60    95    92    1
    61    95    97    1
    62    85    86    1
    63    16    19    1
    64    16    17    1
    65    92    93    1
    66    19    20    1
    67    36    34   ar
    68    36    37   ar
    69    34    31   ar
    70    24    25    1
    71    17    18    2
    72    28    25    1
    73    28    29    1
    74    37    35   ar
    75    31    29   ar
    76    31    33   ar
    77    22    21   ar
    78    93    94    2
    79    25    26    1
    80    20    21    1
    81    29    30   ar
    82    21    23   ar
    83    35    33   ar
    84    33    32   ar
    85    30    32   ar
    86    26    38   am
    87    26    27    2
    88    38    39    1
    89    44    43    2
    90    39    40    1
    91    39    42    1
    92    43    42    1
    93    43    45   am
    94    40    41    2
