@<TRIPOS>MOLECULE
tmp/6btmA04.pdb
 149 147 0 0 0
SMALL
GASTEIGER

@<TRIPOS>ATOM
      1  N        152.2320  159.0970  130.7030 N.3    24  GLY24      -0.1225
      2  CA       151.6590  158.6880  129.4270 C.3    24  GLY24       0.1811
      3  C        150.6820  159.6770  128.7980 C.2    24  GLY24       0.2280
      4  O        149.6880  159.2640  128.1990 O.2    24  GLY24      -0.2866
      5  N        147.1820  156.0840  119.5410 N.3   130  LEU130     -0.1231
      6  CA       146.8290  155.1910  120.6290 C.3   130  LEU130      0.1678
      7  C        147.5950  153.8900  120.4610 C.2   130  LEU130      0.2434
      8  O        147.9810  153.5420  119.3430 O.2   130  LEU130     -0.2733
      9  CB       145.3230  154.8940  120.6670 C.3   130  LEU130      0.0284
     10  CG       144.3430  156.0200  120.9710 C.3   130  LEU130      0.0019
     11  CD1      142.9580  155.4330  121.1220 C.3   130  LEU130      0.0001
     12  CD2      144.7350  156.8010  122.2060 C.3   130  LEU130      0.0001
     13  N        147.8560  153.1660  121.5480 N.am  131  PRO131     -0.2729
     14  CA       148.4480  151.8340  121.4080 C.3   131  PRO131      0.1401
     15  C        147.4830  150.8650  120.7530 C.2   131  PRO131      0.2269
     16  O        146.2640  151.0190  120.8360 O.2   131  PRO131     -0.2865
     17  CB       148.7500  151.4300  122.8500 C.3   131  PRO131      0.0296
     18  CG       147.8540  152.2620  123.6800 C.3   131  PRO131      0.0237
     19  CD       147.7410  153.5580  122.9630 C.3   131  PRO131      0.0939
     20  N        146.1170  147.9890  121.1970 N.3   133  PHE133     -0.1227
     21  CA       145.1670  147.0350  121.7400 C.3   133  PHE133      0.1736
     22  C        143.7680  147.5760  121.7700 C.2   133  PHE133      0.2595
     23  O        142.8320  146.7850  121.6580 O.2   133  PHE133     -0.2718
     24  CB       145.6910  146.5280  123.0920 C.3   133  PHE133      0.0547
     25  CG       145.9760  147.5640  124.1570 C.ar  133  PHE133     -0.0202
     26  CD1      145.0110  148.3340  124.7690 C.ar  133  PHE133     -0.0042
     27  CD2      147.3110  147.9530  124.3110 C.ar  133  PHE133     -0.0042
     28  CE1      145.3610  149.2870  125.7130 C.ar  133  PHE133     -0.0003
     29  CE2      147.6690  148.9400  125.2060 C.ar  133  PHE133     -0.0003
     30  CZ       146.6900  149.6110  125.9070 C.ar  133  PHE133     -0.0000
     31  N        143.6150  148.9010  121.7820 N.am  134  VAL134     -0.1966
     32  CA       142.2990  149.5160  121.7550 C.3   134  VAL134      0.1727
     33  C        141.6530  149.3120  120.3890 C.2   134  VAL134      0.2616
     34  O        142.2990  148.9470  119.4010 O.2   134  VAL134     -0.2715
     35  CB       142.3970  151.0110  122.0920 C.3   134  VAL134      0.0290
     36  CG1      143.1540  151.2220  123.3850 C.3   134  VAL134      0.0023
     37  CG2      143.0350  151.7620  120.9500 C.3   134  VAL134      0.0023
     38  N        140.3450  149.5420  120.3360 N.am  135  TYR135     -0.1960
     39  CA       139.6160  149.5310  119.0660 C.3   135  TYR135      0.1771
     40  C        138.6500  150.7090  119.0860 C.2   135  TYR135      0.2619
     41  O        137.5250  150.5890  119.5730 O.2   135  TYR135     -0.2715
     42  CB       138.8840  148.2180  118.8260 C.3   135  TYR135      0.0574
     43  CG       138.1200  148.1930  117.5140 C.ar  135  TYR135     -0.0198
     44  CD1      138.7890  148.0830  116.3010 C.ar  135  TYR135     -0.0009
     45  CD2      136.7330  148.2810  117.4890 C.ar  135  TYR135     -0.0009
     46  CE1      138.0990  148.0670  115.1010 C.ar  135  TYR135      0.0417
     47  CE2      136.0340  148.2650  116.2910 C.ar  135  TYR135      0.0417
     48  CZ       136.7230  148.1570  115.1030 C.ar  135  TYR135      0.1957
     49  OH       136.0390  148.1390  113.9100 O.3   135  TYR135     -0.2866
     50  N        139.0970  151.8390  118.5530 N.am  136  PHE136     -0.1974
     51  CA       138.2280  152.9810  118.3250 C.3   136  PHE136      0.1639
     52  C        137.8720  153.0700  116.8510 C.2   136  PHE136      0.2290
     53  O        138.7320  152.9120  115.9810 O.2   136  PHE136     -0.2864
     54  CB       138.8690  154.2920  118.7700 C.3   136  PHE136      0.0560
     55  CG       138.0120  155.4770  118.4840 C.ar  136  PHE136     -0.0200
     56  CD1      136.8690  155.7010  119.2280 C.ar  136  PHE136     -0.0042
     57  CD2      138.3120  156.3350  117.4440 C.ar  136  PHE136     -0.0042
     58  CE1      136.0510  156.7680  118.9580 C.ar  136  PHE136     -0.0003
     59  CE2      137.4980  157.3960  117.1650 C.ar  136  PHE136     -0.0003
     60  CZ       136.3650  157.6160  117.9220 C.ar  136  PHE136     -0.0000
     61  N        143.2570  161.5170  125.9880 N.3   168  LEU168     -0.1231
     62  CA       142.9700  160.1800  125.4440 C.3   168  LEU168      0.1693
     63  C        143.3680  159.0300  126.3760 C.2   168  LEU168      0.2593
     64  O        143.4870  157.8910  125.9240 O.2   168  LEU168     -0.2718
     65  CB       143.6410  159.9710  124.0740 C.3   168  LEU168      0.0284
     66  CG       143.2560  160.8030  122.8510 C.3   168  LEU168      0.0019
     67  CD1      144.2790  160.6080  121.7530 C.3   168  LEU168      0.0001
     68  CD2      141.8920  160.4030  122.3490 C.3   168  LEU168      0.0001
     69  N        143.5940  159.2720  127.6650 N.am  169  THR169     -0.1939
     70  CA       144.1770  158.2470  128.5380 C.3   169  THR169      0.2028
     71  C        143.1230  157.5600  129.4070 C.2   169  THR169      0.2642
     72  O        143.0840  157.7430  130.6230 O.2   169  THR169     -0.2714
     73  CB       145.2710  158.8530  129.4100 C.3   169  THR169      0.1808
     74  OG1      144.7550  159.9940  130.1040 O.3   169  THR169     -0.2208
     75  CG2      146.4770  159.2350  128.5900 C.3   169  THR169      0.0379
     76  N        142.2100  156.8190  128.7610 N.am  170  MET170     -0.1976
     77  CA       141.4160  155.7430  129.3760 C.3   170  MET170      0.1605
     78  C        140.4070  156.1950  130.4460 C.2   170  MET170      0.2287
     79  O        139.4620  155.4660  130.7640 O.2   170  MET170     -0.2864
     80  CB       142.4080  154.6820  129.9090 C.3   170  MET170      0.0413
     81  CG       141.9080  153.5180  130.7920 C.3   170  MET170      0.0598
     82  SD       140.6810  152.3560  130.1430 S.3   170  MET170     -0.1393
     83  CE       139.9370  151.8440  131.6940 C.3   170  MET170      0.0692
     84  N        137.7570  158.4280  128.0260 N.3   173  CYS173     -0.1221
     85  CA       136.7950  157.5860  127.3260 C.3   173  CYS173      0.1808
     86  C        135.6660  157.1470  128.2430 C.2   173  CYS173      0.2601
     87  O        134.5070  157.0870  127.8230 O.2   173  CYS173     -0.2717
     88  CB       137.4950  156.3690  126.7400 C.3   173  CYS173      0.0970
     89  SG       138.6010  156.6610  125.3370 S.3   173  CYS173     -0.0800
     90  N        135.9840  156.8230  129.4940 N.am  174  VAL174     -0.1979
     91  CA       134.9560  156.3820  130.4290 C.3   174  VAL174      0.1595
     92  C        134.1020  157.5620  130.8770 C.2   174  VAL174      0.2287
     93  O        132.8740  157.4510  130.9720 O.2   174  VAL174     -0.2864
     94  CB       135.6090  155.6440  131.6130 C.3   174  VAL174      0.0276
     95  CG1      134.5930  155.2990  132.6810 C.3   174  VAL174      0.0022
     96  CG2      136.2800  154.3790  131.1290 C.3   174  VAL174      0.0022
     97  N        131.4300  158.6920  128.4960 N.3   177  HIS177     -0.1241
     98  CA       130.3640  157.7070  128.3820 C.3   177  HIS177      0.1621
     99  C        129.4170  157.7330  129.5720 C.2   177  HIS177      0.2264
    100  O        128.2710  157.2910  129.4430 O.2   177  HIS177     -0.2867
    101  CB       130.9450  156.3020  128.2140 C.3   177  HIS177      0.0745
    102  CG       131.4840  156.0330  126.8440 C.ar  177  HIS177      0.0817
    103  ND1      132.1830  154.8890  126.5280 N.ar  177  HIS177     -0.2268
    104  CD2      131.4160  156.7600  125.7040 C.ar  177  HIS177      0.1154
    105  CE1      132.5260  154.9250  125.2530 C.ar  177  HIS177      0.1986
    106  NE2      132.0740  156.0500  124.7300 N.ar  177  HIS177     -0.2212
    107  N        128.7240  149.5810  127.7220 N.3   213  GLY213     -0.1210
    108  CA       129.9390  150.0750  127.1120 C.3   213  GLY213      0.1956
    109  C        131.0810  150.3180  128.0740 C.2   213  GLY213      0.2612
    110  O        131.8020  151.3050  127.9320 O.2   213  GLY213     -0.2717
    111  N        131.2530  149.4470  129.0660 N.am  214  LEU214     -0.1965
    112  CA       132.3780  149.5220  129.9930 C.3   214  LEU214      0.1728
    113  C        132.9350  148.1350  130.2570 C.2   214  LEU214      0.2616
    114  O        133.2150  147.7690  131.4010 O.2   214  LEU214     -0.2715
    115  CB       131.9840  150.1850  131.3100 C.3   214  LEU214      0.0311
    116  CG       131.6550  151.6750  131.3250 C.3   214  LEU214      0.0022
    117  CD1      131.1950  152.1100  132.7050 C.3   214  LEU214      0.0001
    118  CD2      132.8570  152.4770  130.8890 C.3   214  LEU214      0.0001
    119  N        133.1020  147.3390  129.2070 N.am  215  GLU215     -0.1963
    120  CA       133.4940  145.9440  129.3360 C.3   215  GLU215      0.1733
    121  C        134.7780  145.6960  128.5610 C.2   215  GLU215      0.2616
    122  O        134.9390  146.1830  127.4390 O.2   215  GLU215     -0.2715
    123  CB       132.3780  145.0370  128.8450 C.3   215  GLU215      0.0429
    124  CG       131.1570  145.1160  129.7250 C.3   215  GLU215      0.1163
    125  CD       129.9880  144.3470  129.1790 C.2   215  GLU215      0.3649
    126  OE1      130.0750  143.8640  128.0350 O.co2 215  GLU215     -0.2457
    127  OE2      128.9780  144.2240  129.8950 O.co2 215  GLU215     -0.2457
    128  N        135.6950  144.9330  129.1700 N.am  216  CYS216     -0.1968
    129  CA       137.0680  144.8200  128.6870 C.3   216  CYS216      0.1712
    130  C        137.1890  144.1050  127.3460 C.2   216  CYS216      0.2296
    131  O        138.2880  144.0800  126.7840 O.2   216  CYS216     -0.2864
    132  CB       137.9500  144.1250  129.7410 C.3   216  CYS216      0.0983
    133  SG       138.3840  145.1180  131.2550 S.3   216  CYS216     -0.0798
    134  N        136.3080  147.1780  124.0140 N.3   219  CYS219     -0.1221
    135  CA       137.2130  148.2710  123.6920 C.3   219  CYS219      0.1808
    136  C        138.6230  147.7800  123.4070 C.2   219  CYS219      0.2601
    137  O        139.2170  148.1590  122.3920 O.2   219  CYS219     -0.2717
    138  CB       137.2050  149.2940  124.8370 C.3   219  CYS219      0.0970
    139  SG       135.6030  150.1290  125.2100 S.3   219  CYS219     -0.0800
    140  N        139.1570  146.8920  124.2320 N.am  220  HIS220     -0.1975
    141  CA       140.3860  146.2120  123.8660 C.3   220  HIS220      0.1656
    142  C        140.3040  144.7080  124.1180 C.2   220  HIS220      0.2291
    143  O        141.2340  144.0920  124.6340 O.2   220  HIS220     -0.2864
    144  CB       141.5950  146.8900  124.5140 C.3   220  HIS220      0.0771
    145  CG       141.3380  147.5520  125.8250 C.ar  220  HIS220      0.0820
    146  ND1      141.3230  146.8620  127.0080 N.ar  220  HIS220     -0.2267
    147  CD2      141.2050  148.8640  126.1480 C.ar  220  HIS220      0.1154
    148  CE1      141.1330  147.7120  127.9970 C.ar  220  HIS220      0.1986
    149  NE2      141.0580  148.9380  127.5100 N.ar  220  HIS220     -0.2212
@<TRIPOS>BOND
     1    49    48    1
     2    46    48   ar
     3    46    44   ar
     4    48    47   ar
     5    53    52    2
     6    47    45   ar
     7    44    43   ar
     8    52    51    1
     9    59    57   ar
    10    59    60   ar
    11    57    55   ar
    12    45    43   ar
    13    43    42    1
    14    60    58   ar
    15    51    50    1
    16    51    54    1
    17    55    54    1
    18    55    56   ar
    19    50    40   am
    20    42    39    1
    21    58    56   ar
    22    39    40    1
    23    39    38    1
    24    40    41    2
    25     8     7    2
    26    34    33    2
    27     5     6    1
    28    38    33   am
    29    33    32    1
    30     7     6    1
    31     7    13   am
    32     6     9    1
    33     9    10    1
    34    15    16    2
    35    15    14    1
    36    37    35    1
    37    10    11    1
    38    10    12    1
    39    20    21    1
    40    14    13    1
    41    14    17    1
    42    13    19    1
    43    23    22    2
    44    21    22    1
    45    21    24    1
    46    67    66    1
    47    32    31    1
    48    32    35    1
    49    22    31   am
    50    35    36    1
    51    68    66    1
    52   137   136    2
    53    17    18    1
    54    66    65    1
    55    19    18    1
    56    24    25    1
    57   136   135    1
    58   136   140   am
    59   135   134    1
    60   135   138    1
    61   141   142    1
    62   141   140    1
    63   141   144    1
    64    65    62    1
    65   142   143    2
    66    25    27   ar
    67    25    26   ar
    68    27    29   ar
    69   144   145    1
    70   106   105   ar
    71   106   104   ar
    72    26    28   ar
    73   138   139    1
    74    29    30   ar
    75   105   103   ar
    76    89    88    1
    77    62    61    1
    78    62    63    1
    79   104   102   ar
    80    28    30   ar
    81   145   147   ar
    82   145   146   ar
    83    64    63    2
    84   147   149   ar
    85    63    69   am
    86   103   102   ar
    87    88    85    1
    88   131   130    2
    89   102   101    1
    90   146   148   ar
    91   108   107    1
    92   108   109    1
    93    85    84    1
    94    85    86    1
    95   130   129    1
    96   122   121    2
    97   149   148   ar
    98    69    70    1
    99    87    86    2
   100   110   109    2
   101   126   125   ar
   102   109   111   am
   103     4     3    2
   104   101    98    1
   105    86    90   am
   106    98    97    1
   107    98    99    1
   108    70    71    1
   109    70    73    1
   110   121   128   am
   111   121   120    1
   112    75    73    1
   113   129   128    1
   114   129   132    1
   115    76    77    1
   116    76    71   am
   117     3     2    1
   118   123   120    1
   119   123   124    1
   120   111   112    1
   121   125   124    1
   122   125   127   ar
   123   119   120    1
   124   119   113   am
   125    77    80    1
   126    77    78    1
   127    71    72    2
   128    73    74    1
   129     2     1    1
   130   100    99    2
   131    90    91    1
   132   132   133    1
   133    80    81    1
   134   112   113    1
   135   112   115    1
   136    82    81    1
   137    82    83    1
   138   113   114    2
   139    91    92    1
   140    91    94    1
   141    78    79    2
   142    92    93    2
   143   118   116    1
   144    96    94    1
   145   115   116    1
   146   116   117    1
   147    94    95    1
