@<TRIPOS>MOLECULE
tmp/6btmA00.pdb
 210 203 0 0 0
SMALL
GASTEIGER

@<TRIPOS>ATOM
      1  N        155.2500  170.4920  105.0930 N.3    35  ILE35      -0.1231
      2  CA       154.6180  171.6750  104.5520 C.3    35  ILE35       0.1692
      3  C        154.1130  172.4780  105.7440 C.2    35  ILE35       0.2592
      4  O        154.0000  171.9690  106.8620 O.2    35  ILE35      -0.2718
      5  CB       153.4740  171.3110  103.5720 C.3    35  ILE35       0.0266
      6  CG1      153.2250  172.4200  102.5560 C.3    35  ILE35       0.0019
      7  CG2      152.1910  171.0300  104.3110 C.3    35  ILE35       0.0020
      8  CD1      154.3240  172.5380  101.5500 C.3    35  ILE35       0.0001
      9  N        153.8420  173.7630  105.5330 N.am   36  HIS36      -0.1962
     10  CA       153.1760  174.5650  106.5550 C.3    36  HIS36       0.1787
     11  C        151.7030  174.6450  106.1810 C.2    36  HIS36       0.2620
     12  O        151.2120  175.6450  105.6610 O.2    36  HIS36      -0.2715
     13  CB       153.7950  175.9480  106.6910 C.3    36  HIS36       0.0785
     14  CG       153.1790  176.7640  107.7820 C.ar   36  HIS36       0.0821
     15  ND1      153.4370  176.5310  109.1150 N.ar   36  HIS36      -0.2267
     16  CD2      152.2870  177.7800  107.7440 C.ar   36  HIS36       0.1154
     17  CE1      152.7450  177.3810  109.8500 C.ar   36  HIS36       0.1986
     18  NE2      152.0360  178.1480  109.0430 N.ar   36  HIS36      -0.2212
     19  N        150.9920  173.5560  106.4380 N.am   37  TYR37      -0.1960
     20  CA       149.5610  173.5490  106.2030 C.3    37  TYR37       0.1771
     21  C        148.8430  174.2500  107.3480 C.2    37  TYR37       0.2620
     22  O        149.1970  174.0870  108.5170 O.2    37  TYR37      -0.2715
     23  CB       149.0350  172.1250  106.0390 C.3    37  TYR37       0.0574
     24  CG       147.5430  172.1080  105.8550 C.ar   37  TYR37      -0.0198
     25  CD1      146.9720  172.5480  104.6720 C.ar   37  TYR37      -0.0009
     26  CD2      146.7020  171.6920  106.8780 C.ar   37  TYR37      -0.0009
     27  CE1      145.6130  172.5600  104.5060 C.ar   37  TYR37       0.0417
     28  CE2      145.3430  171.7000  106.7190 C.ar   37  TYR37       0.0417
     29  CZ       144.8080  172.1330  105.5320 C.ar   37  TYR37       0.1957
     30  OH       143.4560  172.1470  105.3790 O.3    37  TYR37      -0.2866
     31  N        147.8230  175.0280  107.0020 N.am   38  SER38      -0.1950
     32  CA       147.0600  175.8120  107.9640 C.3    38  SER38       0.1924
     33  C        145.6030  175.3730  107.9360 C.2    38  SER38       0.2314
     34  O        144.9000  175.6010  106.9480 O.2    38  SER38      -0.2863
     35  CB       147.1770  177.2980  107.6510 C.3    38  SER38       0.2116
     36  OG       146.5940  177.5830  106.3950 O.3    38  SER38      -0.2180
     37  N        143.1960  179.0320  107.7150 N.3    41  ILE41      -0.1231
     38  CA       142.7130  179.6770  106.4970 C.3    41  ILE41       0.1692
     39  C        141.6520  178.8140  105.8230 C.2    41  ILE41       0.2592
     40  O        140.5960  179.3120  105.4110 O.2    41  ILE41      -0.2718
     41  CB       143.8880  179.9930  105.5500 C.3    41  ILE41       0.0266
     42  CG1      144.7250  181.1610  106.0770 C.3    41  ILE41       0.0019
     43  CG2      143.4040  180.3130  104.1530 C.3    41  ILE41       0.0020
     44  CD1      145.9320  180.7760  106.9010 C.3    41  ILE41       0.0001
     45  N        141.8940  177.5040  105.7410 N.am   42  HIS42      -0.1976
     46  CA       140.9800  176.6100  105.0380 C.3    42  HIS42       0.1656
     47  C        139.6720  176.4230  105.7990 C.2    42  HIS42       0.2291
     48  O        138.5930  176.7200  105.2780 O.2    42  HIS42      -0.2864
     49  CB       141.6560  175.2620  104.7820 C.3    42  HIS42       0.0771
     50  CG       142.6960  175.2990  103.7060 C.ar   42  HIS42       0.0820
     51  ND1      144.0220  175.5720  103.9550 N.ar   42  HIS42      -0.2267
     52  CD2      142.6010  175.0950  102.3710 C.ar   42  HIS42       0.1154
     53  CE1      144.6980  175.5380  102.8200 C.ar   42  HIS42       0.1986
     54  NE2      143.8580  175.2510  101.8420 N.ar   42  HIS42      -0.2212
     55  N        137.7900  180.4390  105.0310 N.3    46  ASN46      -0.1240
     56  CA       137.0590  180.0950  103.8210 C.3    46  ASN46       0.1653
     57  C        135.7740  179.3380  104.1130 C.2    46  ASN46       0.2266
     58  O        134.9280  179.2320  103.2190 O.2    46  ASN46      -0.2867
     59  CB       137.9430  179.2580  102.8950 C.3    46  ASN46       0.1155
     60  CG       139.1050  180.0430  102.3360 C.2    46  ASN46       0.2627
     61  OD1      138.9550  181.1960  101.9430 O.2    46  ASN46      -0.2716
     62  ND2      140.2770  179.4260  102.3070 N.am   46  ASN46      -0.0877
     63  N        135.4040  176.1500  104.5270 N.3    48  ILE48      -0.1245
     64  CA       135.3510  174.8160  103.9500 C.3    48  ILE48       0.1561
     65  C        134.7820  173.8700  104.9930 C.2    48  ILE48       0.2260
     66  O        135.1710  173.9130  106.1660 O.2    48  ILE48      -0.2867
     67  CB       136.7530  174.3830  103.5000 C.3    48  ILE48       0.0252
     68  CG1      137.2950  175.3590  102.4610 C.3    48  ILE48       0.0019
     69  CG2      136.7300  172.9810  102.9340 C.3    48  ILE48       0.0019
     70  CD1      138.7800  175.2440  102.2440 C.3    48  ILE48       0.0001
     71  N        134.8580  167.5490  104.1190 N.3    52  TYR52      -0.1227
     72  CA       135.2740  167.5680  102.7200 C.3    52  TYR52       0.1736
     73  C        136.6230  166.8860  102.5370 C.2    52  TYR52       0.2595
     74  O        136.7410  165.9120  101.7880 O.2    52  TYR52      -0.2718
     75  CB       135.3270  169.0040  102.1990 C.3    52  TYR52       0.0548
     76  CG       135.6200  169.1020  100.7180 C.ar   52  TYR52      -0.0200
     77  CD1      134.6250  168.8760   99.7810 C.ar   52  TYR52      -0.0009
     78  CD2      136.8910  169.4060  100.2560 C.ar   52  TYR52      -0.0009
     79  CE1      134.8840  168.9590   98.4270 C.ar   52  TYR52       0.0417
     80  CE2      137.1580  169.4850   98.9020 C.ar   52  TYR52       0.0417
     81  CZ       136.1500  169.2640   97.9950 C.ar   52  TYR52       0.1957
     82  OH       136.4070  169.3440   96.6470 O.3    52  TYR52      -0.2866
     83  N        137.6590  167.3960  103.2050 N.am   53  CYS53      -0.1970
     84  CA       138.9820  166.7960  103.0780 C.3    53  CYS53       0.1712
     85  C        139.0390  165.4570  103.8050 C.2    53  CYS53       0.2296
     86  O        139.4830  164.4530  103.2410 O.2    53  CYS53      -0.2864
     87  CB       140.0530  167.7560  103.6060 C.3    53  CYS53       0.0983
     88  SG       140.2910  169.3050  102.6650 S.3    53  CYS53      -0.0798
     89  N        143.7220  163.4740  103.9740 N.3    66  PRO66      -0.2116
     90  CA       143.2670  163.5370  102.5780 C.3    66  PRO66       0.1372
     91  C        144.4200  163.3890  101.5970 C.2    66  PRO66       0.2244
     92  O        145.4750  164.0020  101.7590 O.2    66  PRO66      -0.2868
     93  CB       142.6260  164.9230  102.4780 C.3    66  PRO66       0.0268
     94  CG       143.2550  165.7080  103.5590 C.3    66  PRO66       0.0207
     95  CD       143.4830  164.7420  104.6770 C.3    66  PRO66       0.0892
     96  N        146.3840  163.5330   97.8170 N.3    68  LEU68      -0.1245
     97  CA       146.7670  164.6990   97.0300 C.3    68  LEU68       0.1561
     98  C        145.8790  164.9400   95.8120 C.2    68  LEU68       0.2260
     99  O        146.1720  165.8480   95.0290 O.2    68  LEU68      -0.2867
    100  CB       148.2250  164.5720   96.5900 C.3    68  LEU68       0.0270
    101  CG       149.2330  164.5850   97.7370 C.3    68  LEU68       0.0019
    102  CD1      150.6390  164.3670   97.2170 C.3    68  LEU68       0.0001
    103  CD2      149.1430  165.8800   98.5160 C.3    68  LEU68       0.0001
    104  N        142.6170  165.6130   96.3470 N.3    70  VAL70      -0.1231
    105  CA       141.8010  166.6870   96.8910 C.3    70  VAL70       0.1692
    106  C        142.6000  167.9860   96.9100 C.2    70  VAL70       0.2592
    107  O        142.0310  169.0780   96.8030 O.2    70  VAL70      -0.2718
    108  CB       141.2850  166.2720   98.2830 C.3    70  VAL70       0.0266
    109  CG1      140.3030  167.2850   98.8550 C.3    70  VAL70       0.0020
    110  CG2      140.6500  164.8960   98.2140 C.3    70  VAL70       0.0020
    111  N        143.9370  167.8980   96.9790 N.am   71  CYS71      -0.1970
    112  CA       144.7990  169.0780   96.8560 C.3    71  CYS71       0.1712
    113  C        144.9060  169.5900   95.4460 C.2    71  CYS71       0.2296
    114  O        145.7550  170.4580   95.2150 O.2    71  CYS71      -0.2864
    115  CB       146.2080  168.7920   97.3900 C.3    71  CYS71       0.0983
    116  SG       146.3960  168.7160   99.1950 S.3    71  CYS71      -0.0798
    117  N        140.6860  171.9040   94.0420 N.3    74  CYS74      -0.1221
    118  CA       140.5860  173.2860   94.4850 C.3    74  CYS74       0.1808
    119  C        141.7700  174.1250   94.0240 C.2    74  CYS74       0.2601
    120  O        141.6100  175.3260   93.7950 O.2    74  CYS74      -0.2717
    121  CB       140.4880  173.3660   96.0140 C.3    74  CYS74       0.0970
    122  SG       138.9370  172.8460   96.8150 S.3    74  CYS74      -0.0800
    123  N        142.9520  173.5230   93.8790 N.am   75  HIS75      -0.1975
    124  CA       144.1830  174.2530   93.5990 C.3    75  HIS75       0.1656
    125  C        144.6430  174.1520   92.1460 C.2    75  HIS75       0.2291
    126  O        145.8350  174.3150   91.8720 O.2    75  HIS75      -0.2864
    127  CB       145.2930  173.7890   94.5420 C.3    75  HIS75       0.0771
    128  CG       145.2120  174.3960   95.9070 C.ar   75  HIS75       0.0820
    129  ND1      145.7090  175.6500   96.1820 N.ar   75  HIS75      -0.2267
    130  CD2      144.6700  173.9450   97.0620 C.ar   75  HIS75       0.1154
    131  CE1      145.4860  175.9430   97.4500 C.ar   75  HIS75       0.1986
    132  NE2      144.8590  174.9230   98.0090 N.ar   75  HIS75      -0.2212
    133  N        144.1120  178.2270   91.9230 N.3    78  ILE78      -0.1245
    134  CA       144.6520  179.0650   92.9870 C.3    78  ILE78       0.1561
    135  C        146.1620  178.8710   92.9730 C.2    78  ILE78       0.2260
    136  O        146.6800  177.8930   93.5230 O.2    78  ILE78      -0.2867
    137  CB       144.0510  178.7260   94.3550 C.3    78  ILE78       0.0252
    138  CG1      142.5390  178.9350   94.3270 C.3    78  ILE78       0.0019
    139  CG2      144.6530  179.5980   95.4380 C.3    78  ILE78       0.0019
    140  CD1      141.8270  178.4160   95.5500 C.3    78  ILE78       0.0001
    141  N        148.3450  183.4340   96.6380 N.3    81  VAL81      -0.1231
    142  CA       147.4820  183.2750   97.8020 C.3    81  VAL81       0.1692
    143  C        146.4840  184.4280   97.9350 C.2    81  VAL81       0.2591
    144  O        145.2880  184.2290   97.6980 O.2    81  VAL81      -0.2718
    145  CB       148.3340  183.0530   99.0720 C.3    81  VAL81       0.0266
    146  CG1      148.8570  181.6380   99.0700 C.3    81  VAL81       0.0020
    147  CG2      149.5660  183.9620   99.1120 C.3    81  VAL81       0.0020
    148  N        146.9620  185.6370   98.2260 N.am   82  ALA82      -0.1980
    149  CA       146.1680  186.8500   98.4360 C.3    82  ALA82       0.1597
    150  C        147.1430  188.0070   98.6080 C.2    82  ALA82       0.2287
    151  O        148.3580  187.8450   98.4480 O.2    82  ALA82      -0.2864
    152  CB       145.2450  186.7450   99.6510 C.3    82  ALA82       0.0319
    153  N        146.2260  188.5390  103.5050 N.3    85  THR85      -0.1218
    154  CA       146.2520  187.3430  104.3420 C.3    85  THR85       0.1862
    155  C        147.6150  187.1500  105.0100 C.2    85  THR85       0.2287
    156  O        147.6890  186.5700  106.0980 O.2    85  THR85      -0.2866
    157  CB       145.8610  186.1180  103.5040 C.3    85  THR85       0.1770
    158  OG1      144.6090  186.3810  102.8680 O.3    85  THR85      -0.2211
    159  CG2      145.6730  184.8540  104.3530 C.3    85  THR85       0.0375
    160  N        154.2590  182.0980  101.4690 N.3    95  TYR95      -0.1241
    161  CA       153.1740  181.2170  101.0540 C.3    95  TYR95       0.1605
    162  C        153.2970  180.8090   99.5910 C.2    95  TYR95       0.2264
    163  O        153.0360  179.6510   99.2500 O.2    95  TYR95      -0.2867
    164  CB       151.8240  181.8900  101.2940 C.3    95  TYR95       0.0534
    165  CG       151.4040  181.9850  102.7410 C.ar   95  TYR95      -0.0201
    166  CD1      152.0270  181.2250  103.7190 C.ar   95  TYR95      -0.0009
    167  CD2      150.3730  182.8310  103.1250 C.ar   95  TYR95      -0.0009
    168  CE1      151.6390  181.3090  105.0420 C.ar   95  TYR95       0.0417
    169  CE2      149.9780  182.9220  104.4460 C.ar   95  TYR95       0.0417
    170  CZ       150.6140  182.1590  105.3990 C.ar   95  TYR95       0.1957
    171  OH       150.2250  182.2460  106.7140 O.3    95  TYR95      -0.2866
    172  N        155.7530  178.1670   98.9330 N.3    98  GLN98      -0.1231
    173  CA       155.4660  176.9320   99.6360 C.3    98  GLN98       0.1698
    174  C        154.2330  176.2230   99.1000 C.2    98  GLN98       0.2592
    175  O        154.1240  175.0020   99.2540 O.2    98  GLN98      -0.2718
    176  CB       155.3040  177.2060  101.1360 C.3    98  GLN98       0.0381
    177  CG       155.5270  175.9990  101.9970 C.3    98  GLN98       0.0905
    178  CD       155.5640  176.3300  103.4560 C.2    98  GLN98       0.2608
    179  OE1      155.2440  177.4430  103.8620 O.2    98  GLN98      -0.2717
    180  NE2      156.0220  175.3810  104.2550 N.am   98  GLN98      -0.0878
    181  N        153.3230  176.9430   98.4410 N.am   99  ILE99      -0.1980
    182  CA       152.2830  176.2910   97.6560 C.3    99  ILE99       0.1595
    183  C        152.8800  175.6600   96.4010 C.2    99  ILE99       0.2287
    184  O        152.2940  174.7330   95.8340 O.2    99  ILE99      -0.2864
    185  CB       151.1570  177.2980   97.3300 C.3    99  ILE99       0.0276
    186  CG1      149.8910  176.5920   96.8500 C.3    99  ILE99       0.0022
    187  CG2      151.6060  178.3260   96.3020 C.3    99  ILE99       0.0022
    188  CD1      148.6800  177.4860   96.8020 C.3    99  ILE99       0.0001
    189  N        153.5310  171.9750   96.8410 N.3   102  LEU102     -0.1245
    190  CA       152.4270  171.0780   96.5220 C.3   102  LEU102      0.1561
    191  C        152.4530  170.6820   95.0530 C.2   102  LEU102      0.2260
    192  O        151.9800  169.6000   94.6950 O.2   102  LEU102     -0.2867
    193  CB       151.0970  171.7420   96.9010 C.3   102  LEU102      0.0270
    194  CG       149.7450  171.0150   96.9200 C.3   102  LEU102      0.0019
    195  CD1      149.0500  170.9740   95.5660 C.3   102  LEU102      0.0001
    196  CD2      149.9180  169.6100   97.4660 C.3   102  LEU102      0.0001
    197  N        153.5640  163.0740  106.0860 N.3   124  TRP124     -0.1241
    198  CA       152.9670  163.8130  107.1860 C.3   124  TRP124      0.1605
    199  C        153.3990  163.2120  108.5190 C.2   124  TRP124      0.2264
    200  O        153.8910  162.0860  108.5880 O.2   124  TRP124     -0.2867
    201  CB       151.4450  163.7930  107.0870 C.3   124  TRP124      0.0550
    202  CG       150.8940  164.4090  105.8430 C.ar  124  TRP124      0.0003
    203  CD1      150.5050  163.7550  104.7210 C.ar  124  TRP124      0.0946
    204  CD2      150.6580  165.7980  105.5960 C.ar  124  TRP124      0.0152
    205  NE1      150.0420  164.6410  103.7860 N.ar  124  TRP124     -0.2442
    206  CE2      150.1270  165.9060  104.2990 C.ar  124  TRP124      0.0810
    207  CE3      150.8470  166.9610  106.3430 C.ar  124  TRP124      0.0012
    208  CZ2      149.7830  167.1250  103.7340 C.ar  124  TRP124      0.0191
    209  CZ3      150.5010  168.1680  105.7800 C.ar  124  TRP124      0.0001
    210  CH2      149.9740  168.2410  104.4890 C.ar  124  TRP124      0.0015
@<TRIPOS>BOND
     1   126   125    2
     2   133   134    1
     3   125   124    1
     4   135   134    1
     5   135   136    2
     6   134   137    1
     7   124   123    1
     8   124   127    1
     9   120   119    2
    10   123   119   am
    11   119   118    1
    12   117   118    1
    13   138   137    1
    14   138   140    1
    15   137   139    1
    16   118   121    1
    17   127   128    1
    18   192   191    2
    19    99    98    2
    20   191   190    1
    21   114   113    2
    22   113   112    1
    23   195   194    1
    24    98    97    1
    25   184   183    2
    26   128   129   ar
    27   128   130   ar
    28   121   122    1
    29   129   131   ar
    30   187   185    1
    31   104   105    1
    32   183   182    1
    33   190   189    1
    34   190   193    1
    35   100    97    1
    36   100   101    1
    37   141   142    1
    38    82    81    1
    39   188   186    1
    40   107   106    2
    41   186   185    1
    42   112   111    1
    43   112   115    1
    44   105   106    1
    45   105   108    1
    46   193   194    1
    47   106   111   am
    48   194   196    1
    49    97    96    1
    50   130   132   ar
    51   102   101    1
    52   185   182    1
    53   115   116    1
    54   131   132   ar
    55   182   181    1
    56   144   143    2
    57   101   103    1
    58   142   143    1
    59   142   145    1
    60   143   148   am
    61    81    79   ar
    62    81    80   ar
    63   110   108    1
    64   148   149    1
    65   108   109    1
    66    79    77   ar
    67   149   150    1
    68   149   152    1
    69   181   174   am
    70   151   150    2
    71    80    78   ar
    72   172   173    1
    73   146   145    1
    74   145   147    1
    75   174   175    2
    76   174   173    1
    77   163   162    2
    78   162   161    1
    79   173   176    1
    80    77    76   ar
    81    78    76   ar
    82    76    75    1
    83   161   164    1
    84   161   160    1
    85   176   177    1
    86   164   165    1
    87     8     6    1
    88    91    92    2
    89    91    90    1
    90    74    73    2
    91    54    52   ar
    92    54    53   ar
    93    61    60    2
    94   177   178    1
    95    75    72    1
    96    70    68    1
    97    62    60   am
    98    60    59    1
    99    52    50   ar
   100    68    67    1
   101    93    90    1
   102    93    94    1
   103    73    72    1
   104    73    83   am
   105     6     5    1
   106    90    89    1
   107    88    87    1
   108    72    71    1
   109   165   167   ar
   110   165   166   ar
   111    53    51   ar
   112   158   157    1
   113    59    56    1
   114    69    67    1
   115    84    83    1
   116    84    87    1
   117    84    85    1
   118   167   169   ar
   119    58    57    2
   120    86    85    2
   121   178   179    2
   122   178   180   am
   123    67    64    1
   124   157   154    1
   125   157   159    1
   126   153   154    1
   127    94    95    1
   128     5     7    1
   129     5     2    1
   130    50    51   ar
   131    50    49    1
   132   166   168   ar
   133   208   206   ar
   134   208   210   ar
   135   205   206   ar
   136   205   203   ar
   137    56    57    1
   138    56    55    1
   139    64    63    1
   140    64    65    1
   141    89    95    1
   142    43    41    1
   143   206   204   ar
   144   154   155    1
   145   169   170   ar
   146   210   209   ar
   147    27    25   ar
   148    27    29   ar
   149     2     1    1
   150     2     3    1
   151    25    24   ar
   152   203   202   ar
   153    49    46    1
   154    65    66    2
   155   155   156    2
   156    46    45    1
   157    46    47    1
   158   168   170   ar
   159    48    47    2
   160    30    29    1
   161   170   171    1
   162    40    39    2
   163    29    28   ar
   164     9     3   am
   165     9    10    1
   166    41    42    1
   167    41    38    1
   168   204   202   ar
   169   204   207   ar
   170    12    11    2
   171    45    39   am
   172     3     4    2
   173   209   207   ar
   174    39    38    1
   175   202   201    1
   176    24    23    1
   177    24    26   ar
   178    23    20    1
   179    42    44    1
   180   197   198    1
   181    11    19   am
   182    11    10    1
   183    20    19    1
   184    20    21    1
   185    36    35    1
   186    38    37    1
   187    10    13    1
   188    13    14    1
   189    28    26   ar
   190    34    33    2
   191    31    21   am
   192    31    32    1
   193   201   198    1
   194   198   199    1
   195    21    22    2
   196    35    32    1
   197    16    14   ar
   198    16    18   ar
   199    14    15   ar
   200    33    32    1
   201   199   200    2
   202    18    17   ar
   203    15    17   ar
