@<TRIPOS>MOLECULE
tmp/6btmE01.pdb
 226 219 0 0 0
SMALL
GASTEIGER

@<TRIPOS>ATOM
      1  N        130.8030  162.0990   76.8340 N.3    59  TYR59      -0.1241
      2  CA       130.0260  163.0460   77.6260 C.3    59  TYR59       0.1605
      3  C        128.5700  163.0680   77.1800 C.2    59  TYR59       0.2264
      4  O        127.6610  162.7900   77.9690 O.2    59  TYR59      -0.2867
      5  CB       130.6430  164.4420   77.5250 C.3    59  TYR59       0.0534
      6  CG       129.8560  165.5160   78.2370 C.ar   59  TYR59      -0.0201
      7  CD1      129.8550  165.6030   79.6210 C.ar   59  TYR59      -0.0009
      8  CD2      129.1220  166.4520   77.5210 C.ar   59  TYR59      -0.0009
      9  CE1      129.1350  166.5860   80.2720 C.ar   59  TYR59       0.0417
     10  CE2      128.4000  167.4380   78.1620 C.ar   59  TYR59       0.0417
     11  CZ       128.4100  167.5000   79.5360 C.ar   59  TYR59       0.1957
     12  OH       127.6930  168.4820   80.1770 O.3    59  TYR59      -0.2866
     13  N        124.8590  167.3270   99.6280 N.3    84  PHE84      -0.1241
     14  CA       125.0310  168.6170   98.9780 C.3    84  PHE84       0.1605
     15  C        125.4600  169.6840   99.9690 C.2    84  PHE84       0.2264
     16  O        126.0860  170.6720   99.5710 O.2    84  PHE84      -0.2867
     17  CB       123.7270  169.0350   98.2960 C.3    84  PHE84       0.0534
     18  CG       123.8540  170.2360   97.3960 C.ar   84  PHE84      -0.0203
     19  CD1      124.3340  170.0960   96.1050 C.ar   84  PHE84      -0.0042
     20  CD2      123.4910  171.4980   97.8360 C.ar   84  PHE84      -0.0042
     21  CE1      124.4480  171.1890   95.2690 C.ar   84  PHE84      -0.0003
     22  CE2      123.6090  172.5950   97.0070 C.ar   84  PHE84      -0.0003
     23  CZ       124.0870  172.4390   95.7220 C.ar   84  PHE84      -0.0000
     24  N        129.7940  168.7700  100.2110 N.3    87  TYR87      -0.1227
     25  CA       130.7680  168.6900   99.1340 C.3    87  TYR87       0.1736
     26  C        130.5400  169.7010   98.0190 C.2    87  TYR87       0.2595
     27  O        131.2830  169.6800   97.0360 O.2    87  TYR87      -0.2718
     28  CB       130.7570  167.2800   98.5430 C.3    87  TYR87       0.0548
     29  CG       131.1340  166.2050   99.5320 C.ar   87  TYR87      -0.0200
     30  CD1      132.4590  165.9450   99.8340 C.ar   87  TYR87      -0.0009
     31  CD2      130.1590  165.4530  100.1680 C.ar   87  TYR87      -0.0009
     32  CE1      132.8060  164.9630  100.7410 C.ar   87  TYR87       0.0417
     33  CE2      130.4950  164.4700  101.0770 C.ar   87  TYR87       0.0417
     34  CZ       131.8180  164.2300  101.3580 C.ar   87  TYR87       0.1957
     35  OH       132.1540  163.2520  102.2610 O.3    87  TYR87      -0.2866
     36  N        129.5470  170.5810   98.1300 N.am   88  CYS88      -0.1970
     37  CA       129.1410  171.3840   96.9830 C.3    88  CYS88       0.1712
     38  C        128.9520  172.8720   97.2500 C.2    88  CYS88       0.2296
     39  O        128.9620  173.6420   96.2850 O.2    88  CYS88      -0.2864
     40  CB       127.8360  170.8360   96.3950 C.3    88  CYS88       0.0983
     41  SG       127.9510  169.1720   95.7090 S.3    88  CYS88      -0.0798
     42  N        130.9170  174.9520   98.6300 N.3    90  SER90      -0.1202
     43  CA       132.1740  175.6890   98.5470 C.3    90  SER90       0.2020
     44  C        132.3770  176.3580   97.1900 C.2    90  SER90       0.2619
     45  O        133.0920  177.3600   97.1050 O.2    90  SER90      -0.2717
     46  CB       133.3430  174.7550   98.8500 C.3    90  SER90       0.2103
     47  OG       133.2580  174.2450  100.1670 O.3    90  SER90      -0.2182
     48  N        131.7680  175.8370   96.1260 N.am   91  CYS91      -0.1955
     49  CA       131.7720  176.5330   94.8450 C.3    91  CYS91       0.1843
     50  C        130.3680  176.9090   94.3940 C.2    91  CYS91       0.2625
     51  O        130.0980  178.0890   94.1610 O.2    91  CYS91      -0.2714
     52  CB       132.4600  175.6720   93.7880 C.3    91  CYS91       0.0997
     53  SG       134.1740  175.2940   94.1530 S.3    91  CYS91      -0.0797
     54  N        129.4650  175.9430   94.2700 N.am   92  HIS92      -0.1973
     55  CA       128.1040  176.2170   93.8460 C.3    92  HIS92       0.1656
     56  C        127.2960  176.7610   95.0220 C.2    92  HIS92       0.2291
     57  O        127.6950  176.6540   96.1820 O.2    92  HIS92      -0.2864
     58  CB       127.4560  174.9470   93.2870 C.3    92  HIS92       0.0771
     59  CG       128.1750  174.3650   92.1050 C.ar   92  HIS92       0.0820
     60  ND1      128.0960  174.9070   90.8410 N.ar   92  HIS92      -0.2267
     61  CD2      128.9850  173.2840   91.9970 C.ar   92  HIS92       0.1154
     62  CE1      128.8280  174.1890   90.0080 C.ar   92  HIS92       0.1986
     63  NE2      129.3800  173.1970   90.6840 N.ar   92  HIS92      -0.2212
     64  N        138.7310  182.2570   93.3170 N.3   108  PHE108     -0.1227
     65  CA       138.7930  181.8820   91.9120 C.3   108  PHE108      0.1736
     66  C        137.4070  182.0360   91.3070 C.2   108  PHE108      0.2595
     67  O        136.4000  181.7640   91.9640 O.2   108  PHE108     -0.2718
     68  CB       139.3440  180.4590   91.7090 C.3   108  PHE108      0.0547
     69  CG       138.4620  179.3600   92.2350 C.ar  108  PHE108     -0.0202
     70  CD1      138.5370  178.9690   93.5600 C.ar  108  PHE108     -0.0042
     71  CD2      137.6120  178.6680   91.3840 C.ar  108  PHE108     -0.0042
     72  CE1      137.7470  177.9460   94.0350 C.ar  108  PHE108     -0.0003
     73  CE2      136.8210  177.6480   91.8540 C.ar  108  PHE108     -0.0003
     74  CZ       136.8910  177.2860   93.1790 C.ar  108  PHE108     -0.0000
     75  N        137.3700  182.4760   90.0560 N.am  109  LEU109     -0.1966
     76  CA       136.1420  182.8510   89.3760 C.3   109  LEU109      0.1728
     77  C        135.7460  181.7810   88.3660 C.2   109  LEU109      0.2617
     78  O        136.4800  180.8250   88.1100 O.2   109  LEU109     -0.2715
     79  CB       136.3000  184.2070   88.6730 C.3   109  LEU109      0.0311
     80  CG       136.0770  185.5210   89.4360 C.3   109  LEU109      0.0022
     81  CD1      134.6590  185.5900   89.9770 C.3   109  LEU109      0.0001
     82  CD2      137.0980  185.7650   90.5450 C.3   109  LEU109      0.0001
     83  N        134.5610  181.9610   87.7890 N.am  110  GLY110     -0.1940
     84  CA       134.0950  181.0910   86.7300 C.3   110  GLY110      0.2014
     85  C        133.2350  179.9360   87.1940 C.2   110  GLY110      0.2639
     86  O        133.4970  178.7840   86.8380 O.2   110  GLY110     -0.2714
     87  N        132.2080  180.2250   87.9870 N.am  111  VAL111     -0.1963
     88  CA       131.2310  179.2330   88.4140 C.3   111  VAL111      0.1712
     89  C        129.8630  179.6800   87.9120 C.2   111  VAL111      0.2458
     90  O        129.3570  180.7200   88.3430 O.2   111  VAL111     -0.2730
     91  CB       131.2150  179.0480   89.9400 C.3   111  VAL111      0.0289
     92  CG1      130.1080  178.0910   90.3390 C.3   111  VAL111      0.0023
     93  CG2      132.5550  178.5370   90.4270 C.3   111  VAL111      0.0023
     94  N        129.2350  178.9360   87.0090 N.am  112  PRO112     -0.2727
     95  CA       127.9500  179.3640   86.4500 C.3   112  PRO112      0.1402
     96  C        126.7720  178.9450   87.3080 C.2   112  PRO112      0.2269
     97  O        126.9270  178.2820   88.3390 O.2   112  PRO112     -0.2865
     98  CB       127.9150  178.6540   85.0940 C.3   112  PRO112      0.0296
     99  CG       128.6740  177.4040   85.3440 C.3   112  PRO112      0.0237
    100  CD       129.7680  177.7580   86.3120 C.3   112  PRO112      0.0939
    101  N        122.5780  177.3230   87.3630 N.3   114  TYR114     -0.1241
    102  CA       121.9180  176.1350   86.8470 C.3   114  TYR114      0.1605
    103  C        120.7840  176.4600   85.8870 C.2   114  TYR114      0.2264
    104  O        120.2160  175.5410   85.2880 O.2   114  TYR114     -0.2867
    105  CB       121.3900  175.2740   88.0030 C.3   114  TYR114      0.0534
    106  CG       122.4690  174.5620   88.7930 C.ar  114  TYR114     -0.0201
    107  CD1      123.7470  174.3960   88.2740 C.ar  114  TYR114     -0.0009
    108  CD2      122.2100  174.0620   90.0640 C.ar  114  TYR114     -0.0009
    109  CE1      124.7340  173.7450   88.9960 C.ar  114  TYR114      0.0417
    110  CE2      123.1910  173.4120   90.7920 C.ar  114  TYR114      0.0417
    111  CZ       124.4490  173.2580   90.2520 C.ar  114  TYR114      0.1957
    112  OH       125.4270  172.6140   90.9720 O.3   114  TYR114     -0.2866
    113  N        122.7460  176.1940   81.9070 N.3   117  ARG117     -0.1245
    114  CA       123.1510  174.9470   81.2710 C.3   117  ARG117      0.1563
    115  C        122.1060  173.8800   81.5560 C.2   117  ARG117      0.2260
    116  O        121.7990  173.6060   82.7210 O.2   117  ARG117     -0.2867
    117  CB       124.5260  174.5090   81.7740 C.3   117  ARG117      0.0307
    118  CG       125.6440  175.4530   81.3770 C.3   117  ARG117      0.0489
    119  CD       126.9770  174.9960   81.9270 C.3   117  ARG117      0.2205
    120  NE       128.0550  175.9100   81.5770 N.pl3 117  ARG117     -0.0865
    121  CZ       129.3120  175.7660   81.9750 C.cat 117  ARG117      0.5346
    122  NH1      129.6510  174.7380   82.7370 N.pl3 117  ARG117      0.1354
    123  NH2      130.2310  176.6470   81.6090 N.pl3 117  ARG117      0.1354
    124  N        120.9370  170.2750   82.0440 N.3   119  ILE119     -0.1245
    125  CA       121.6240  169.0860   82.5300 C.3   119  ILE119      0.1561
    126  C        120.5790  168.0270   82.8440 C.2   119  ILE119      0.2260
    127  O        119.6050  168.3050   83.5500 O.2   119  ILE119     -0.2867
    128  CB       122.4710  169.3820   83.7850 C.3   119  ILE119      0.0252
    129  CG1      123.4830  170.5010   83.5320 C.3   119  ILE119      0.0019
    130  CG2      123.2230  168.1520   84.2110 C.3   119  ILE119      0.0019
    131  CD1      124.4930  170.1790   82.4630 C.3   119  ILE119      0.0001
    132  N        123.7330  163.3200   83.1690 N.3   123  SER123     -0.1202
    133  CA       124.8360  164.2220   82.8740 C.3   123  SER123      0.2020
    134  C        125.4780  164.8010   84.1260 C.2   123  SER123      0.2618
    135  O        126.5920  165.3240   84.0420 O.2   123  SER123     -0.2717
    136  CB       124.3650  165.3610   81.9700 C.3   123  SER123      0.2103
    137  OG       125.4300  166.2510   81.6940 O.3   123  SER123     -0.2182
    138  N        124.8030  164.7340   85.2750 N.am  124  ILE124     -0.1979
    139  CA       125.4630  165.0380   86.5410 C.3   124  ILE124      0.1595
    140  C        126.4630  163.9450   86.8840 C.2   124  ILE124      0.2287
    141  O        127.6120  164.2230   87.2440 O.2   124  ILE124     -0.2864
    142  CB       124.4270  165.2140   87.6640 C.3   124  ILE124      0.0276
    143  CG1      123.5710  166.4440   87.4150 C.3   124  ILE124      0.0022
    144  CG2      125.0990  165.3280   89.0180 C.3   124  ILE124      0.0022
    145  CD1      122.3920  166.5350   88.3210 C.3   124  ILE124      0.0001
    146  N        129.7720  164.0880   85.1070 N.3   127  VAL127     -0.1231
    147  CA       130.6320  165.1800   85.5520 C.3   127  VAL127      0.1692
    148  C        131.1060  164.9460   86.9840 C.2   127  VAL127      0.2591
    149  O        132.2580  165.2360   87.3220 O.2   127  VAL127     -0.2718
    150  CB       129.8870  166.5200   85.3910 C.3   127  VAL127      0.0266
    151  CG1      130.6950  167.6840   85.9320 C.3   127  VAL127      0.0020
    152  CG2      129.5680  166.7610   83.9320 C.3   127  VAL127      0.0020
    153  N        130.2530  164.3610   87.8310 N.am  128  GLU128     -0.1979
    154  CA       130.5850  164.1570   89.2390 C.3   128  GLU128      0.1602
    155  C        131.6560  163.0850   89.4340 C.2   128  GLU128      0.2287
    156  O        132.2940  163.0460   90.4890 O.2   128  GLU128     -0.2864
    157  CB       129.3020  163.8110   90.0050 C.3   128  GLU128      0.0415
    158  CG       129.3680  163.8640   91.5170 C.3   128  GLU128      0.1163
    159  CD       128.0130  163.6560   92.1580 C.2   128  GLU128      0.3649
    160  OE1      127.0310  163.4420   91.4210 O.co2 128  GLU128     -0.2457
    161  OE2      127.9260  163.7120   93.4000 O.co2 128  GLU128     -0.2457
    162  N        134.5090  168.6440   84.6180 N.3   132  LEU132     -0.1231
    163  CA       134.5190  169.3080   83.3180 C.3   132  LEU132      0.1693
    164  C        135.4220  170.5300   83.4360 C.2   132  LEU132      0.2592
    165  O        134.9710  171.6340   83.7430 O.2   132  LEU132     -0.2718
    166  CB       133.0820  169.6750   82.8870 C.3   132  LEU132      0.0284
    167  CG       132.7490  170.0350   81.4300 C.3   132  LEU132      0.0019
    168  CD1      133.0670  171.4790   81.0480 C.3   132  LEU132      0.0001
    169  CD2      133.4470  169.0680   80.4810 C.3   132  LEU132      0.0001
    170  N        136.7280  170.2910   83.2750 N.am  133  ASN133     -0.1960
    171  CA       137.8010  171.2600   83.0390 C.3   133  ASN133      0.1819
    172  C        138.1550  172.1460   84.2300 C.2   133  ASN133      0.2621
    173  O        139.1830  172.8280   84.2000 O.2   133  ASN133     -0.2715
    174  CB       137.4690  172.1560   81.8380 C.3   133  ASN133      0.1195
    175  CG       137.5360  171.4160   80.5230 C.2   133  ASN133      0.2630
    176  OD1      138.4410  170.6150   80.2950 O.2   133  ASN133     -0.2716
    177  ND2      136.5790  171.6840   79.6450 N.am  133  ASN133     -0.0877
    178  N        137.3450  172.1550   85.2830 N.am  134  ALA134     -0.1963
    179  CA       137.7350  172.8440   86.5040 C.3   134  ALA134      0.1728
    180  C        137.2850  172.1060   87.7480 C.2   134  ALA134      0.2616
    181  O        137.6390  172.5140   88.8590 O.2   134  ALA134     -0.2715
    182  CB       137.1820  174.2750   86.5080 C.3   134  ALA134      0.0334
    183  N        136.5290  171.0280   87.6010 N.am  135  MET135     -0.1963
    184  CA       136.2130  170.1620   88.7150 C.3   135  MET135      0.1736
    185  C        137.1960  169.0020   88.7730 C.2   135  MET135      0.2617
    186  O        138.0910  168.8560   87.9380 O.2   135  MET135     -0.2715
    187  CB       134.7740  169.6530   88.6320 C.3   135  MET135      0.0427
    188  CG       133.7530  170.6410   89.1580 C.3   135  MET135      0.0599
    189  SD       132.0170  170.1400   89.1580 S.3   135  MET135     -0.1393
    190  CE       132.1170  168.7210   90.2410 C.3   135  MET135      0.0692
    191  N        137.0270  168.1630   89.7920 N.am  136  GLY136     -0.1955
    192  CA       137.8520  166.9930   89.9560 C.3   136  GLY136      0.1869
    193  C        136.9920  165.7730   90.2230 C.2   136  GLY136      0.2309
    194  O        135.7840  165.8720   90.4410 O.2   136  GLY136     -0.2863
    195  N        135.2600  163.4340   92.1570 N.3   138  HIS138     -0.1241
    196  CA       134.7050  163.2360   93.4860 C.3   138  HIS138      0.1621
    197  C        134.3460  161.7820   93.7550 C.2   138  HIS138      0.2264
    198  O        133.6380  161.5020   94.7250 O.2   138  HIS138     -0.2867
    199  CB       133.4790  164.1250   93.6820 C.3   138  HIS138      0.0745
    200  CG       133.7890  165.5880   93.6660 C.ar  138  HIS138      0.0817
    201  ND1      134.3610  166.2380   94.7360 N.ar  138  HIS138     -0.2268
    202  CD2      133.6220  166.5240   92.7040 C.ar  138  HIS138      0.1154
    203  CE1      134.5250  167.5130   94.4380 C.ar  138  HIS138      0.1986
    204  NE2      134.0840  167.7130   93.2100 N.ar  138  HIS138     -0.2212
    205  N        132.7810  160.2780   97.4440 N.3   142  LEU142     -0.1245
    206  CA       131.4450  159.7060   97.4640 C.3   142  LEU142      0.1561
    207  C        131.4500  158.3240   96.8170 C.2   142  LEU142      0.2260
    208  O        132.3300  157.9880   96.0230 O.2   142  LEU142     -0.2867
    209  CB       130.4650  160.6240   96.7350 C.3   142  LEU142      0.0270
    210  CG       130.2180  162.0170   97.3060 C.3   142  LEU142      0.0019
    211  CD1      129.3920  162.8470   96.3440 C.3   142  LEU142      0.0001
    212  CD2      129.5270  161.9190   98.6450 C.3   142  LEU142      0.0001
    213  N        122.7350  162.5710   95.1570 N.3   150  VAL150     -0.1245
    214  CA       123.0040  163.9820   94.9130 C.3   150  VAL150      0.1561
    215  C        122.3010  164.4440   93.6430 C.2   150  VAL150      0.2260
    216  O        121.7670  165.5580   93.5890 O.2   150  VAL150     -0.2867
    217  CB       124.5260  164.2140   94.8480 C.3   150  VAL150      0.0252
    218  CG1      124.8580  165.6680   94.5590 C.3   150  VAL150      0.0019
    219  CG2      125.1770  163.7690   96.1390 C.3   150  VAL150      0.0019
    220  N        119.9070  167.8750   92.8820 N.3   154  VAL154     -0.1245
    221  CA       120.2910  168.9840   92.0130 C.3   154  VAL154      0.1561
    222  C        119.1680  169.3020   91.0310 C.2   154  VAL154      0.2260
    223  O        118.9180  170.4720   90.7110 O.2   154  VAL154     -0.2867
    224  CB       121.6180  168.6570   91.3000 C.3   154  VAL154      0.0252
    225  CG1      122.0240  169.7540   90.3220 C.3   154  VAL154      0.0019
    226  CG2      122.7170  168.4480   92.3150 C.3   154  VAL154      0.0019
@<TRIPOS>BOND
     1     1     2    1
     2     3     2    1
     3     3     4    2
     4     8    10   ar
     5     8     6   ar
     6     5     2    1
     7     5     6    1
     8    10    11   ar
     9     6     7   ar
    10    11    12    1
    11    11     9   ar
    12     7     9   ar
    13   177   175   am
    14   176   175    2
    15   169   167    1
    16   175   174    1
    17   168   167    1
    18   114   115    1
    19   114   117    1
    20   114   113    1
    21   118   117    1
    22   118   119    1
    23   167   166    1
    24   115   116    2
    25   120   119    1
    26   120   121    2
    27   123   121    1
    28   137   136    1
    29   174   171    1
    30   136   133    1
    31   121   122    1
    32   124   125    1
    33   131   129    1
    34   125   126    1
    35   125   128    1
    36   126   127    2
    37   133   132    1
    38   133   134    1
    39   166   163    1
    40   171   170    1
    41   171   172    1
    42   170   164   am
    43   163   164    1
    44   163   162    1
    45   164   165    2
    46   129   128    1
    47   128   130    1
    48   152   150    1
    49   135   134    2
    50   134   138   am
    51   173   172    2
    52   172   178   am
    53    98    99    1
    54    98    95    1
    55   146   147    1
    56   138   139    1
    57   178   179    1
    58   104   103    2
    59    99   100    1
    60   150   147    1
    61   150   151    1
    62   147   148    1
    63   103   102    1
    64   100    94    1
    65    95    94    1
    66    95    96    1
    67   179   182    1
    68   179   180    1
    69   139   140    1
    70   139   142    1
    71    84    85    1
    72    84    83    1
    73    86    85    2
    74   102   101    1
    75   102   105    1
    76   140   141    2
    77   148   149    2
    78   148   153   am
    79    94    89   am
    80    85    87   am
    81    96    97    2
    82   143   142    1
    83   143   145    1
    84   183   180   am
    85   183   184    1
    86   142   144    1
    87   180   181    2
    88    83    77   am
    89   153   154    1
    90    89    90    2
    91    89    88    1
    92   186   185    2
    93    87    88    1
    94   105   106    1
    95    78    77    2
    96   107   106   ar
    97   107   109   ar
    98    77    76    1
    99    88    91    1
   100   187   184    1
   101   187   188    1
   102    79    76    1
   103    79    80    1
   104   184   185    1
   105   185   191   am
   106   106   108   ar
   107   109   111   ar
   108   189   188    1
   109   189   190    1
   110   154   155    1
   111   154   157    1
   112    76    75    1
   113   155   156    2
   114    80    81    1
   115    80    82    1
   116   191   192    1
   117    91    92    1
   118    91    93    1
   119   192   193    1
   120   157   158    1
   121    62    63   ar
   122    62    60   ar
   123    75    66   am
   124   108   110   ar
   125   193   194    2
   126   111   110   ar
   127   111   112    1
   128   225   224    1
   129    63    61   ar
   130   223   222    2
   131    60    59   ar
   132   222   221    1
   133   224   221    1
   134   224   226    1
   135    66    65    1
   136    66    67    2
   137    71    73   ar
   138    71    69   ar
   139   160   159   ar
   140   158   159    1
   141    68    65    1
   142    68    69    1
   143    73    74   ar
   144    65    64    1
   145    61    59   ar
   146   221   220    1
   147    59    58    1
   148   195   196    1
   149   159   161   ar
   150    69    70   ar
   151   202   204   ar
   152   202   200   ar
   153    74    72   ar
   154   204   203   ar
   155    58    55    1
   156   196   199    1
   157   196   197    1
   158    70    72   ar
   159   216   215    2
   160   215   214    1
   161   200   199    1
   162   200   201   ar
   163   197   198    2
   164    52    53    1
   165    52    49    1
   166    55    54    1
   167    55    56    1
   168    51    50    2
   169    54    50   am
   170    50    49    1
   171   203   201   ar
   172   218   217    1
   173    49    48    1
   174   217   214    1
   175   217   219    1
   176   214   213    1
   177    56    57    2
   178    21    23   ar
   179    21    19   ar
   180    41    40    1
   181    23    22   ar
   182   208   207    2
   183    19    18   ar
   184    48    44   am
   185    39    38    2
   186   211   210    1
   187    40    37    1
   188   209   210    1
   189   209   206    1
   190   207   206    1
   191    37    38    1
   192    37    36    1
   193    22    20   ar
   194    27    26    2
   195    45    44    2
   196    44    43    1
   197   210   212    1
   198    18    20   ar
   199    18    17    1
   200   205   206    1
   201    26    36   am
   202    26    25    1
   203    17    14    1
   204    28    25    1
   205    28    29    1
   206    43    42    1
   207    43    46    1
   208    46    47    1
   209    14    13    1
   210    14    15    1
   211    25    24    1
   212    29    30   ar
   213    29    31   ar
   214    16    15    2
   215    30    32   ar
   216    31    33   ar
   217    32    34   ar
   218    33    34   ar
   219    34    35    1
