@<TRIPOS>MOLECULE
tmp/6btmA01.pdb
 216 213 0 0 0
SMALL
GASTEIGER

@<TRIPOS>ATOM
      1  N        155.4300  169.8680  110.6160 N.3    33  GLN33      -0.1245
      2  CA       155.0440  169.2260  109.3720 C.3    33  GLN33       0.1566
      3  C        155.9780  169.6830  108.2480 C.2    33  GLN33       0.2260
      4  O        156.5510  170.7730  108.3230 O.2    33  GLN33      -0.2867
      5  CB       153.5940  169.5750  109.0400 C.3    33  GLN33       0.0367
      6  CG       152.5840  169.1550  110.0950 C.3    33  GLN33       0.0905
      7  CD       152.4870  167.6560  110.2540 C.2    33  GLN33       0.2608
      8  OE1      152.5920  166.9100  109.2840 O.2    33  GLN33      -0.2717
      9  NE2      152.2710  167.2060  111.4800 N.am   33  GLN33      -0.0878
     10  N        150.9920  173.5560  106.4380 N.3    37  TYR37      -0.1241
     11  CA       149.5610  173.5490  106.2030 C.3    37  TYR37       0.1605
     12  C        148.8430  174.2500  107.3480 C.2    37  TYR37       0.2264
     13  O        149.1970  174.0870  108.5170 O.2    37  TYR37      -0.2867
     14  CB       149.0350  172.1250  106.0390 C.3    37  TYR37       0.0534
     15  CG       147.5430  172.1080  105.8550 C.ar   37  TYR37      -0.0201
     16  CD1      146.9720  172.5480  104.6720 C.ar   37  TYR37      -0.0009
     17  CD2      146.7020  171.6920  106.8780 C.ar   37  TYR37      -0.0009
     18  CE1      145.6130  172.5600  104.5060 C.ar   37  TYR37       0.0417
     19  CE2      145.3430  171.7000  106.7190 C.ar   37  TYR37       0.0417
     20  CZ       144.8080  172.1330  105.5320 C.ar   37  TYR37       0.1957
     21  OH       143.4560  172.1470  105.3790 O.3    37  TYR37      -0.2866
     22  N        145.1490  174.7620  109.0300 N.3    39  HIS39      -0.1241
     23  CA       143.7300  174.5680  109.3130 C.3    39  HIS39       0.1621
     24  C        142.9690  175.8680  109.5730 C.2    39  HIS39       0.2264
     25  O        141.7420  175.8230  109.6880 O.2    39  HIS39      -0.2867
     26  CB       143.5790  173.6580  110.5290 C.3    39  HIS39       0.0745
     27  CG       143.3600  172.2040  110.2260 C.ar   39  HIS39       0.0817
     28  ND1      143.6830  171.2280  111.1390 N.ar   39  HIS39      -0.2268
     29  CD2      142.7240  171.5670  109.2100 C.ar   39  HIS39       0.1154
     30  CE1      143.2960  170.0490  110.6840 C.ar   39  HIS39       0.1986
     31  NE2      142.7250  170.2180  109.5050 N.ar   39  HIS39      -0.2212
     32  N        141.8940  177.5040  105.7410 N.3    42  HIS42      -0.1226
     33  CA       140.9800  176.6100  105.0380 C.3    42  HIS42       0.1752
     34  C        139.6720  176.4230  105.7990 C.2    42  HIS42       0.2595
     35  O        138.5930  176.7200  105.2780 O.2    42  HIS42      -0.2718
     36  CB       141.6560  175.2620  104.7820 C.3    42  HIS42       0.0759
     37  CG       142.6960  175.2990  103.7060 C.ar   42  HIS42       0.0818
     38  ND1      144.0220  175.5720  103.9550 N.ar   42  HIS42      -0.2268
     39  CD2      142.6010  175.0950  102.3710 C.ar   42  HIS42       0.1154
     40  CE1      144.6980  175.5380  102.8200 C.ar   42  HIS42       0.1986
     41  NE2      143.8580  175.2510  101.8420 N.ar   42  HIS42      -0.2212
     42  N        139.7410  175.9330  107.0320 N.am   43  ALA43      -0.1980
     43  CA       138.5310  175.5830  107.7640 C.3    43  ALA43       0.1597
     44  C        137.9450  176.7320  108.5720 C.2    43  ALA43       0.2287
     45  O        136.8230  176.6030  109.0690 O.2    43  ALA43      -0.2864
     46  CB       138.8020  174.4000  108.6960 C.3    43  ALA43       0.0319
     47  N        135.4040  176.1500  104.5270 N.3    48  ILE48      -0.1231
     48  CA       135.3510  174.8160  103.9500 C.3    48  ILE48       0.1692
     49  C        134.7820  173.8700  104.9930 C.2    48  ILE48       0.2592
     50  O        135.1710  173.9130  106.1660 O.2    48  ILE48      -0.2718
     51  CB       136.7530  174.3830  103.5000 C.3    48  ILE48       0.0266
     52  CG1      137.2950  175.3590  102.4610 C.3    48  ILE48       0.0019
     53  CG2      136.7300  172.9810  102.9340 C.3    48  ILE48       0.0020
     54  CD1      138.7800  175.2440  102.2440 C.3    48  ILE48       0.0001
     55  N        133.8270  173.0390  104.5840 N.am   49  ASN49      -0.1960
     56  CA       133.1710  172.1610  105.5360 C.3    49  ASN49       0.1819
     57  C        134.1240  171.0580  105.9740 C.2    49  ASN49       0.2621
     58  O        135.0570  170.6870  105.2600 O.2    49  ASN49      -0.2715
     59  CB       131.8960  171.5680  104.9400 C.3    49  ASN49       0.1195
     60  CG       130.9740  170.9800  105.9970 C.2    49  ASN49       0.2630
     61  OD1      131.2860  170.9870  107.1860 O.2    49  ASN49      -0.2716
     62  ND2      129.8270  170.4780  105.5670 N.am   49  ASN49      -0.0877
     63  N        133.8780  170.5500  107.1770 N.am   50  CYS50      -0.1968
     64  CA       134.8530  169.7160  107.8640 C.3    50  CYS50       0.1712
     65  C        134.9600  168.3260  107.2510 C.2    50  CYS50       0.2296
     66  O        136.0330  167.7180  107.2880 O.2    50  CYS50      -0.2864
     67  CB       134.4720  169.6310  109.3360 C.3    50  CYS50       0.0983
     68  SG       135.6290  168.7540  110.3360 S.3    50  CYS50      -0.0798
     69  N        134.8580  167.5490  104.1190 N.3    52  TYR52      -0.1227
     70  CA       135.2740  167.5680  102.7200 C.3    52  TYR52       0.1736
     71  C        136.6230  166.8860  102.5370 C.2    52  TYR52       0.2596
     72  O        136.7410  165.9120  101.7880 O.2    52  TYR52      -0.2718
     73  CB       135.3270  169.0040  102.1990 C.3    52  TYR52       0.0548
     74  CG       135.6200  169.1020  100.7180 C.ar   52  TYR52      -0.0200
     75  CD1      134.6250  168.8760   99.7810 C.ar   52  TYR52      -0.0009
     76  CD2      136.8910  169.4060  100.2560 C.ar   52  TYR52      -0.0009
     77  CE1      134.8840  168.9590   98.4270 C.ar   52  TYR52       0.0417
     78  CE2      137.1580  169.4850   98.9020 C.ar   52  TYR52       0.0417
     79  CZ       136.1500  169.2640   97.9950 C.ar   52  TYR52       0.1957
     80  OH       136.4070  169.3440   96.6470 O.3    52  TYR52      -0.2866
     81  N        137.6590  167.3960  103.2050 N.am   53  CYS53      -0.1956
     82  CA       138.9820  166.7960  103.0780 C.3    53  CYS53       0.1843
     83  C        139.0390  165.4570  103.8050 C.2    53  CYS53       0.2625
     84  O        139.4830  164.4530  103.2410 O.2    53  CYS53      -0.2714
     85  CB       140.0530  167.7560  103.6060 C.3    53  CYS53       0.0997
     86  SG       140.2910  169.3050  102.6650 S.3    53  CYS53      -0.0797
     87  N        138.5670  165.4140  105.0470 N.am   54  HIS54      -0.1973
     88  CA       138.5120  164.1640  105.8020 C.3    54  HIS54       0.1656
     89  C        137.1630  163.5220  105.4990 C.2    54  HIS54       0.2291
     90  O        136.1550  163.8060  106.1450 O.2    54  HIS54      -0.2864
     91  CB       138.7020  164.4160  107.2920 C.3    54  HIS54       0.0771
     92  CG       139.9430  165.1860  107.6290 C.ar   54  HIS54       0.0820
     93  ND1      141.2100  164.6590  107.5120 N.ar   54  HIS54      -0.2267
     94  CD2      140.1040  166.4430  108.1100 C.ar   54  HIS54       0.1154
     95  CE1      142.0980  165.5660  107.8840 C.ar   54  HIS54       0.1986
     96  NE2      141.4540  166.6600  108.2590 N.ar   54  HIS54      -0.2212
     97  N        144.0770  161.0600  106.5490 N.3    65  ILE65      -0.1231
     98  CA       144.6340  162.2690  105.9350 C.3    65  ILE65       0.1678
     99  C        144.1890  162.3280  104.4780 C.2    65  ILE65       0.2434
    100  O        144.2290  161.2940  103.7840 O.2    65  ILE65      -0.2733
    101  CB       146.1700  162.2490  106.0480 C.3    65  ILE65       0.0265
    102  CG1      146.5910  162.1460  107.5140 C.3    65  ILE65       0.0019
    103  CG2      146.8110  163.4680  105.4080 C.3    65  ILE65       0.0020
    104  CD1      146.1290  163.2980  108.3640 C.3    65  ILE65       0.0001
    105  N        143.7220  163.4740  103.9740 N.am   66  PRO66      -0.2729
    106  CA       143.2670  163.5370  102.5780 C.3    66  PRO66       0.1401
    107  C        144.4200  163.3890  101.5970 C.2    66  PRO66       0.2269
    108  O        145.4750  164.0020  101.7590 O.2    66  PRO66      -0.2865
    109  CB       142.6260  164.9230  102.4780 C.3    66  PRO66       0.0296
    110  CG       143.2550  165.7080  103.5590 C.3    66  PRO66       0.0237
    111  CD       143.4830  164.7420  104.6770 C.3    66  PRO66       0.0939
    112  N        143.9370  167.8980   96.9790 N.3    71  CYS71      -0.1235
    113  CA       144.7990  169.0780   96.8560 C.3    71  CYS71       0.1677
    114  C        144.9060  169.5900   95.4460 C.2    71  CYS71       0.2270
    115  O        145.7550  170.4580   95.2150 O.2    71  CYS71      -0.2867
    116  CB       146.2080  168.7920   97.3900 C.3    71  CYS71       0.0956
    117  SG       146.3960  168.7160   99.1950 S.3    71  CYS71      -0.0801
    118  N        153.5640  163.0740  106.0860 N.3   124  TRP124     -0.1227
    119  CA       152.9670  163.8130  107.1860 C.3   124  TRP124      0.1737
    120  C        153.3990  163.2120  108.5190 C.2   124  TRP124      0.2595
    121  O        153.8910  162.0860  108.5880 O.2   124  TRP124     -0.2718
    122  CB       151.4450  163.7930  107.0870 C.3   124  TRP124      0.0564
    123  CG       150.8940  164.4090  105.8430 C.ar  124  TRP124      0.0003
    124  CD1      150.5050  163.7550  104.7210 C.ar  124  TRP124      0.0946
    125  CD2      150.6580  165.7980  105.5960 C.ar  124  TRP124      0.0152
    126  NE1      150.0420  164.6410  103.7860 N.ar  124  TRP124     -0.2442
    127  CE2      150.1270  165.9060  104.2990 C.ar  124  TRP124      0.0810
    128  CE3      150.8470  166.9610  106.3430 C.ar  124  TRP124      0.0012
    129  CZ2      149.7830  167.1250  103.7340 C.ar  124  TRP124      0.0191
    130  CZ3      150.5010  168.1680  105.7800 C.ar  124  TRP124      0.0001
    131  CH2      149.9740  168.2410  104.4890 C.ar  124  TRP124      0.0015
    132  N        153.2090  163.9770  109.5890 N.am  125  VAL125     -0.1966
    133  CA       153.5190  163.5260  110.9420 C.3   125  VAL125      0.1727
    134  C        152.2090  163.3770  111.7010 C.2   125  VAL125      0.2616
    135  O        151.4530  164.3440  111.8460 O.2   125  VAL125     -0.2715
    136  CB       154.4720  164.4880  111.6640 C.3   125  VAL125      0.0290
    137  CG1      154.7120  164.0140  113.0800 C.3   125  VAL125      0.0023
    138  CG2      155.7810  164.5920  110.9100 C.3   125  VAL125      0.0023
    139  N        151.9430  162.1670  112.1810 N.am  126  ARG126     -0.1963
    140  CA       150.6980  161.8410  112.8630 C.3   126  ARG126      0.1729
    141  C        150.8300  162.1920  114.3390 C.2   126  ARG126      0.2616
    142  O        151.7300  161.6900  115.0180 O.2   126  ARG126     -0.2715
    143  CB       150.3830  160.3580  112.6750 C.3   126  ARG126      0.0348
    144  CG       149.0670  159.8780  113.2430 C.3   126  ARG126      0.0492
    145  CD       148.8730  158.4170  112.8820 C.3   126  ARG126      0.2205
    146  NE       147.6540  157.8440  113.4390 N.pl3 126  ARG126     -0.0865
    147  CZ       147.2840  156.5830  113.2550 C.cat 126  ARG126      0.5346
    148  NH1      148.0410  155.7710  112.5320 N.pl3 126  ARG126      0.1354
    149  NH2      146.1620  156.1320  113.7910 N.pl3 126  ARG126      0.1354
    150  N        149.9350  163.0480  114.8360 N.am  127  ILE127     -0.1963
    151  CA       150.0710  163.5650  116.1920 C.3   127  ILE127      0.1727
    152  C        149.0930  162.9270  117.1740 C.2   127  ILE127      0.2616
    153  O        149.3110  163.0280  118.3900 O.2   127  ILE127     -0.2715
    154  CB       149.9210  165.1000  116.2270 C.3   127  ILE127      0.0290
    155  CG1      148.4670  165.5280  116.1490 C.3   127  ILE127      0.0022
    156  CG2      150.5860  165.7000  115.0250 C.3   127  ILE127      0.0023
    157  CD1      148.2720  166.9910  116.4600 C.3   127  ILE127      0.0001
    158  N        148.0320  162.2820  116.6970 N.am  128  HIS128     -0.1973
    159  CA       147.1100  161.5500  117.5540 C.3   128  HIS128      0.1656
    160  C        147.3990  160.0630  117.4110 C.2   128  HIS128      0.2291
    161  O        147.2250  159.4980  116.3290 O.2   128  HIS128     -0.2864
    162  CB       145.6560  161.8390  117.1890 C.3   128  HIS128      0.0771
    163  CG       145.1930  163.2170  117.5420 C.ar  128  HIS128      0.0820
    164  ND1      145.3270  164.2890  116.6890 N.ar  128  HIS128     -0.2267
    165  CD2      144.5640  163.6880  118.6420 C.ar  128  HIS128      0.1154
    166  CE1      144.8170  165.3660  117.2570 C.ar  128  HIS128      0.1986
    167  NE2      144.3470  165.0290  118.4430 N.ar  128  HIS128     -0.2212
    168  N        132.0480  167.9510  115.6530 N.3   149  CYS149     -0.1221
    169  CA       133.4210  167.6120  115.2950 C.3   149  CYS149      0.1808
    170  C        134.4550  168.4770  116.0130 C.2   149  CYS149      0.2601
    171  O        135.6490  168.3500  115.7340 O.2   149  CYS149     -0.2717
    172  CB       133.6060  167.6830  113.7700 C.3   149  CYS149      0.0970
    173  SG       135.0090  166.7030  113.0800 S.3   149  CYS149     -0.0800
    174  N        134.0370  169.3260  116.9490 N.am  150  GLN150     -0.1979
    175  CA       134.9650  170.0950  117.7630 C.3   150  GLN150      0.1601
    176  C        135.0180  169.6440  119.2150 C.2   150  GLN150      0.2287
    177  O        135.8860  170.1140  119.9540 O.2   150  GLN150     -0.2864
    178  CB       134.6180  171.5910  117.7170 C.3   150  GLN150      0.0394
    179  CG       135.0620  172.3200  116.4530 C.3   150  GLN150      0.0908
    180  CD       134.2440  171.9540  115.2330 C.2   150  GLN150      0.2608
    181  OE1      134.7710  171.4330  114.2540 O.2   150  GLN150     -0.2717
    182  NE2      132.9480  172.2180  115.2900 N.am  150  GLN150     -0.0878
    183  N        138.2640  166.8610  119.2470 N.3   153  HIS153     -0.1241
    184  CA       139.5930  167.3090  118.8430 C.3   153  HIS153      0.1621
    185  C        139.7940  168.8100  119.0150 C.2   153  HIS153      0.2264
    186  O        140.7800  169.3490  118.5010 O.2   153  HIS153     -0.2867
    187  CB       139.8900  166.9200  117.3900 C.3   153  HIS153      0.0745
    188  CG       140.0160  165.4440  117.1630 C.ar  153  HIS153      0.0817
    189  ND1      141.0640  164.7000  117.6560 N.ar  153  HIS153     -0.2268
    190  CD2      139.2490  164.5840  116.4520 C.ar  153  HIS153      0.1154
    191  CE1      140.9240  163.4400  117.2790 C.ar  153  HIS153      0.1986
    192  NE2      139.8280  163.3410  116.5470 N.ar  153  HIS153     -0.2212
    193  N        139.2640  173.3110  116.0630 N.3   156  VAL156     -0.1231
    194  CA       140.3320  173.0710  115.0960 C.3   156  VAL156      0.1692
    195  C        140.4810  174.2350  114.1170 C.2   156  VAL156      0.2591
    196  O        141.5920  174.5250  113.6570 O.2   156  VAL156     -0.2718
    197  CB       140.0600  171.7200  114.4040 C.3   156  VAL156      0.0266
    198  CG1      141.0560  171.4120  113.3050 C.3   156  VAL156      0.0020
    199  CG2      140.1040  170.6160  115.4340 C.3   156  VAL156      0.0020
    200  N        139.4000  174.9730  113.8480 N.am  157  GLN157     -0.1979
    201  CA       139.4690  176.0520  112.8680 C.3   157  GLN157      0.1601
    202  C        140.2940  177.2450  113.3420 C.2   157  GLN157      0.2287
    203  O        140.7500  178.0300  112.5060 O.2   157  GLN157     -0.2864
    204  CB       138.0640  176.5180  112.4790 C.3   157  GLN157      0.0394
    205  CG       137.2910  177.2340  113.5640 C.3   157  GLN157      0.0908
    206  CD       136.4740  176.2890  114.4140 C.2   157  GLN157      0.2608
    207  OE1      136.6940  175.0800  114.4010 O.2   157  GLN157     -0.2717
    208  NE2      135.5180  176.8350  115.1570 N.am  157  GLN157     -0.0878
    209  N        148.8130  172.4140  113.9910 N.3   162  MET162     -0.1245
    210  CA       147.9040  171.4550  114.6010 C.3   162  MET162      0.1570
    211  C        148.3780  171.0700  115.9960 C.2   162  MET162      0.2261
    212  O        149.5750  170.9070  116.2400 O.2   162  MET162     -0.2867
    213  CB       147.7650  170.2130  113.7210 C.3   162  MET162      0.0387
    214  CG       146.5900  169.3510  114.1220 C.3   162  MET162      0.0595
    215  SD       145.0790  170.3090  113.9390 S.3   162  MET162     -0.1393
    216  CE       144.0950  169.6620  115.2830 C.3   162  MET162      0.0692
@<TRIPOS>BOND
     1   115   114    2
     2   114   113    1
     3    80    79    1
     4   113   112    1
     5   113   116    1
     6   116   117    1
     7    79    77   ar
     8    79    78   ar
     9    77    75   ar
    10    78    76   ar
    11    75    74   ar
    12    76    74   ar
    13    74    73    1
    14   107   108    2
    15   107   106    1
    16    72    71    2
    17    41    39   ar
    18    41    40   ar
    19    73    70    1
    20    54    52    1
    21    39    37   ar
    22    52    51    1
    23   109   106    1
    24   109   110    1
    25    71    70    1
    26    71    81   am
    27   106   105    1
    28    86    85    1
    29    70    69    1
    30    40    38   ar
    31    53    51    1
    32    82    81    1
    33    82    85    1
    34    82    83    1
    35    84    83    2
    36    51    48    1
    37   110   111    1
    38    37    38   ar
    39    37    36    1
    40   129   127   ar
    41   129   131   ar
    42   100    99    2
    43   126   127   ar
    44   126   124   ar
    45    83    87   am
    46    48    47    1
    47    48    49    1
    48   105    99   am
    49   105   111    1
    50   127   125   ar
    51    99    98    1
    52   131   130   ar
    53    18    16   ar
    54    18    20   ar
    55    55    49   am
    56    55    56    1
    57    16    15   ar
    58   124   123   ar
    59    36    33    1
    60    59    56    1
    61    59    60    1
    62    49    50    2
    63    33    32    1
    64    33    34    1
    65    87    88    1
    66    58    57    2
    67    35    34    2
    68    21    20    1
    69   103   101    1
    70    89    88    1
    71    89    90    2
    72    20    19   ar
    73    56    57    1
    74    62    60   am
    75   125   123   ar
    76   125   128   ar
    77   130   128   ar
    78    34    42   am
    79    88    91    1
    80   123   122    1
    81    15    14    1
    82    15    17   ar
    83    98   101    1
    84    98    97    1
    85    57    63   am
    86    60    61    2
    87    14    11    1
    88   101   102    1
    89   118   119    1
    90    11    10    1
    91    11    12    1
    92    19    17   ar
    93    42    43    1
    94   122   119    1
    95    63    64    1
    96   119   120    1
    97    65    66    2
    98    65    64    1
    99    91    92    1
   100    12    13    2
   101    93    92   ar
   102    93    95   ar
   103   102   104    1
   104    92    94   ar
   105    43    44    1
   106    43    46    1
   107    64    67    1
   108    95    96   ar
   109    94    96   ar
   110     3     4    2
   111     3     2    1
   112   120   121    2
   113   120   132   am
   114    44    45    2
   115    22    23    1
   116     5     2    1
   117     5     6    1
   118    29    31   ar
   119    29    27   ar
   120     8     7    2
   121    23    24    1
   122    23    26    1
   123    67    68    1
   124     2     1    1
   125    31    30   ar
   126    24    25    2
   127   132   133    1
   128     6     7    1
   129    27    26    1
   130    27    28   ar
   131     7     9   am
   132    30    28   ar
   133   138   136    1
   134   133   136    1
   135   133   134    1
   136   136   137    1
   137   134   135    2
   138   134   139   am
   139   139   140    1
   140   204   201    1
   141   204   205    1
   142   203   202    2
   143   148   147    1
   144   143   140    1
   145   143   144    1
   146   140   141    1
   147   201   202    1
   148   201   200    1
   149   145   144    1
   150   145   146    1
   151   173   172    1
   152   147   146    2
   153   147   149    1
   154   198   197    1
   155   205   206    1
   156   196   195    2
   157   213   214    1
   158   213   210    1
   159   172   169    1
   160   200   195   am
   161   215   214    1
   162   215   216    1
   163   209   210    1
   164   195   194    1
   165   181   180    2
   166   141   150   am
   167   141   142    2
   168   207   206    2
   169   197   194    1
   170   197   199    1
   171   206   208   am
   172   210   211    1
   173   150   151    1
   174   156   154    1
   175   194   193    1
   176   180   182   am
   177   180   179    1
   178   169   168    1
   179   169   170    1
   180   171   170    2
   181   211   212    2
   182   170   174   am
   183   155   154    1
   184   155   157    1
   185   151   154    1
   186   151   152    1
   187   161   160    2
   188   190   192   ar
   189   190   188   ar
   190   179   178    1
   191   192   191   ar
   192   164   166   ar
   193   164   163   ar
   194   158   152   am
   195   158   159    1
   196   174   175    1
   197   188   187    1
   198   188   189   ar
   199   152   153    2
   200   162   163    1
   201   162   159    1
   202   166   167   ar
   203   191   189   ar
   204   187   184    1
   205   160   159    1
   206   163   165   ar
   207   178   175    1
   208   175   176    1
   209   167   165   ar
   210   186   185    2
   211   184   185    1
   212   184   183    1
   213   176   177    2
