@<TRIPOS>MOLECULE
tmp/6btmA02.pdb
 202 196 0 0 0
SMALL
GASTEIGER

@<TRIPOS>ATOM
      1  N        133.8780  170.5500  107.1770 N.3    50  CYS50      -0.1221
      2  CA       134.8530  169.7160  107.8640 C.3    50  CYS50       0.1808
      3  C        134.9600  168.3260  107.2510 C.2    50  CYS50       0.2601
      4  O        136.0330  167.7180  107.2880 O.2    50  CYS50      -0.2717
      5  CB       134.4720  169.6310  109.3360 C.3    50  CYS50       0.0970
      6  SG       135.6290  168.7540  110.3360 S.3    50  CYS50      -0.0800
      7  N        133.8780  167.8150  106.6700 N.am   51  LYS51      -0.1979
      8  CA       133.8800  166.4730  106.1050 C.3    51  LYS51       0.1596
      9  C        134.4500  166.4160  104.6940 C.2    51  LYS51       0.2287
     10  O        134.5100  165.3240  104.1210 O.2    51  LYS51      -0.2864
     11  CB       132.4590  165.9090  106.0880 C.3    51  LYS51       0.0298
     12  CG       131.7930  165.7960  107.4350 C.3    51  LYS51       0.0038
     13  CD       132.3700  164.6670  108.2490 C.3    51  LYS51       0.0206
     14  CE       131.6600  164.5680  109.5820 C.3    51  LYS51       0.1093
     15  NZ       130.2400  164.1700  109.4110 N.3    51  LYS51      -0.1314
     16  N        138.5670  165.4140  105.0470 N.3    54  HIS54      -0.1241
     17  CA       138.5120  164.1640  105.8020 C.3    54  HIS54       0.1621
     18  C        137.1630  163.5220  105.4990 C.2    54  HIS54       0.2264
     19  O        136.1550  163.8060  106.1450 O.2    54  HIS54      -0.2867
     20  CB       138.7020  164.4160  107.2920 C.3    54  HIS54       0.0745
     21  CG       139.9430  165.1860  107.6290 C.ar   54  HIS54       0.0817
     22  ND1      141.2100  164.6590  107.5120 N.ar   54  HIS54      -0.2268
     23  CD2      140.1040  166.4430  108.1100 C.ar   54  HIS54       0.1154
     24  CE1      142.0980  165.5660  107.8840 C.ar   54  HIS54       0.1986
     25  NE2      141.4540  166.6600  108.2590 N.ar   54  HIS54      -0.2212
     26  N        135.3420  159.5800  107.4680 N.3    57  ALA57      -0.1245
     27  CA       134.7950  159.5250  108.8180 C.3    57  ALA57       0.1562
     28  C        133.4190  158.8840  108.8660 C.2    57  ALA57       0.2260
     29  O        133.0180  158.3890  109.9210 O.2    57  ALA57      -0.2867
     30  CB       134.7190  160.9300  109.4110 C.3    57  ALA57       0.0290
     31  N        139.0420  154.7800  110.1360 N.3    62  THR62      -0.1203
     32  CA       140.1800  155.6870  110.0470 C.3    62  THR62       0.1994
     33  C        139.7830  156.8460  109.1440 C.2    62  THR62       0.2618
     34  O        139.8120  156.7230  107.9190 O.2    62  THR62      -0.2717
     35  CB       141.4170  154.9740  109.5080 C.3    62  THR62       0.1784
     36  OG1      141.1560  154.5080  108.1810 O.3    62  THR62      -0.2211
     37  CG2      141.7830  153.7970  110.3900 C.3    62  THR62       0.0376
     38  N        139.4140  157.9730  109.7490 N.am   63  ALA63      -0.1965
     39  CA       139.1480  159.2000  109.0010 C.3    63  ALA63       0.1728
     40  C        140.4920  159.7870  108.5900 C.2    63  ALA63       0.2617
     41  O        141.0270  160.6990  109.2170 O.2    63  ALA63      -0.2715
     42  CB       138.3440  160.1790  109.8370 C.3    63  ALA63       0.0334
     43  N        141.0360  159.2580  107.5000 N.am   64  GLY64      -0.1940
     44  CA       142.4350  159.4530  107.1880 C.3    64  GLY64       0.2014
     45  C        142.7710  160.8410  106.6800 C.2    64  GLY64       0.2638
     46  O        141.9140  161.6930  106.4450 O.2    64  GLY64      -0.2714
     47  N        144.0770  161.0600  106.5490 N.am   65  ILE65      -0.1977
     48  CA       144.6340  162.2690  105.9350 C.3    65  ILE65       0.1596
     49  C        144.1890  162.3280  104.4780 C.2    65  ILE65       0.2287
     50  O        144.2290  161.2940  103.7840 O.2    65  ILE65      -0.2864
     51  CB       146.1700  162.2490  106.0480 C.3    65  ILE65       0.0276
     52  CG1      146.5910  162.1460  107.5140 C.3    65  ILE65       0.0022
     53  CG2      146.8110  163.4680  105.4080 C.3    65  ILE65       0.0022
     54  CD1      146.1290  163.2980  108.3640 C.3    65  ILE65       0.0001
     55  N        151.9430  162.1670  112.1810 N.3   126  ARG126     -0.1245
     56  CA       150.6980  161.8410  112.8630 C.3   126  ARG126      0.1563
     57  C        150.8300  162.1920  114.3390 C.2   126  ARG126      0.2260
     58  O        151.7300  161.6900  115.0180 O.2   126  ARG126     -0.2867
     59  CB       150.3830  160.3580  112.6750 C.3   126  ARG126      0.0307
     60  CG       149.0670  159.8780  113.2430 C.3   126  ARG126      0.0489
     61  CD       148.8730  158.4170  112.8820 C.3   126  ARG126      0.2205
     62  NE       147.6540  157.8440  113.4390 N.pl3 126  ARG126     -0.0865
     63  CZ       147.2840  156.5830  113.2550 C.cat 126  ARG126      0.5346
     64  NH1      148.0410  155.7710  112.5320 N.pl3 126  ARG126      0.1354
     65  NH2      146.1620  156.1320  113.7910 N.pl3 126  ARG126      0.1354
     66  N        148.0320  162.2820  116.6970 N.3   128  HIS128     -0.1226
     67  CA       147.1100  161.5500  117.5540 C.3   128  HIS128      0.1752
     68  C        147.3990  160.0630  117.4110 C.2   128  HIS128      0.2596
     69  O        147.2250  159.4980  116.3290 O.2   128  HIS128     -0.2718
     70  CB       145.6560  161.8390  117.1890 C.3   128  HIS128      0.0759
     71  CG       145.1930  163.2170  117.5420 C.ar  128  HIS128      0.0818
     72  ND1      145.3270  164.2890  116.6890 N.ar  128  HIS128     -0.2268
     73  CD2      144.5640  163.6880  118.6420 C.ar  128  HIS128      0.1154
     74  CE1      144.8170  165.3660  117.2570 C.ar  128  HIS128      0.1986
     75  NE2      144.3470  165.0290  118.4430 N.ar  128  HIS128     -0.2212
     76  N        147.8400  159.4340  118.4950 N.am  129  ASN129     -0.1960
     77  CA       148.1450  158.0130  118.4750 C.3   129  ASN129      0.1819
     78  C        147.5740  157.3400  119.7090 C.2   129  ASN129      0.2621
     79  O        147.4960  157.9400  120.7810 O.2   129  ASN129     -0.2715
     80  CB       149.6520  157.7510  118.4210 C.3   129  ASN129      0.1195
     81  CG       150.2540  158.1010  117.0850 C.2   129  ASN129      0.2630
     82  OD1      149.6760  157.8130  116.0420 O.2   129  ASN129     -0.2716
     83  ND2      151.4230  158.7250  117.1070 N.am  129  ASN129     -0.0877
     84  N        147.1820  156.0840  119.5410 N.am  130  LEU130     -0.1977
     85  CA       146.8290  155.1910  120.6290 C.3   130  LEU130      0.1596
     86  C        147.5950  153.8900  120.4610 C.2   130  LEU130      0.2287
     87  O        147.9810  153.5420  119.3430 O.2   130  LEU130     -0.2864
     88  CB       145.3230  154.8940  120.6670 C.3   130  LEU130      0.0297
     89  CG       144.3430  156.0200  120.9710 C.3   130  LEU130      0.0022
     90  CD1      142.9580  155.4330  121.1220 C.3   130  LEU130      0.0001
     91  CD2      144.7350  156.8010  122.2060 C.3   130  LEU130      0.0001
     92  N        143.6150  148.9010  121.7820 N.3   134  VAL134     -0.1245
     93  CA       142.2990  149.5160  121.7550 C.3   134  VAL134      0.1561
     94  C        141.6530  149.3120  120.3890 C.2   134  VAL134      0.2260
     95  O        142.2990  148.9470  119.4010 O.2   134  VAL134     -0.2867
     96  CB       142.3970  151.0110  122.0920 C.3   134  VAL134      0.0252
     97  CG1      143.1540  151.2220  123.3850 C.3   134  VAL134      0.0019
     98  CG2      143.0350  151.7620  120.9500 C.3   134  VAL134      0.0019
     99  N        139.0970  151.8390  118.5530 N.3   136  PHE136     -0.1241
    100  CA       138.2280  152.9810  118.3250 C.3   136  PHE136      0.1605
    101  C        137.8720  153.0700  116.8510 C.2   136  PHE136      0.2264
    102  O        138.7320  152.9120  115.9810 O.2   136  PHE136     -0.2867
    103  CB       138.8690  154.2920  118.7700 C.3   136  PHE136      0.0534
    104  CG       138.0120  155.4770  118.4840 C.ar  136  PHE136     -0.0203
    105  CD1      136.8690  155.7010  119.2280 C.ar  136  PHE136     -0.0042
    106  CD2      138.3120  156.3350  117.4440 C.ar  136  PHE136     -0.0042
    107  CE1      136.0510  156.7680  118.9580 C.ar  136  PHE136     -0.0003
    108  CE2      137.4980  157.3960  117.1650 C.ar  136  PHE136     -0.0003
    109  CZ       136.3650  157.6160  117.9220 C.ar  136  PHE136     -0.0000
    110  N        135.8480  155.6420  114.2610 N.3   138  HIS138     -0.1241
    111  CA       135.2340  156.9240  113.9190 C.3   138  HIS138      0.1621
    112  C        133.8600  156.8130  113.2630 C.2   138  HIS138      0.2264
    113  O        133.0930  157.7770  113.3140 O.2   138  HIS138     -0.2867
    114  CB       136.1650  157.6630  112.9660 C.3   138  HIS138      0.0745
    115  CG       137.1180  158.6210  113.6100 C.ar  138  HIS138      0.0817
    116  ND1      138.3600  158.8640  113.0720 N.ar  138  HIS138     -0.2268
    117  CD2      136.9630  159.5250  114.6090 C.ar  138  HIS138      0.1154
    118  CE1      138.9520  159.8310  113.7470 C.ar  138  HIS138      0.1986
    119  NE2      138.1390  160.2350  114.7060 N.ar  138  HIS138     -0.2212
    120  N        130.7450  156.3220  115.6010 N.3   141  HIS141     -0.1226
    121  CA       130.9670  157.1990  116.7250 C.3   141  HIS141      0.1752
    122  C        130.8240  158.6490  116.2960 C.2   141  HIS141      0.2595
    123  O        130.9180  159.5460  117.1390 O.2   141  HIS141     -0.2718
    124  CB       132.3580  156.9160  117.2990 C.3   141  HIS141      0.0759
    125  CG       132.4900  157.1950  118.7550 C.ar  141  HIS141      0.0818
    126  ND1      132.9650  158.3860  119.2440 N.ar  141  HIS141     -0.2268
    127  CD2      132.2050  156.4320  119.8350 C.ar  141  HIS141      0.1154
    128  CE1      132.9640  158.3510  120.5630 C.ar  141  HIS141      0.1986
    129  NE2      132.5130  157.1720  120.9480 N.ar  141  HIS141     -0.2212
    130  N        130.6070  158.8910  115.0000 N.am  142  VAL142     -0.1980
    131  CA       130.2430  160.1930  114.4560 C.3   142  VAL142      0.1595
    132  C        128.9070  160.1300  113.7250 C.2   142  VAL142      0.2287
    133  O        128.0240  160.9620  113.9480 O.2   142  VAL142     -0.2864
    134  CB       131.3490  160.7390  113.5230 C.3   142  VAL142      0.0276
    135  CG1      130.9100  162.0240  112.8410 C.3   142  VAL142      0.0022
    136  CG2      132.6220  160.9630  114.2970 C.3   142  VAL142      0.0022
    137  N        127.9130  163.3400  117.2970 N.3   147  VAL147     -0.1231
    138  CA       128.8520  164.1530  118.0570 C.3   147  VAL147      0.1692
    139  C        129.4180  165.2350  117.1460 C.2   147  VAL147      0.2592
    140  O        129.8250  164.9540  116.0150 O.2   147  VAL147     -0.2718
    141  CB       129.9700  163.2770  118.6470 C.3   147  VAL147      0.0266
    142  CG1      130.9520  164.1130  119.4300 C.3   147  VAL147      0.0020
    143  CG2      129.3770  162.1950  119.5280 C.3   147  VAL147      0.0020
    144  N        129.4210  166.4750  117.6340 N.am  148  GLU148     -0.1966
    145  CA       129.9870  167.6010  116.9030 C.3   148  GLU148      0.1733
    146  C        131.4960  167.4220  116.7480 C.2   148  GLU148      0.2616
    147  O        132.1570  166.8100  117.5900 O.2   148  GLU148     -0.2715
    148  CB       129.6560  168.9060  117.6390 C.3   148  GLU148      0.0429
    149  CG       130.0600  170.2080  116.9550 C.3   148  GLU148      0.1163
    150  CD       129.2930  170.4660  115.6760 C.2   148  GLU148      0.3649
    151  OE1      128.1440  169.9920  115.5600 O.co2 148  GLU148     -0.2457
    152  OE2      129.8420  171.1430  114.7830 O.co2 148  GLU148     -0.2457
    153  N        132.0480  167.9510  115.6530 N.am  149  CYS149     -0.1968
    154  CA       133.4210  167.6120  115.2950 C.3   149  CYS149      0.1712
    155  C        134.4550  168.4770  116.0130 C.2   149  CYS149      0.2296
    156  O        135.6490  168.3500  115.7340 O.2   149  CYS149     -0.2864
    157  CB       133.6060  167.6830  113.7700 C.3   149  CYS149      0.0983
    158  SG       135.0090  166.7030  113.0800 S.3   149  CYS149     -0.0798
    159  N        135.6670  166.6060  120.3640 N.3   152  CYS152     -0.1221
    160  CA       136.6680  165.5780  120.6080 C.3   152  CYS152      0.1808
    161  C        138.0820  166.0170  120.2650 C.2   152  CYS152      0.2601
    162  O        139.0210  165.5810  120.9290 O.2   152  CYS152     -0.2717
    163  CB       136.3560  164.3060  119.8080 C.3   152  CYS152      0.0970
    164  SG       134.9250  163.2860  120.2780 S.3   152  CYS152     -0.0800
    165  N        138.2640  166.8610  119.2470 N.am  153  HIS153     -0.1975
    166  CA       139.5930  167.3090  118.8430 C.3   153  HIS153      0.1656
    167  C        139.7940  168.8100  119.0150 C.2   153  HIS153      0.2291
    168  O        140.7800  169.3490  118.5010 O.2   153  HIS153     -0.2864
    169  CB       139.8900  166.9200  117.3900 C.3   153  HIS153      0.0771
    170  CG       140.0160  165.4440  117.1630 C.ar  153  HIS153      0.0820
    171  ND1      141.0640  164.7000  117.6560 N.ar  153  HIS153     -0.2267
    172  CD2      139.2490  164.5840  116.4520 C.ar  153  HIS153      0.1154
    173  CE1      140.9240  163.4400  117.2790 C.ar  153  HIS153      0.1986
    174  NE2      139.8280  163.3410  116.5470 N.ar  153  HIS153     -0.2212
    175  N        143.2570  161.5170  125.9880 N.3   168  LEU168     -0.1245
    176  CA       142.9700  160.1800  125.4440 C.3   168  LEU168      0.1561
    177  C        143.3680  159.0300  126.3760 C.2   168  LEU168      0.2260
    178  O        143.4870  157.8910  125.9240 O.2   168  LEU168     -0.2867
    179  CB       143.6410  159.9710  124.0740 C.3   168  LEU168      0.0270
    180  CG       143.2560  160.8030  122.8510 C.3   168  LEU168      0.0019
    181  CD1      144.2790  160.6080  121.7530 C.3   168  LEU168      0.0001
    182  CD2      141.8920  160.4030  122.3490 C.3   168  LEU168      0.0001
    183  N        139.1850  159.4630  130.1240 N.3   172  TRP172     -0.1227
    184  CA       138.4020  160.3880  129.3250 C.3   172  TRP172      0.1737
    185  C        137.4330  159.6630  128.4070 C.2   172  TRP172      0.2595
    186  O        136.3810  160.2130  128.0680 O.2   172  TRP172     -0.2718
    187  CB       139.3370  161.2910  128.5120 C.3   172  TRP172      0.0564
    188  CG       138.6340  162.3040  127.6920 C.ar  172  TRP172      0.0003
    189  CD1      137.7960  163.2750  128.1390 C.ar  172  TRP172      0.0946
    190  CD2      138.7220  162.4670  126.2770 C.ar  172  TRP172      0.0152
    191  NE1      137.3390  164.0260  127.0870 N.ar  172  TRP172     -0.2442
    192  CE2      137.8980  163.5510  125.9320 C.ar  172  TRP172      0.0810
    193  CE3      139.4160  161.8010  125.2660 C.ar  172  TRP172      0.0012
    194  CZ2      137.7440  163.9790  124.6220 C.ar  172  TRP172      0.0191
    195  CZ3      139.2580  162.2260  123.9670 C.ar  172  TRP172      0.0001
    196  CH2      138.4280  163.3020  123.6540 C.ar  172  TRP172      0.0015
    197  N        137.7570  158.4280  128.0260 N.am  173  CYS173     -0.1970
    198  CA       136.7950  157.5860  127.3260 C.3   173  CYS173      0.1712
    199  C        135.6660  157.1470  128.2430 C.2   173  CYS173      0.2296
    200  O        134.5070  157.0870  127.8230 O.2   173  CYS173     -0.2864
    201  CB       137.4950  156.3690  126.7400 C.3   173  CYS173      0.0983
    202  SG       138.6010  156.6610  125.3370 S.3   173  CYS173     -0.0798
@<TRIPOS>BOND
     1    50    49    2
     2    10     9    2
     3    49    48    1
     4     9     8    1
     5    16    17    1
     6    53    51    1
     7    18    17    1
     8    18    19    2
     9    17    20    1
    10    48    51    1
    11    48    47    1
    12    51    52    1
    13    11     8    1
    14    11    12    1
    15     8     7    1
    16    46    45    2
    17    47    45   am
    18     7     3   am
    19    45    44    1
    20     1     2    1
    21    44    43    1
    22     3     4    2
    23     3     2    1
    24    20    21    1
    25    12    13    1
    26    26    27    1
    27    43    40   am
    28    22    21   ar
    29    22    24   ar
    30    52    54    1
    31    21    23   ar
    32     2     5    1
    33    24    25   ar
    34    34    33    2
    35    23    25   ar
    36    36    35    1
    37    13    14    1
    38    40    39    1
    39    40    41    2
    40    27    28    1
    41    27    30    1
    42    28    29    2
    43    39    38    1
    44    39    42    1
    45    33    38   am
    46    33    32    1
    47     5     6    1
    48    15    14    1
    49    35    32    1
    50    35    37    1
    51    32    31    1
    52    55    56    1
    53    64    63    1
    54    59    56    1
    55    59    60    1
    56   135   134    1
    57    56    57    1
    58    61    60    1
    59    61    62    1
    60   114   115    1
    61   114   111    1
    62   116   115   ar
    63   116   118   ar
    64   158   157    1
    65    63    62    2
    66    63    65    1
    67   112   113    2
    68   112   111    1
    69   134   136    1
    70   134   131    1
    71   115   117   ar
    72   132   133    2
    73   132   131    1
    74   118   119   ar
    75   157   154    1
    76   111   110    1
    77    57    58    2
    78   131   130    1
    79   117   119   ar
    80   152   150   ar
    81   130   122   am
    82   154   153    1
    83   154   155    1
    84   151   150   ar
    85   120   121    1
    86   153   146   am
    87   150   149    1
    88   156   155    2
    89   102   101    2
    90   140   139    2
    91    82    81    2
    92   122   121    1
    93   122   123    2
    94    69    68    2
    95   172   174   ar
    96   172   170   ar
    97   174   173   ar
    98    72    74   ar
    99    72    71   ar
   100    66    67    1
   101   121   124    1
   102   146   145    1
   103   146   147    2
   104   101   100    1
   105   145   144    1
   106   145   148    1
   107   149   148    1
   108    81    83   am
   109    81    80    1
   110   139   144   am
   111   139   138    1
   112   170   169    1
   113   170   171   ar
   114   108   106   ar
   115   108   109   ar
   116    70    71    1
   117    70    67    1
   118    74    75   ar
   119   173   171   ar
   120   137   138    1
   121   124   125    1
   122   169   166    1
   123    68    67    1
   124    68    76   am
   125   106   104   ar
   126    71    73   ar
   127   109   107   ar
   128   138   141    1
   129   100    99    1
   130   100   103    1
   131    80    77    1
   132    75    73   ar
   133    77    76    1
   134    77    78    1
   135   104   103    1
   136   104   105   ar
   137   168   167    2
   138   141   142    1
   139   141   143    1
   140   125   126   ar
   141   125   127   ar
   142   166   167    1
   143   166   165    1
   144   107   105   ar
   145   126   128   ar
   146   165   161   am
   147    87    86    2
   148    95    94    2
   149    84    78   am
   150    84    85    1
   151    78    79    2
   152   163   164    1
   153   163   160    1
   154   127   129   ar
   155   161   160    1
   156   161   162    2
   157   159   160    1
   158    94    93    1
   159    86    85    1
   160   128   129   ar
   161    85    88    1
   162    88    89    1
   163    98    96    1
   164    89    90    1
   165    89    91    1
   166   181   180    1
   167    93    92    1
   168    93    96    1
   169    96    97    1
   170   182   180    1
   171   180   179    1
   172   196   195   ar
   173   196   194   ar
   174   195   193   ar
   175   179   176    1
   176   194   192   ar
   177   193   190   ar
   178   202   201    1
   179   176   175    1
   180   176   177    1
   181   178   177    2
   182   192   190   ar
   183   192   191   ar
   184   190   188   ar
   185   201   198    1
   186   191   189   ar
   187   198   197    1
   188   198   199    1
   189   188   189   ar
   190   188   187    1
   191   200   199    2
   192   197   185   am
   193   186   185    2
   194   185   184    1
   195   187   184    1
   196   184   183    1
