@<TRIPOS>MOLECULE
tmp/6btmA03.pdb
 222 215 0 0 0
SMALL
GASTEIGER

@<TRIPOS>ATOM
      1  N        147.1820  156.0840  119.5410 N.3   130  LEU130     -0.1245
      2  CA       146.8290  155.1910  120.6290 C.3   130  LEU130      0.1561
      3  C        147.5950  153.8900  120.4610 C.2   130  LEU130      0.2260
      4  O        147.9810  153.5420  119.3430 O.2   130  LEU130     -0.2867
      5  CB       145.3230  154.8940  120.6670 C.3   130  LEU130      0.0270
      6  CG       144.3430  156.0200  120.9710 C.3   130  LEU130      0.0019
      7  CD1      142.9580  155.4330  121.1220 C.3   130  LEU130      0.0001
      8  CD2      144.7350  156.8010  122.2060 C.3   130  LEU130      0.0001
      9  N        143.6150  148.9010  121.7820 N.3   134  VAL134     -0.1231
     10  CA       142.2990  149.5160  121.7550 C.3   134  VAL134      0.1692
     11  C        141.6530  149.3120  120.3890 C.2   134  VAL134      0.2592
     12  O        142.2990  148.9470  119.4010 O.2   134  VAL134     -0.2718
     13  CB       142.3970  151.0110  122.0920 C.3   134  VAL134      0.0266
     14  CG1      143.1540  151.2220  123.3850 C.3   134  VAL134      0.0020
     15  CG2      143.0350  151.7620  120.9500 C.3   134  VAL134      0.0020
     16  N        140.3450  149.5420  120.3360 N.am  135  TYR135     -0.1962
     17  CA       139.6160  149.5310  119.0660 C.3   135  TYR135      0.1771
     18  C        138.6500  150.7090  119.0860 C.2   135  TYR135      0.2620
     19  O        137.5250  150.5890  119.5730 O.2   135  TYR135     -0.2715
     20  CB       138.8840  148.2180  118.8260 C.3   135  TYR135      0.0574
     21  CG       138.1200  148.1930  117.5140 C.ar  135  TYR135     -0.0198
     22  CD1      138.7890  148.0830  116.3010 C.ar  135  TYR135     -0.0009
     23  CD2      136.7330  148.2810  117.4890 C.ar  135  TYR135     -0.0009
     24  CE1      138.0990  148.0670  115.1010 C.ar  135  TYR135      0.0417
     25  CE2      136.0340  148.2650  116.2910 C.ar  135  TYR135      0.0417
     26  CZ       136.7230  148.1570  115.1030 C.ar  135  TYR135      0.1957
     27  OH       136.0390  148.1390  113.9100 O.3   135  TYR135     -0.2866
     28  N        139.0970  151.8390  118.5530 N.am  136  PHE136     -0.1960
     29  CA       138.2280  152.9810  118.3250 C.3   136  PHE136      0.1771
     30  C        137.8720  153.0700  116.8510 C.2   136  PHE136      0.2619
     31  O        138.7320  152.9120  115.9810 O.2   136  PHE136     -0.2715
     32  CB       138.8690  154.2920  118.7700 C.3   136  PHE136      0.0574
     33  CG       138.0120  155.4770  118.4840 C.ar  136  PHE136     -0.0200
     34  CD1      136.8690  155.7010  119.2280 C.ar  136  PHE136     -0.0042
     35  CD2      138.3120  156.3350  117.4440 C.ar  136  PHE136     -0.0042
     36  CE1      136.0510  156.7680  118.9580 C.ar  136  PHE136     -0.0003
     37  CE2      137.4980  157.3960  117.1650 C.ar  136  PHE136     -0.0003
     38  CZ       136.3650  157.6160  117.9220 C.ar  136  PHE136     -0.0000
     39  N        136.6000  153.3490  116.5810 N.am  137  ASN137     -0.1972
     40  CA       136.0700  153.4310  115.2250 C.3   137  ASN137      0.1688
     41  C        135.2830  154.7220  115.0460 C.2   137  ASN137      0.2292
     42  O        134.1890  154.8700  115.5910 O.2   137  ASN137     -0.2864
     43  CB       135.2250  152.1980  114.9090 C.3   137  ASN137      0.1181
     44  CG       134.3260  151.7930  116.0630 C.2   137  ASN137      0.2629
     45  OD1      134.2370  152.4830  117.0770 O.2   137  ASN137     -0.2716
     46  ND2      133.6890  150.6400  115.9300 N.am  137  ASN137     -0.0877
     47  N        131.0050  154.5540  113.5770 N.3   140  GLN140     -0.1231
     48  CA       129.8340  154.4030  114.4390 C.3   140  GLN140      0.1698
     49  C        129.8580  155.3450  115.6230 C.2   140  GLN140      0.2592
     50  O        129.0550  155.1920  116.5450 O.2   140  GLN140     -0.2718
     51  CB       129.7060  152.9520  114.9240 C.3   140  GLN140      0.0381
     52  CG       130.8340  152.4410  115.8190 C.3   140  GLN140      0.0905
     53  CD       130.5620  152.5930  117.3020 C.2   140  GLN140      0.2608
     54  OE1      129.4170  152.5400  117.7440 O.2   140  GLN140     -0.2717
     55  NE2      131.6170  152.7850  118.0770 N.am  140  GLN140     -0.0878
     56  N        130.7450  156.3220  115.6010 N.am  141  HIS141     -0.1976
     57  CA       130.9670  157.1990  116.7250 C.3   141  HIS141      0.1656
     58  C        130.8240  158.6490  116.2960 C.2   141  HIS141      0.2291
     59  O        130.9180  159.5460  117.1390 O.2   141  HIS141     -0.2864
     60  CB       132.3580  156.9160  117.2990 C.3   141  HIS141      0.0771
     61  CG       132.4900  157.1950  118.7550 C.ar  141  HIS141      0.0820
     62  ND1      132.9650  158.3860  119.2440 N.ar  141  HIS141     -0.2267
     63  CD2      132.2050  156.4320  119.8350 C.ar  141  HIS141      0.1154
     64  CE1      132.9640  158.3510  120.5630 C.ar  141  HIS141      0.1986
     65  NE2      132.5130  157.1720  120.9480 N.ar  141  HIS141     -0.2212
     66  N        126.6230  157.4480  113.7680 N.3   144  VAL144     -0.1231
     67  CA       125.5780  156.8700  114.6110 C.3   144  VAL144      0.1692
     68  C        125.2400  157.8130  115.7580 C.2   144  VAL144      0.2591
     69  O        124.0990  158.2640  115.8950 O.2   144  VAL144     -0.2718
     70  CB       126.0000  155.4840  115.1250 C.3   144  VAL144      0.0266
     71  CG1      124.9970  154.9710  116.1360 C.3   144  VAL144      0.0020
     72  CG2      126.1180  154.5170  113.9700 C.3   144  VAL144      0.0020
     73  N        126.2250  158.1300  116.5920 N.am  145  ALA145     -0.1980
     74  CA       126.0530  159.1070  117.6590 C.3   145  ALA145      0.1597
     75  C        126.4780  160.4750  117.1410 C.2   145  ALA145      0.2287
     76  O        127.6540  160.6850  116.8310 O.2   145  ALA145     -0.2864
     77  CB       126.8640  158.7150  118.8900 C.3   145  ALA145      0.0319
     78  N        127.9130  163.3400  117.2970 N.3   147  VAL147     -0.1245
     79  CA       128.8520  164.1530  118.0570 C.3   147  VAL147      0.1561
     80  C        129.4180  165.2350  117.1460 C.2   147  VAL147      0.2260
     81  O        129.8250  164.9540  116.0150 O.2   147  VAL147     -0.2867
     82  CB       129.9700  163.2770  118.6470 C.3   147  VAL147      0.0252
     83  CG1      130.9520  164.1130  119.4300 C.3   147  VAL147      0.0019
     84  CG2      129.3770  162.1950  119.5280 C.3   147  VAL147      0.0019
     85  N        134.1260  168.7580  119.6470 N.3   151  THR151     -0.1203
     86  CA       134.0790  168.3490  121.0450 C.3   151  THR151      0.1994
     87  C        134.9680  167.1520  121.3540 C.2   151  THR151      0.2618
     88  O        135.0100  166.7170  122.5060 O.2   151  THR151     -0.2717
     89  CB       132.6420  168.0340  121.4630 C.3   151  THR151      0.1784
     90  OG1      132.1460  166.9410  120.6860 O.3   151  THR151     -0.2211
     91  CG2      131.7510  169.2450  121.2540 C.3   151  THR151      0.0376
     92  N        135.6670  166.6060  120.3640 N.am  152  CYS152     -0.1969
     93  CA       136.6680  165.5780  120.6080 C.3   152  CYS152      0.1712
     94  C        138.0820  166.0170  120.2650 C.2   152  CYS152      0.2296
     95  O        139.0210  165.5810  120.9290 O.2   152  CYS152     -0.2864
     96  CB       136.3560  164.3060  119.8080 C.3   152  CYS152      0.0983
     97  SG       134.9250  163.2860  120.2780 S.3   152  CYS152     -0.0798
     98  N        143.2570  161.5170  125.9880 N.3   168  LEU168     -0.1245
     99  CA       142.9700  160.1800  125.4440 C.3   168  LEU168      0.1561
    100  C        143.3680  159.0300  126.3760 C.2   168  LEU168      0.2260
    101  O        143.4870  157.8910  125.9240 O.2   168  LEU168     -0.2867
    102  CB       143.6410  159.9710  124.0740 C.3   168  LEU168      0.0270
    103  CG       143.2560  160.8030  122.8510 C.3   168  LEU168      0.0019
    104  CD1      144.2790  160.6080  121.7530 C.3   168  LEU168      0.0001
    105  CD2      141.8920  160.4030  122.3490 C.3   168  LEU168      0.0001
    106  N        139.1850  159.4630  130.1240 N.3   172  TRP172     -0.1227
    107  CA       138.4020  160.3880  129.3250 C.3   172  TRP172      0.1737
    108  C        137.4330  159.6630  128.4070 C.2   172  TRP172      0.2595
    109  O        136.3810  160.2130  128.0680 O.2   172  TRP172     -0.2718
    110  CB       139.3370  161.2910  128.5120 C.3   172  TRP172      0.0564
    111  CG       138.6340  162.3040  127.6920 C.ar  172  TRP172      0.0003
    112  CD1      137.7960  163.2750  128.1390 C.ar  172  TRP172      0.0946
    113  CD2      138.7220  162.4670  126.2770 C.ar  172  TRP172      0.0152
    114  NE1      137.3390  164.0260  127.0870 N.ar  172  TRP172     -0.2442
    115  CE2      137.8980  163.5510  125.9320 C.ar  172  TRP172      0.0810
    116  CE3      139.4160  161.8010  125.2660 C.ar  172  TRP172      0.0012
    117  CZ2      137.7440  163.9790  124.6220 C.ar  172  TRP172      0.0191
    118  CZ3      139.2580  162.2260  123.9670 C.ar  172  TRP172      0.0001
    119  CH2      138.4280  163.3020  123.6540 C.ar  172  TRP172      0.0015
    120  N        137.7570  158.4280  128.0260 N.am  173  CYS173     -0.1970
    121  CA       136.7950  157.5860  127.3260 C.3   173  CYS173      0.1712
    122  C        135.6660  157.1470  128.2430 C.2   173  CYS173      0.2296
    123  O        134.5070  157.0870  127.8230 O.2   173  CYS173     -0.2864
    124  CB       137.4950  156.3690  126.7400 C.3   173  CYS173      0.0983
    125  SG       138.6010  156.6610  125.3370 S.3   173  CYS173     -0.0798
    126  N        133.2950  160.4500  129.4050 N.3   176  CYS176     -0.1221
    127  CA       132.3210  160.9760  128.4590 C.3   176  CYS176      0.1808
    128  C        131.2280  159.9630  128.1480 C.2   176  CYS176      0.2601
    129  O        130.1860  160.3420  127.6070 O.2   176  CYS176     -0.2717
    130  CB       133.0220  161.4330  127.1740 C.3   176  CYS176      0.0970
    131  SG       132.0280  162.4840  126.0740 S.3   176  CYS176     -0.0800
    132  N        131.4300  158.6920  128.4960 N.am  177  HIS177     -0.1975
    133  CA       130.3640  157.7070  128.3820 C.3   177  HIS177      0.1656
    134  C        129.4170  157.7330  129.5720 C.2   177  HIS177      0.2291
    135  O        128.2710  157.2910  129.4430 O.2   177  HIS177     -0.2864
    136  CB       130.9450  156.3020  128.2140 C.3   177  HIS177      0.0771
    137  CG       131.4840  156.0330  126.8440 C.ar  177  HIS177      0.0820
    138  ND1      132.1830  154.8890  126.5280 N.ar  177  HIS177     -0.2267
    139  CD2      131.4160  156.7600  125.7040 C.ar  177  HIS177      0.1154
    140  CE1      132.5260  154.9250  125.2530 C.ar  177  HIS177      0.1986
    141  NE2      132.0740  156.0500  124.7300 N.ar  177  HIS177     -0.2212
    142  N        126.3060  160.8530  128.8110 N.3   180  THR180     -0.1203
    143  CA       125.7490  161.0420  127.4810 C.3   180  THR180      0.1994
    144  C        124.6190  160.0520  127.2510 C.2   180  THR180      0.2618
    145  O        124.4060  159.1230  128.0310 O.2   180  THR180     -0.2717
    146  CB       126.8090  160.8850  126.3980 C.3   180  THR180      0.1784
    147  OG1      126.2490  161.2680  125.1390 O.3   180  THR180     -0.2211
    148  CG2      127.2640  159.4510  126.3140 C.3   180  THR180      0.0376
    149  N        123.9060  160.2540  126.1490 N.am  181  ASP181     -0.1959
    150  CA       122.7270  159.4690  125.8250 C.3   181  ASP181      0.1840
    151  C        122.8760  158.8600  124.4420 C.2   181  ASP181      0.2622
    152  O        123.3460  159.5190  123.5120 O.2   181  ASP181     -0.2715
    153  CB       121.4680  160.3320  125.8740 C.3   181  ASP181      0.1450
    154  CG       121.1650  160.8360  127.2640 C.2   181  ASP181      0.3671
    155  OD1      121.5340  160.1480  128.2340 O.co2 181  ASP181     -0.2456
    156  OD2      120.5610  161.9220  127.3880 O.co2 181  ASP181     -0.2456
    157  N        122.4710  157.5980  124.3120 N.am  182  VAL182     -0.1963
    158  CA       122.3890  156.9840  122.9980 C.3   182  VAL182      0.1727
    159  C        121.2020  157.5710  122.2440 C.2   182  VAL182      0.2616
    160  O        120.2200  158.0330  122.8400 O.2   182  VAL182     -0.2715
    161  CB       122.2860  155.4530  123.1130 C.3   182  VAL182      0.0290
    162  CG1      123.5520  154.8860  123.7120 C.3   182  VAL182      0.0023
    163  CG2      121.0980  155.0620  123.9610 C.3   182  VAL182      0.0023
    164  N        121.2990  157.5790  120.9180 N.am  183  LYS183     -0.1977
    165  CA       120.2500  158.1290  120.0670 C.3   183  LYS183      0.1596
    166  C        119.3270  156.9920  119.6470 C.2   183  LYS183      0.2287
    167  O        119.7110  156.1340  118.8470 O.2   183  LYS183     -0.2864
    168  CB       120.8510  158.8390  118.8580 C.3   183  LYS183      0.0298
    169  CG       121.5700  160.1330  119.2100 C.3   183  LYS183      0.0038
    170  CD       122.2370  160.7710  117.9990 C.3   183  LYS183      0.0206
    171  CE       121.3500  161.8230  117.3460 C.3   183  LYS183      0.1093
    172  NZ       120.1800  161.2550  116.6240 N.3   183  LYS183     -0.1314
    173  N        116.9380  149.9260  117.5110 N.3   190  TYR190     -0.1241
    174  CA       116.5720  150.1450  118.9020 C.3   190  TYR190      0.1605
    175  C        115.0690  150.0680  119.1460 C.2   190  TYR190      0.2264
    176  O        114.6250  150.3650  120.2560 O.2   190  TYR190     -0.2867
    177  CB       117.1030  151.5020  119.3640 C.3   190  TYR190      0.0534
    178  CG       118.6020  151.5590  119.5570 C.ar  190  TYR190     -0.0201
    179  CD1      119.3330  150.4140  119.8300 C.ar  190  TYR190     -0.0009
    180  CD2      119.2890  152.7540  119.4250 C.ar  190  TYR190     -0.0009
    181  CE1      120.7050  150.4670  120.0030 C.ar  190  TYR190      0.0417
    182  CE2      120.6580  152.8150  119.5880 C.ar  190  TYR190      0.0417
    183  CZ       121.3590  151.6690  119.8750 C.ar  190  TYR190      0.1957
    184  OH       122.7210  151.7300  120.0370 O.3   190  TYR190     -0.2866
    185  N        124.8400  155.7730  128.0860 N.3   207  THR207     -0.1218
    186  CA       125.5810  154.8650  127.2170 C.3   207  THR207      0.1862
    187  C        126.3310  153.8060  128.0120 C.2   207  THR207      0.2287
    188  O        126.1980  152.6080  127.7410 O.2   207  THR207     -0.2866
    189  CB       126.5530  155.6490  126.3420 C.3   207  THR207      0.1770
    190  OG1      125.8190  156.5690  125.5270 O.3   207  THR207     -0.2211
    191  CG2      127.3390  154.7100  125.4450 C.3   207  THR207      0.0375
    192  N        123.8150  150.2230  128.3020 N.3   211  MET211     -0.1230
    193  CA       123.9880  149.3930  127.1200 C.3   211  MET211      0.1702
    194  C        125.1590  148.4330  127.2530 C.2   211  MET211      0.2593
    195  O        125.2290  147.4540  126.5060 O.2   211  MET211     -0.2718
    196  CB       124.1730  150.2730  125.8860 C.3   211  MET211      0.0401
    197  CG       122.9530  151.1040  125.5400 C.3   211  MET211      0.0596
    198  SD       121.5350  150.0850  125.1100 S.3   211  MET211     -0.1393
    199  CE       120.2570  151.3270  124.9750 C.3   211  MET211      0.0692
    200  N        126.0680  148.6860  128.1840 N.am  212  GLY212     -0.1942
    201  CA       127.1910  147.8170  128.4220 C.3   212  GLY212      0.2014
    202  C        128.5060  148.2780  127.8460 C.2   212  GLY212      0.2639
    203  O        129.3440  147.4340  127.5180 O.2   212  GLY212     -0.2714
    204  N        128.7240  149.5810  127.7220 N.am  213  GLY213     -0.1954
    205  CA       129.9390  150.0750  127.1120 C.3   213  GLY213      0.1869
    206  C        131.0810  150.3180  128.0740 C.2   213  GLY213      0.2309
    207  O        131.8020  151.3050  127.9320 O.2   213  GLY213     -0.2863
    208  N        134.8730  144.9400  124.7320 N.3   218  LYS218     -0.1231
    209  CA       134.2970  145.8100  123.7170 C.3   218  LYS218      0.1693
    210  C        135.2380  146.9190  123.2730 C.2   218  LYS218      0.2592
    211  O        134.9860  147.5410  122.2380 O.2   218  LYS218     -0.2718
    212  CB       132.9840  146.4330  124.2100 C.3   218  LYS218      0.0285
    213  CG       131.8110  145.4690  124.3150 C.3   218  LYS218      0.0035
    214  CD       130.5380  146.2100  124.6860 C.3   218  LYS218      0.0206
    215  CE       129.3270  145.3000  124.6850 C.3   218  LYS218      0.1093
    216  NZ       129.4380  144.2920  125.7610 N.3   218  LYS218     -0.1314
    217  N        136.3080  147.1780  124.0140 N.am  219  CYS219     -0.1970
    218  CA       137.2130  148.2710  123.6920 C.3   219  CYS219      0.1712
    219  C        138.6230  147.7800  123.4070 C.2   219  CYS219      0.2296
    220  O        139.2170  148.1590  122.3920 O.2   219  CYS219     -0.2864
    221  CB       137.2050  149.2940  124.8370 C.3   219  CYS219      0.0983
    222  SG       135.6030  150.1290  125.2100 S.3   219  CYS219     -0.0798
@<TRIPOS>BOND
     1    47    48    1
     2    66    67    1
     3    27    26    1
     4    72    70    1
     5    48    51    1
     6    48    49    1
     7    67    70    1
     8    67    68    1
     9    43    40    1
    10    43    44    1
    11    51    52    1
    12    41    40    1
    13    41    42    2
    14    24    26   ar
    15    24    22   ar
    16    26    25   ar
    17    70    71    1
    18    40    39    1
    19    56    49   am
    20    56    57    1
    21    49    50    2
    22    68    69    2
    23    68    73   am
    24    52    53    1
    25    46    44   am
    26    31    30    2
    27    81    80    2
    28    44    45    2
    29    25    23   ar
    30    58    57    1
    31    58    59    2
    32    22    21   ar
    33    39    30   am
    34    73    74    1
    35   172   171    1
    36    57    60    1
    37    76    75    2
    38    30    29    1
    39    75    74    1
    40    80    79    1
    41    37    35   ar
    42    37    38   ar
    43    78    79    1
    44    60    61    1
    45    53    54    2
    46    53    55   am
    47   171   170    1
    48    35    33   ar
    49    23    21   ar
    50   173   174    1
    51    21    20    1
    52    74    77    1
    53    38    36   ar
    54   170   169    1
    55    79    82    1
    56    29    28    1
    57    29    32    1
    58    33    32    1
    59    33    34   ar
    60    28    18   am
    61    82    83    1
    62    82    84    1
    63    61    62   ar
    64    61    63   ar
    65    20    17    1
    66   167   166    2
    67   168   169    1
    68   168   165    1
    69   174   175    1
    70   174   177    1
    71    36    34   ar
    72    17    18    1
    73    17    16    1
    74    18    19    2
    75   175   176    2
    76    62    64   ar
    77     4     3    2
    78   177   178    1
    79    12    11    2
    80   180   178   ar
    81   180   182   ar
    82     1     2    1
    83   178   179   ar
    84   182   183   ar
    85    85    86    1
    86   166   165    1
    87    96    97    1
    88    96    93    1
    89   179   181   ar
    90    63    65   ar
    91   183   181   ar
    92   183   184    1
    93   165   164    1
    94    94    93    1
    95    94    95    2
    96    16    11   am
    97    92    93    1
    98    92    87   am
    99    11    10    1
   100     3     2    1
   101    64    65   ar
   102     2     5    1
   103     5     6    1
   104    90    89    1
   105   164   159   am
   106    15    13    1
   107     6     7    1
   108     6     8    1
   109    86    87    1
   110    86    89    1
   111    91    89    1
   112    87    88    2
   113   104   103    1
   114    10     9    1
   115    10    13    1
   116    13    14    1
   117   211   210    2
   118   159   160    2
   119   159   158    1
   120   105   103    1
   121   220   219    2
   122   103   102    1
   123   158   161    1
   124   158   157    1
   125   161   162    1
   126   161   163    1
   127   210   209    1
   128   210   217   am
   129   219   218    1
   130   152   151    2
   131   119   118   ar
   132   119   117   ar
   133   218   217    1
   134   218   221    1
   135   209   212    1
   136   209   208    1
   137   118   116   ar
   138   102    99    1
   139   212   213    1
   140   157   151   am
   141   213   214    1
   142   151   150    1
   143   117   115   ar
   144   215   214    1
   145   215   216    1
   146   141   140   ar
   147   141   139   ar
   148   221   222    1
   149   199   198    1
   150   198   197    1
   151   147   146    1
   152   140   138   ar
   153   116   113   ar
   154   125   124    1
   155    99    98    1
   156    99   100    1
   157   191   189    1
   158   190   189    1
   159   197   196    1
   160   139   137   ar
   161   150   153    1
   162   150   149    1
   163   153   154    1
   164   196   193    1
   165   101   100    2
   166   115   113   ar
   167   115   114   ar
   168   131   130    1
   169   149   144   am
   170   113   111   ar
   171   148   146    1
   172   189   186    1
   173   146   143    1
   174   195   194    2
   175   138   137   ar
   176   124   121    1
   177   137   136    1
   178   114   112   ar
   179   205   204    1
   180   205   206    1
   181   193   194    1
   182   193   192    1
   183   130   127    1
   184   186   187    1
   185   186   185    1
   186   144   143    1
   187   144   145    2
   188   194   200   am
   189   154   156   ar
   190   154   155   ar
   191   121   120    1
   192   121   122    1
   193   143   142    1
   194   203   202    2
   195   129   128    2
   196   111   112   ar
   197   111   110    1
   198   204   202   am
   199   188   187    2
   200   123   122    2
   201   202   201    1
   202   207   206    2
   203   120   108   am
   204   109   108    2
   205   128   127    1
   206   128   132   am
   207   200   201    1
   208   136   133    1
   209   133   132    1
   210   133   134    1
   211   108   107    1
   212   127   126    1
   213   110   107    1
   214   107   106    1
   215   135   134    2
