@<TRIPOS>MOLECULE
tmp/6btnA00.pdb
 170 164 0 0 0
SMALL
GASTEIGER

@<TRIPOS>ATOM
      1  N         17.9930    1.5790   22.8910 N.3    63  CYS63      -0.1221
      2  CA        18.3630    2.5980   21.9210 C.3    63  CYS63       0.1812
      3  C         17.8160    2.1750   20.5560 C.2    63  CYS63       0.2640
      4  O         17.8270    0.9940   20.2190 O.2    63  CYS63      -0.2714
      5  CB        19.8940    2.7350   21.8560 C.3    63  CYS63       0.0970
      6  SG        20.7190    3.0680   23.4500 S.3    63  CYS63      -0.0800
      7  N         17.3200    3.1260   19.7840 N.am   64  GLY64      -0.1732
      8  CA        16.9520    2.8090   18.4080 C.2    64  GLY64       0.1340
      9  C         16.5700    3.9880   17.5560 C.2    64  GLY64       0.2521
     10  O         16.1120    5.0100   18.0550 O.2    64  GLY64      -0.2816
     11  N         14.2520    9.2150   16.1240 N.3    67  SER67      -0.1217
     12  CA        13.5990   10.2230   16.9650 C.3    67  SER67       0.1889
     13  C         12.8600   11.2250   16.1000 C.2    67  SER67       0.2288
     14  O         13.2780   11.5060   14.9730 O.2    67  SER67      -0.2866
     15  CB        14.6240   10.9560   17.8190 C.3    67  SER67       0.2089
     16  OG        15.1860   10.0710   18.7620 O.3    67  SER67      -0.2183
     17  N         23.0070    1.8840   26.3580 N.3    84  ASN84      -0.1225
     18  CA        24.0660    2.3450   25.4600 C.3    84  ASN84       0.1785
     19  C         23.9240    3.7770   24.9170 C.2    84  ASN84       0.2597
     20  O         24.7300    4.1720   24.0830 O.2    84  ASN84      -0.2718
     21  CB        24.2120    1.3700   24.2860 C.3    84  ASN84       0.1169
     22  CG        24.4860   -0.0460   24.7380 C.2    84  ASN84       0.2627
     23  OD1       23.9110   -0.9840   24.2000 O.2    84  ASN84      -0.2716
     24  ND2       25.3550   -0.2100   25.7360 N.am   84  ASN84      -0.0877
     25  N         22.9390    4.5560   25.3710 N.am   85  CYS85      -0.1970
     26  CA        22.7230    5.9200   24.8180 C.3    85  CYS85       0.1712
     27  C         22.1530    6.8710   25.8660 C.2    85  CYS85       0.2296
     28  O         21.1690    7.5890   25.6290 O.2    85  CYS85      -0.2864
     29  CB        21.8340    5.8610   23.5500 C.3    85  CYS85       0.0983
     30  SG        20.2390    5.0240   23.7770 S.3    85  CYS85      -0.0798
     31  N         26.5080   13.6780   26.0040 N.3    89  GLY89      -0.1210
     32  CA        26.6370   14.0200   24.5780 C.3    89  GLY89       0.1956
     33  C         25.4840   13.5290   23.7010 C.2    89  GLY89       0.2611
     34  O         24.9260   14.2950   22.8920 O.2    89  GLY89      -0.2717
     35  N         25.1010   12.2750   23.9060 N.am   90  ILE90      -0.1979
     36  CA        24.0170   11.6460   23.1330 C.3    90  ILE90       0.1595
     37  C         22.6760   12.2840   23.4740 C.2    90  ILE90       0.2287
     38  O         21.8430   12.5010   22.5950 O.2    90  ILE90      -0.2864
     39  CB        23.8820   10.1200   23.3730 C.3    90  ILE90       0.0276
     40  CG1       25.2160    9.3750   23.2550 C.3    90  ILE90       0.0022
     41  CG2       22.8650    9.5140   22.4020 C.3    90  ILE90       0.0022
     42  CD1       25.9490    9.5290   21.9550 C.3    90  ILE90       0.0001
     43  N         22.4950   15.6480   21.8200 N.3    93  HIS93      -0.1226
     44  CA        22.1750   15.3460   20.4020 C.3    93  HIS93       0.1752
     45  C         20.6800   15.0850   20.2020 C.2    93  HIS93       0.2595
     46  O         20.0500   15.6880   19.3310 O.2    93  HIS93      -0.2718
     47  CB        22.9980   14.1370   19.9400 C.3    93  HIS93       0.0759
     48  CG        22.6880   13.6580   18.5490 C.ar   93  HIS93       0.0818
     49  ND1       23.4500   14.0130   17.4540 N.ar   93  HIS93      -0.2268
     50  CD2       21.7390   12.8010   18.0900 C.ar   93  HIS93       0.1154
     51  CE1       22.9670   13.4100   16.3750 C.ar   93  HIS93       0.1986
     52  NE2       21.9280   12.6730   16.7360 N.ar   93  HIS93      -0.2212
     53  N         20.1160   14.2170   21.0340 N.am   94  GLU94      -0.1979
     54  CA        18.6850   13.8610   20.9260 C.3    94  GLU94       0.1602
     55  C         17.7660   15.0740   21.1710 C.2    94  GLU94       0.2287
     56  O         16.7120   15.2270   20.5390 O.2    94  GLU94      -0.2864
     57  CB        18.3410   12.7200   21.8910 C.3    94  GLU94       0.0415
     58  CG        18.9100   11.3680   21.4890 C.3    94  GLU94       0.1163
     59  CD        18.1320   10.6680   20.3970 C.2    94  GLU94       0.3649
     60  OE1       17.1280   11.2160   19.8700 O.co2  94  GLU94      -0.2457
     61  OE2       18.5170    9.5290   20.0840 O.co2  94  GLU94      -0.2457
     62  N         17.4850   17.0450   18.0680 N.3    97  HIS97      -0.1241
     63  CA        16.3700   16.5720   17.2670 C.3    97  HIS97       0.1621
     64  C         15.0690   17.2060   17.7550 C.2    97  HIS97       0.2264
     65  O         14.3430   17.8230   16.9690 O.2    97  HIS97      -0.2867
     66  CB        16.2660   15.0480   17.2630 C.3    97  HIS97       0.0745
     67  CG        17.3410   14.3570   16.4660 C.ar   97  HIS97       0.0817
     68  ND1       17.7400   14.7750   15.2120 N.ar   97  HIS97      -0.2268
     69  CD2       18.0680   13.2470   16.7400 C.ar   97  HIS97       0.1154
     70  CE1       18.6790   13.9600   14.7610 C.ar   97  HIS97       0.1986
     71  NE2       18.9060   13.0280   15.6720 N.ar   97  HIS97      -0.2212
     72  N         20.2130   15.5160   11.2880 N.3   103  HIS103     -0.1241
     73  CA        21.6480   15.3500   11.3420 C.3   103  HIS103      0.1621
     74  C         22.3480   16.3010   10.3620 C.2   103  HIS103      0.2264
     75  O         21.9210   16.4330    9.2020 O.2   103  HIS103     -0.2867
     76  CB        22.0380   13.9270   10.9990 C.3   103  HIS103      0.0745
     77  CG        21.5710   12.9120   11.9860 C.ar  103  HIS103      0.0817
     78  ND1       21.1480   11.6510   11.6140 N.ar  103  HIS103     -0.2268
     79  CD2       21.4640   12.9660   13.3370 C.ar  103  HIS103      0.1154
     80  CE1       20.8030   10.9790   12.6980 C.ar  103  HIS103      0.1986
     81  NE2       20.9780   11.7550   13.7530 N.ar  103  HIS103     -0.2212
     82  N         19.5330    7.2100    9.2730 N.3   128  ASN128     -0.1240
     83  CA        20.3090    8.2840    9.9160 C.3   128  ASN128      0.1653
     84  C         21.2620    9.0490    8.9750 C.2   128  ASN128      0.2266
     85  O         21.8140   10.0530    9.3750 O.2   128  ASN128     -0.2867
     86  CB        21.1180    7.7190   11.1030 C.3   128  ASN128      0.1155
     87  CG        20.2240    7.1730   12.2070 C.2   128  ASN128      0.2627
     88  OD1       19.4040    7.9010   12.7540 O.2   128  ASN128     -0.2716
     89  ND2       20.3580    5.8870   12.5120 N.am  128  ASN128     -0.0877
     90  N         29.3090   20.4070   14.7790 N.3   148  SER148     -0.1202
     91  CA        27.9760   20.2120   15.3400 C.3   148  SER148      0.2020
     92  C         27.8170   18.9440   16.1930 C.2   148  SER148      0.2618
     93  O         28.2970   17.8690   15.8210 O.2   148  SER148     -0.2717
     94  CB        26.9470   20.1680   14.2170 C.3   148  SER148      0.2103
     95  OG        25.6290   20.0160   14.7240 O.3   148  SER148     -0.2182
     96  N         27.1090   19.0630   17.3120 N.am  149  ILE149     -0.1979
     97  CA        26.6650   17.8670   18.0820 C.3   149  ILE149      0.1595
     98  C         25.7050   16.9920   17.2570 C.2   149  ILE149      0.2287
     99  O         25.4860   15.8110   17.5830 O.2   149  ILE149     -0.2864
    100  CB        26.0010   18.2710   19.4310 C.3   149  ILE149      0.0276
    101  CG1       25.9610   17.1100   20.4440 C.3   149  ILE149      0.0022
    102  CG2       24.6110   18.8480   19.2230 C.3   149  ILE149      0.0022
    103  CD1       27.3060   16.7220   20.9750 C.3   149  ILE149      0.0001
    104  N         26.3600   16.2740   14.1170 N.3   151  HIS151     -0.1226
    105  CA        27.1670   15.6290   13.0970 C.3   151  HIS151      0.1752
    106  C         27.7310   14.3340   13.6570 C.2   151  HIS151      0.2596
    107  O         28.2940   14.3240   14.7510 O.2   151  HIS151     -0.2718
    108  CB        28.3220   16.5310   12.6420 C.3   151  HIS151      0.0759
    109  CG        28.8750   16.1550   11.3050 C.ar  151  HIS151      0.0818
    110  ND1       29.4400   14.9250   11.0570 N.ar  151  HIS151     -0.2268
    111  CD2       28.9040   16.8320   10.1270 C.ar  151  HIS151      0.1154
    112  CE1       29.8290   14.8720    9.7970 C.ar  151  HIS151      0.1986
    113  NE2       29.5110   16.0140    9.2090 N.ar  151  HIS151     -0.2212
    114  N         27.6000   13.2550   12.8950 N.am  152  TYR152     -0.1962
    115  CA        28.1670   11.9830   13.2810 C.3   152  TYR152      0.1771
    116  C         29.7080   11.9920   13.1960 C.2   152  TYR152      0.2619
    117  O         30.3360   12.8820   12.5750 O.2   152  TYR152     -0.2715
    118  CB        27.5990   10.8810   12.3740 C.3   152  TYR152      0.0574
    119  CG        26.2500   10.2960   12.7740 C.ar  152  TYR152     -0.0198
    120  CD1       25.5110   10.7920   13.8660 C.ar  152  TYR152     -0.0009
    121  CD2       25.6790    9.2720   12.0260 C.ar  152  TYR152     -0.0009
    122  CE1       24.2890   10.2280   14.2130 C.ar  152  TYR152      0.0417
    123  CE2       24.4440    8.7150   12.3630 C.ar  152  TYR152      0.0417
    124  CZ        23.7420    9.1900   13.4530 C.ar  152  TYR152      0.1957
    125  OH        22.5230    8.6370   13.8400 O.3   152  TYR152     -0.2866
    126  N         30.3050   10.9900   13.8300 N.am  153  ALA153     -0.1977
    127  CA        31.7290   10.7220   13.6780 C.3   153  ALA153      0.1597
    128  C         31.9300    9.9460   12.3690 C.2   153  ALA153      0.2287
    129  O         30.9750    9.4650   11.7560 O.2   153  ALA153     -0.2864
    130  CB        32.2720    9.9440   14.8930 C.3   153  ALA153      0.0319
    131  N         30.3950    6.3830   12.9470 N.3   156  THR156     -0.1203
    132  CA        29.1260    6.1970   13.6790 C.3   156  THR156      0.1994
    133  C         28.3060    5.1750   12.8640 C.2   156  THR156      0.2617
    134  O         28.2490    5.2600   11.6260 O.2   156  THR156     -0.2717
    135  CB        28.3460    7.5220   13.8890 C.3   156  THR156      0.1784
    136  OG1       29.1850    8.4920   14.5410 O.3   156  THR156     -0.2211
    137  CG2       27.0780    7.2930   14.7340 C.3   156  THR156      0.0376
    138  N         27.7320    4.1910   13.5680 N.am  157  PHE157     -0.1975
    139  CA        27.0340    3.0540   12.9560 C.3   157  PHE157      0.1639
    140  C         27.7960    2.3580   11.8100 C.2   157  PHE157      0.2290
    141  O         27.2020    1.9730   10.7990 O.2   157  PHE157     -0.2864
    142  CB        25.6360    3.4990   12.4770 C.3   157  PHE157      0.0560
    143  CG        24.6900    3.8340   13.5990 C.ar  157  PHE157     -0.0200
    144  CD1       24.4380    2.9160   14.6190 C.ar  157  PHE157     -0.0042
    145  CD2       24.0410    5.0540   13.6310 C.ar  157  PHE157     -0.0042
    146  CE1       23.5650    3.2320   15.6460 C.ar  157  PHE157     -0.0003
    147  CE2       23.1750    5.3630   14.6540 C.ar  157  PHE157     -0.0003
    148  CZ        22.9270    4.4560   15.6550 C.ar  157  PHE157     -0.0000
    149  N         32.2200   14.6080   14.8650 N.3   180  GLY180     -0.1225
    150  CA        31.5670   13.7900   15.8790 C.3   180  GLY180      0.1811
    151  C         32.4410   13.5020   17.0920 C.2   180  GLY180      0.2280
    152  O         32.3010   12.4500   17.6990 O.2   180  GLY180     -0.2866
    153  N         33.0540   16.0690   19.5830 N.3   182  ARG182     -0.1231
    154  CA        32.6220   16.9270   20.6910 C.3   182  ARG182      0.1694
    155  C         31.3800   16.3260   21.3570 C.2   182  ARG182      0.2592
    156  O         30.6430   15.5610   20.7280 O.2   182  ARG182     -0.2718
    157  CB        32.3700   18.3550   20.1740 C.3   182  ARG182      0.0321
    158  CG        33.6280   19.0270   19.5890 C.3   182  ARG182      0.0489
    159  CD        33.3570   20.3820   18.9390 C.3   182  ARG182      0.2205
    160  NE        32.8900   21.2840   19.9730 N.pl3 182  ARG182     -0.0865
    161  CZ        31.6170   21.5760   20.2470 C.cat 182  ARG182      0.5346
    162  NH1       30.6070   21.0840   19.5090 N.pl3 182  ARG182      0.1354
    163  NH2       31.3510   22.3790   21.2850 N.pl3 182  ARG182      0.1354
    164  N         31.1740   16.6350   22.6360 N.am  183  THR183     -0.1953
    165  CA        29.9830   16.1890   23.3510 C.3   183  THR183      0.1897
    166  C         29.1540   17.3590   23.8710 C.2   183  THR183      0.2313
    167  O         28.3080   17.1730   24.7460 O.2   183  THR183     -0.2863
    168  CB        30.3350   15.2480   24.5210 C.3   183  THR183      0.1794
    169  OG1       31.1470   15.9460   25.4500 O.3   183  THR183     -0.2208
    170  CG2       31.0710   14.0010   24.0170 C.3   183  THR183      0.0378
@<TRIPOS>BOND
     1    84    85    2
     2    84    83    1
     3    75    74    2
     4   113   112   ar
     5   113   111   ar
     6    82    83    1
     7   112   110   ar
     8    83    86    1
     9   111   109   ar
    10    74    73    1
    11   141   140    2
    12    76    73    1
    13    76    77    1
    14   110   109   ar
    15    86    87    1
    16    72    73    1
    17   109   108    1
    18    78    77   ar
    19    78    80   ar
    20   134   133    2
    21   129   128    2
    22   140   139    1
    23    77    79   ar
    24   121   123   ar
    25   121   119   ar
    26    87    89   am
    27    87    88    2
    28   123   124   ar
    29   128   127    1
    30   118   119    1
    31   118   115    1
    32   142   139    1
    33   142   143    1
    34   117   116    2
    35   108   105    1
    36    80    81   ar
    37   119   120   ar
    38   133   138   am
    39   133   132    1
    40   114   115    1
    41   114   106   am
    42   131   132    1
    43   139   138    1
    44   105   106    1
    45   105   104    1
    46   116   115    1
    47   116   126   am
    48    79    81   ar
    49   124   125    1
    50   124   122   ar
    51   143   145   ar
    52   143   144   ar
    53   145   147   ar
    54   106   107    2
    55   127   126    1
    56   127   130    1
    57   132   135    1
    58   120   122   ar
    59   135   136    1
    60   135   137    1
    61    94    95    1
    62    94    91    1
    63   144   146   ar
    64   147   148   ar
    65    70    68   ar
    66    70    71   ar
    67    90    91    1
    68   149   150    1
    69    14    13    2
    70    68    67   ar
    71    91    92    1
    72   146   148   ar
    73    71    69   ar
    74    93    92    2
    75   150   151    1
    76    13    12    1
    77    11    12    1
    78    92    96   am
    79    51    52   ar
    80    51    49   ar
    81    67    69   ar
    82    67    66    1
    83    52    50   ar
    84    12    15    1
    85    65    64    2
    86   151   152    2
    87    98    99    2
    88    98    97    1
    89    66    63    1
    90    63    64    1
    91    63    62    1
    92    96    97    1
    93    49    48   ar
    94     9    10    2
    95     9     8    1
    96    15    16    1
    97    97   100    1
    98    50    48   ar
    99     8     7    2
   100    48    47    1
   101   159   158    1
   102   159   160    1
   103   102   100    1
   104    46    45    2
   105   100   101    1
   106   162   161    1
   107   153   154    1
   108   158   157    1
   109     7     3    1
   110    60    59   ar
   111    47    44    1
   112   160   161    2
   113    61    59   ar
   114   157   154    1
   115    45    44    1
   116    45    53   am
   117     4     3    2
   118   161   163    1
   119    59    58    1
   120    44    43    1
   121   101   103    1
   122    56    55    2
   123     3     2    1
   124   154   155    1
   125   156   155    2
   126    54    53    1
   127    54    55    1
   128    54    57    1
   129   155   164   am
   130    58    57    1
   131     5     2    1
   132     5     6    1
   133     2     1    1
   134    42    40    1
   135    41    39    1
   136    38    37    2
   137   164   165    1
   138    34    33    2
   139    36    39    1
   140    36    37    1
   141    36    35    1
   142    40    39    1
   143   165   166    1
   144   165   168    1
   145     6    30    1
   146    29    30    1
   147    29    26    1
   148    33    35   am
   149    33    32    1
   150   166   167    2
   151   170   168    1
   152    20    19    2
   153    23    22    2
   154    21    22    1
   155    21    18    1
   156   168   169    1
   157    32    31    1
   158    22    24   am
   159    26    25    1
   160    26    27    1
   161    19    25   am
   162    19    18    1
   163    18    17    1
   164    28    27    2
