@<TRIPOS>MOLECULE
tmp/6btoA00.pdb
 176 175 0 0 0
SMALL
GASTEIGER

@<TRIPOS>ATOM
      1  N         24.8470   13.6740  -12.3460 N.3     8  ARG8       -0.1245
      2  CA        23.8830   14.4470  -11.5470 C.3     8  ARG8        0.1563
      3  C         24.5500   15.4010  -10.5340 C.2     8  ARG8        0.2260
      4  O         23.8590   16.2270   -9.9340 O.2     8  ARG8       -0.2867
      5  CB        22.9000   13.5090  -10.8200 C.3     8  ARG8        0.0307
      6  CG        21.8530   12.8340  -11.7090 C.3     8  ARG8        0.0489
      7  CD        21.1180   11.7570  -10.9130 C.3     8  ARG8        0.2205
      8  NE        19.9550   11.1590  -11.5930 N.pl3   8  ARG8       -0.0865
      9  CZ        18.6660   11.3160  -11.2550 C.cat   8  ARG8        0.5346
     10  NH1       18.2860   12.1040  -10.2490 N.pl3   8  ARG8        0.1354
     11  NH2       17.7270   10.6900  -11.9600 N.pl3   8  ARG8        0.1354
     12  N          4.2210   19.2620   -4.8590 N.3    64  GLY64      -0.1210
     13  CA         4.1930   17.8400   -5.2250 C.3    64  GLY64       0.1956
     14  C          5.2510   17.4430   -6.2400 C.2    64  GLY64       0.2612
     15  O          6.4050   17.8810   -6.1560 O.2    64  GLY64      -0.2717
     16  N          4.8480   16.6180   -7.2080 N.am   65  CYS65      -0.1956
     17  CA         5.7740   16.0130   -8.1680 C.3    65  CYS65       0.1843
     18  C          6.2860   17.0270   -9.2050 C.2    65  CYS65       0.2626
     19  O          5.4690   17.7500   -9.7860 O.2    65  CYS65      -0.2714
     20  CB         5.0840   14.8690   -8.9150 C.3    65  CYS65       0.0997
     21  SG         6.1230   14.0460  -10.1490 S.3    65  CYS65      -0.0797
     22  N          7.5960   17.0930   -9.4830 N.am   66  CYS66      -0.1954
     23  CA         8.6660   16.3120   -8.8360 C.3    66  CYS66       0.1843
     24  C          9.9590   17.1170   -8.8320 C.2    66  CYS66       0.2626
     25  O         10.2060   17.9180   -9.7390 O.2    66  CYS66      -0.2714
     26  CB         8.9190   14.9800   -9.5620 C.3    66  CYS66       0.0997
     27  SG         7.8250   13.6120   -9.1100 S.3    66  CYS66      -0.0797
     28  N         10.7830   16.8820   -7.8150 N.am   67  SER67      -0.1936
     29  CA        12.0480   17.5930   -7.6580 C.3    67  SER67       0.2055
     30  C         13.1850   16.7020   -8.1240 C.2    67  SER67       0.2643
     31  O         13.5300   15.7170   -7.4620 O.2    67  SER67      -0.2714
     32  CB        12.2490   17.9980   -6.2060 C.3    67  SER67       0.2130
     33  OG        11.2070   18.8610   -5.7980 O.3    67  SER67      -0.2179
     34  N         13.7520   17.0290   -9.2770 N.am   68  TYR68      -0.1959
     35  CA        14.8400   16.2390   -9.8250 C.3    68  TYR68       0.1771
     36  C         16.0100   16.2010   -8.8410 C.2    68  TYR68       0.2619
     37  O         16.3670   17.2270   -8.2520 O.2    68  TYR68      -0.2715
     38  CB        15.2920   16.7920  -11.1770 C.3    68  TYR68       0.0574
     39  CG        16.1780   15.8340  -11.9280 C.ar   68  TYR68      -0.0198
     40  CD1       17.5620   15.8770  -11.7730 C.ar   68  TYR68      -0.0009
     41  CD2       15.6350   14.8710  -12.7790 C.ar   68  TYR68      -0.0009
     42  CE1       18.3870   14.9950  -12.4490 C.ar   68  TYR68       0.0417
     43  CE2       16.4500   13.9860  -13.4660 C.ar   68  TYR68       0.0417
     44  CZ        17.8270   14.0510  -13.2960 C.ar   68  TYR68       0.1957
     45  OH        18.6520   13.1810  -13.9700 O.3    68  TYR68      -0.2866
     46  N         16.5790   15.0110   -8.6500 N.am   69  VAL69      -0.1977
     47  CA        17.7100   14.8490   -7.7470 C.3    69  VAL69       0.1596
     48  C         19.0030   15.1420   -8.5110 C.2    69  VAL69       0.2287
     49  O         19.3620   14.4240   -9.4480 O.2    69  VAL69      -0.2864
     50  CB        17.7260   13.4560   -7.0840 C.3    69  VAL69       0.0276
     51  CG1       18.9960   13.2520   -6.2680 C.3    69  VAL69       0.0022
     52  CG2       16.5080   13.3020   -6.1900 C.3    69  VAL69       0.0022
     53  N         19.9820   17.7470  -13.7690 N.3    72  ARG72      -0.1245
     54  CA        19.4170   17.0000  -14.8840 C.3    72  ARG72       0.1563
     55  C         20.2480   17.2280  -16.1440 C.2    72  ARG72       0.2260
     56  O         20.5630   16.2780  -16.8610 O.2    72  ARG72      -0.2867
     57  CB        17.9520   17.3650  -15.1270 C.3    72  ARG72       0.0307
     58  CG        17.3550   16.5960  -16.2990 C.3    72  ARG72       0.0489
     59  CD        15.8540   16.4570  -16.1800 C.3    72  ARG72       0.2205
     60  NE        15.1870   17.7520  -16.2600 N.pl3  72  ARG72      -0.0865
     61  CZ        13.8810   17.9500  -16.0830 C.cat  72  ARG72       0.5346
     62  NH1       13.0630   16.9340  -15.8000 N.pl3  72  ARG72       0.1354
     63  NH2       13.3830   19.1830  -16.1790 N.pl3  72  ARG72       0.1354
     64  N         14.9820   21.5410    2.1290 N.3    93  HIS93      -0.1226
     65  CA        14.7590   20.1320    1.7590 C.3    93  HIS93       0.1752
     66  C         14.7590   19.9660    0.2370 C.2    93  HIS93       0.2595
     67  O         15.4760   19.1170   -0.2960 O.2    93  HIS93      -0.2718
     68  CB        13.4490   19.6280    2.3620 C.3    93  HIS93       0.0759
     69  CG        13.0450   18.2690    1.8930 C.ar   93  HIS93       0.0818
     70  ND1       13.2140   17.1410    2.6630 N.ar   93  HIS93      -0.2268
     71  CD2       12.4700   17.8570    0.7350 C.ar   93  HIS93       0.1154
     72  CE1       12.7600   16.0920    1.9990 C.ar   93  HIS93       0.1986
     73  NE2       12.3100   16.4970    0.8260 N.ar   93  HIS93      -0.2212
     74  N         13.9830   20.8040   -0.4490 N.am   94  GLU94      -0.1979
     75  CA        13.9150   20.7660   -1.9130 C.3    94  GLU94       0.1602
     76  C         15.2710   21.0200   -2.5660 C.2    94  GLU94       0.2287
     77  O         15.6140   20.3740   -3.5480 O.2    94  GLU94      -0.2864
     78  CB        12.9020   21.7870   -2.4540 C.3    94  GLU94       0.0415
     79  CG        11.4570   21.4880   -2.1280 C.3    94  GLU94       0.1163
     80  CD        11.0400   20.1050   -2.5460 C.2    94  GLU94       0.3649
     81  OE1       11.4530   19.6400   -3.6330 O.co2  94  GLU94      -0.2457
     82  OE2       10.3010   19.4730   -1.7810 O.co2  94  GLU94      -0.2457
     83  N         17.3790   18.0140   -2.6480 N.3    97  HIS97      -0.1241
     84  CA        17.1810   17.2220   -3.8570 C.3    97  HIS97       0.1621
     85  C         18.0410   17.7820   -4.9750 C.2    97  HIS97       0.2264
     86  O         18.7890   17.0350   -5.6230 O.2    97  HIS97      -0.2867
     87  CB        15.7070   17.1700   -4.2890 C.3    97  HIS97       0.0745
     88  CG        14.8340   16.3670   -3.3760 C.ar   97  HIS97       0.0817
     89  ND1       15.1830   15.1140   -2.9190 N.ar   97  HIS97      -0.2268
     90  CD2       13.6140   16.6340   -2.8460 C.ar   97  HIS97       0.1154
     91  CE1       14.2210   14.6520   -2.1400 C.ar   97  HIS97       0.1986
     92  NE2       13.2590   15.5550   -2.0780 N.ar   97  HIS97      -0.2212
     93  N         18.6130   12.0090   -2.2460 N.3   102  TRP102     -0.1227
     94  CA        17.3290   11.2990   -2.1890 C.3   102  TRP102      0.1737
     95  C         16.8060   11.3890   -0.7550 C.2   102  TRP102      0.2595
     96  O         17.4540   11.9810    0.1120 O.2   102  TRP102     -0.2718
     97  CB        17.4960    9.8240   -2.6050 C.3   102  TRP102      0.0564
     98  CG        18.0140    9.6890   -3.9980 C.ar  102  TRP102      0.0003
     99  CD1       19.3270    9.6390   -4.3800 C.ar  102  TRP102      0.0946
    100  CD2       17.2450    9.6630   -5.2010 C.ar  102  TRP102      0.0152
    101  NE1       19.4190    9.5560   -5.7420 N.ar  102  TRP102     -0.2442
    102  CE2       18.1590    9.5780   -6.2760 C.ar  102  TRP102      0.0810
    103  CE3       15.8760    9.6900   -5.4790 C.ar  102  TRP102      0.0012
    104  CZ2       17.7460    9.5140   -7.6070 C.ar  102  TRP102      0.0191
    105  CZ3       15.4670    9.6180   -6.8050 C.ar  102  TRP102      0.0001
    106  CH2       16.3990    9.5400   -7.8480 C.ar  102  TRP102      0.0015
    107  N         15.6300   10.8290   -0.5020 N.am  103  HIS103     -0.1975
    108  CA        15.1290   10.7660    0.8750 C.3   103  HIS103      0.1656
    109  C         15.9390    9.7550    1.6680 C.2   103  HIS103      0.2291
    110  O         16.2340    8.6670    1.1640 O.2   103  HIS103     -0.2864
    111  CB        13.6700   10.3770    0.9100 C.3   103  HIS103      0.0771
    112  CG        12.7570   11.4380    0.4010 C.ar  103  HIS103      0.0820
    113  ND1       11.6350   11.1500   -0.3390 N.ar  103  HIS103     -0.2267
    114  CD2       12.7950   12.7880    0.5240 C.ar  103  HIS103      0.1154
    115  CE1       11.0130   12.2750   -0.6420 C.ar  103  HIS103      0.1986
    116  NE2       11.7010   13.2840   -0.1360 N.ar  103  HIS103     -0.2212
    117  N          0.2970    5.3940   -2.1420 N.3   125  GLN125     -0.1245
    118  CA         1.4860    6.1700   -1.8100 C.3   125  GLN125      0.1566
    119  C          2.6430    5.3280   -1.2820 C.2   125  GLN125      0.2260
    120  O          3.6560    5.8660   -0.8150 O.2   125  GLN125     -0.2867
    121  CB         1.1180    7.2470   -0.7900 C.3   125  GLN125      0.0367
    122  CG         0.0570    8.2160   -1.2840 C.3   125  GLN125      0.0905
    123  CD         0.4700    8.9240   -2.5660 C.2   125  GLN125      0.2608
    124  OE1        1.5980    9.3800   -2.6790 O.2   125  GLN125     -0.2717
    125  NE2       -0.4410    8.9940   -3.5450 N.am  125  GLN125     -0.0878
    126  N          4.7810    3.5930   -2.9170 N.3   127  TYR127     -0.1227
    127  CA         5.9860    3.8190   -3.7290 C.3   127  TYR127      0.1736
    128  C          6.9390    4.8500   -3.1000 C.2   127  TYR127      0.2595
    129  O          8.1310    4.7580   -3.2890 O.2   127  TYR127     -0.2718
    130  CB         5.6290    4.2030   -5.1790 C.3   127  TYR127      0.0548
    131  CG         5.0800    5.6000   -5.3570 C.ar  127  TYR127     -0.0200
    132  CD1        3.7030    5.8570   -5.2850 C.ar  127  TYR127     -0.0009
    133  CD2        5.9320    6.6720   -5.6270 C.ar  127  TYR127     -0.0009
    134  CE1        3.1970    7.1470   -5.4620 C.ar  127  TYR127      0.0417
    135  CE2        5.4360    7.9550   -5.8070 C.ar  127  TYR127      0.0417
    136  CZ         4.0700    8.1910   -5.7180 C.ar  127  TYR127      0.1957
    137  OH         3.5860    9.4770   -5.8880 O.3   127  TYR127     -0.2866
    138  N          6.4160    5.7840   -2.3030 N.am  128  ASN128     -0.1974
    139  CA         7.2500    6.7520   -1.5920 C.3   128  ASN128      0.1688
    140  C          8.1820    6.1390   -0.5270 C.2   128  ASN128      0.2292
    141  O          9.0510    6.8300   -0.0000 O.2   128  ASN128     -0.2864
    142  CB         6.3590    7.8330   -0.9740 C.3   128  ASN128      0.1181
    143  CG         5.6660    8.6780   -2.0350 C.2   128  ASN128      0.2629
    144  OD1        6.3250    9.3810   -2.7860 O.2   128  ASN128     -0.2716
    145  ND2        4.3400    8.5860   -2.1180 N.am  128  ASN128     -0.0877
    146  N         15.7320    2.7610   -2.3950 N.3   132  MET132     -0.1245
    147  CA        16.5490    3.0230   -3.5690 C.3   132  MET132      0.1570
    148  C         17.3300    1.7460   -3.8490 C.2   132  MET132      0.2261
    149  O         17.7570    1.0570   -2.9210 O.2   132  MET132     -0.2867
    150  CB        17.5710    4.1290   -3.3070 C.3   132  MET132      0.0387
    151  CG        17.0410    5.5220   -3.0160 C.3   132  MET132      0.0595
    152  SD        16.0820    6.2670   -4.3290 S.3   132  MET132     -0.1393
    153  CE        17.2330    6.2840   -5.7010 C.3   132  MET132      0.0692
    154  N         11.8960   11.7680    6.1980 N.3   152  TYR152     -0.1241
    155  CA        10.4440   11.8580    6.4750 C.3   152  TYR152      0.1605
    156  C         10.1410   11.9830    7.9550 C.2   152  TYR152      0.2264
    157  O         10.9280   11.5400    8.7930 O.2   152  TYR152     -0.2867
    158  CB         9.7310   10.6060    5.9630 C.3   152  TYR152      0.0534
    159  CG         9.2850   10.6210    4.5290 C.ar  152  TYR152     -0.0201
    160  CD1        9.7080   11.6050    3.6230 C.ar  152  TYR152     -0.0009
    161  CD2        8.4380    9.6160    4.0540 C.ar  152  TYR152     -0.0009
    162  CE1        9.2810   11.5830    2.3060 C.ar  152  TYR152      0.0417
    163  CE2        8.0260    9.5920    2.7300 C.ar  152  TYR152      0.0417
    164  CZ         8.4410   10.5760    1.8650 C.ar  152  TYR152      0.1957
    165  OH         8.0170   10.5580    0.5390 O.3   152  TYR152     -0.2866
    166  N          2.7300   10.6590    4.6910 N.3   157  PHE157     -0.1241
    167  CA         1.8220    9.8270    3.8960 C.3   157  PHE157      0.1605
    168  C          1.0470    8.7910    4.7290 C.2   157  PHE157      0.2264
    169  O          0.7470    7.7000    4.2480 O.2   157  PHE157     -0.2867
    170  CB         2.5660    9.1610    2.7300 C.3   157  PHE157      0.0534
    171  CG         2.9760   10.1260    1.6580 C.ar  157  PHE157     -0.0203
    172  CD1        2.0090   10.8680    0.9680 C.ar  157  PHE157     -0.0042
    173  CD2        4.3210   10.2890    1.3140 C.ar  157  PHE157     -0.0042
    174  CE1        2.3830   11.7610   -0.0350 C.ar  157  PHE157     -0.0003
    175  CE2        4.6960   11.1860    0.3110 C.ar  157  PHE157     -0.0003
    176  CZ         3.7290   11.9190   -0.3620 C.ar  157  PHE157     -0.0000
@<TRIPOS>BOND
     1    56    55    2
     2    58    59    1
     3    58    57    1
     4    60    59    1
     5    60    61    2
     6    63    61    1
     7    55    54    1
     8    61    62    1
     9    57    54    1
    10    54    53    1
    11    45    44    1
    12    43    44   ar
    13    43    41   ar
    14    44    42   ar
    15    41    39   ar
    16    42    40   ar
    17     1     2    1
    18    11     9    1
    19    39    40   ar
    20    39    38    1
    21     6     7    1
    22     6     5    1
    23     8     9    2
    24     8     7    1
    25     2     5    1
    26     2     3    1
    27     9    10    1
    28    38    35    1
    29     3     4    2
    30    21    27    1
    31    21    20    1
    32    35    34    1
    33    35    36    1
    34    19    18    2
    35    25    24    2
    36    26    27    1
    37    26    23    1
    38    22    18   am
    39    22    23    1
    40    49    48    2
    41    34    30   am
    42    18    17    1
    43    20    17    1
    44    36    46   am
    45    36    37    2
    46    23    24    1
    47    24    28   am
    48    46    47    1
    49    48    47    1
    50    17    16    1
    51    30    29    1
    52    30    31    2
    53   106   104   ar
    54   106   105   ar
    55    28    29    1
    56    47    50    1
    57    29    32    1
    58   104   102   ar
    59    16    14   am
    60    50    51    1
    61    50    52    1
    62   105   103   ar
    63   102   101   ar
    64   102   100   ar
    65    14    15    2
    66    14    13    1
    67    32    33    1
    68   137   136    1
    69   135   136   ar
    70   135   133   ar
    71   101    99   ar
    72   136   134   ar
    73   153   152    1
    74   133   131   ar
    75    86    85    2
    76   103   100   ar
    77   134   132   ar
    78   131   132   ar
    79   131   130    1
    80    13    12    1
    81   100    98   ar
    82   130   127    1
    83    85    84    1
    84    99    98   ar
    85   152   151    1
    86    87    84    1
    87    87    88    1
    88    98    97    1
    89    84    83    1
    90   148   147    1
    91   148   149    2
    92   127   128    1
    93   127   126    1
    94    81    80   ar
    95   147   150    1
    96   147   146    1
    97    77    76    2
    98   125   123   am
    99    88    89   ar
   100    88    90   ar
   101   150   151    1
   102   129   128    2
   103   128   138   am
   104    89    91   ar
   105    90    92   ar
   106   144   143    2
   107   124   123    2
   108    97    94    1
   109    76    75    1
   110   123   122    1
   111    80    79    1
   112    80    82   ar
   113    78    79    1
   114    78    75    1
   115   138   139    1
   116    93    94    1
   117    94    95    1
   118   117   118    1
   119    91    92   ar
   120   145   143   am
   121   143   142    1
   122    75    74    1
   123   118   119    1
   124   118   121    1
   125   139   142    1
   126   139   140    1
   127   122   121    1
   128   119   120    2
   129    95   107   am
   130    95    96    2
   131   115   113   ar
   132   115   116   ar
   133   140   141    2
   134   107   108    1
   135    74    66   am
   136   176   174   ar
   137   176   175   ar
   138   113   112   ar
   139    67    66    2
   140   116   114   ar
   141   174   172   ar
   142    66    65    1
   143   175   173   ar
   144   112   114   ar
   145   112   111    1
   146   165   164    1
   147    71    73   ar
   148    71    69   ar
   149    73    72   ar
   150   108   111    1
   151   108   109    1
   152   172   171   ar
   153   110   109    2
   154   173   171   ar
   155   171   170    1
   156    65    64    1
   157    65    68    1
   158   164   162   ar
   159   164   163   ar
   160    69    68    1
   161    69    70   ar
   162    72    70   ar
   163   162   160   ar
   164   163   161   ar
   165   170   167    1
   166   160   159   ar
   167   167   166    1
   168   167   168    1
   169   161   159   ar
   170   169   168    2
   171   159   158    1
   172   158   155    1
   173   154   155    1
   174   155   156    1
   175   156   157    2
