@<TRIPOS>MOLECULE
tmp/6btpA00.pdb
 182 181 0 0 0
SMALL
GASTEIGER

@<TRIPOS>ATOM
      1  N         24.9150   13.4040  -12.5080 N.3     8  ARG8       -0.1245
      2  CA        23.8980   14.1850  -11.7820 C.3     8  ARG8        0.1563
      3  C         24.5050   15.1900  -10.7900 C.2     8  ARG8        0.2260
      4  O         23.7870   16.0430  -10.2700 O.2     8  ARG8       -0.2867
      5  CB        22.9050   13.2590  -11.0580 C.3     8  ARG8        0.0307
      6  CG        21.8020   12.7030  -11.9500 C.3     8  ARG8        0.0489
      7  CD        20.9680   11.6650  -11.2100 C.3     8  ARG8        0.2205
      8  NE        19.8340   11.1820  -12.0140 N.pl3   8  ARG8       -0.0865
      9  CZ        18.5410   11.1930  -11.6610 C.cat   8  ARG8        0.5346
     10  NH1       18.1240   11.6560  -10.4800 N.pl3   8  ARG8        0.1354
     11  NH2       17.6330   10.7190  -12.5130 N.pl3   8  ARG8        0.1354
     12  N          4.2840   19.2340   -4.1500 N.3    64  GLY64      -0.1210
     13  CA         4.4250   17.8060   -4.4540 C.3    64  GLY64       0.1956
     14  C          5.2740   17.5390   -5.6830 C.2    64  GLY64       0.2612
     15  O          6.4210   17.9930   -5.7690 O.2    64  GLY64      -0.2717
     16  N          4.7040   16.8090   -6.6400 N.am   65  CYS65      -0.1956
     17  CA         5.4490   16.3380   -7.8060 C.3    65  CYS65       0.1843
     18  C          5.8510   17.4920   -8.7440 C.2    65  CYS65       0.2626
     19  O          5.0080   18.3370   -9.0430 O.2    65  CYS65      -0.2714
     20  CB         4.6180   15.3170   -8.5780 C.3    65  CYS65       0.0997
     21  SG         5.4510   14.5670   -9.9940 S.3    65  CYS65      -0.0797
     22  N          7.1080   17.5630   -9.2060 N.am   66  CYS66      -0.1954
     23  CA         8.2160   16.6650   -8.8310 C.3    66  CYS66       0.1843
     24  C          9.5490   17.3960   -8.8390 C.2    66  CYS66       0.2626
     25  O          9.7530   18.3380   -9.6080 O.2    66  CYS66      -0.2714
     26  CB         8.3040   15.4550   -9.7680 C.3    66  CYS66       0.0997
     27  SG         7.2780   14.0480   -9.2820 S.3    66  CYS66      -0.0797
     28  N         10.4570   16.9220   -7.9930 N.am   67  SER67      -0.1936
     29  CA        11.7560   17.5400   -7.7980 C.3    67  SER67       0.2055
     30  C         12.8310   16.6010   -8.3120 C.2    67  SER67       0.2643
     31  O         13.0790   15.5570   -7.7220 O.2    67  SER67      -0.2714
     32  CB        11.9590   17.8440   -6.3190 C.3    67  SER67       0.2130
     33  OG        11.2350   19.0080   -5.9670 O.3    67  SER67      -0.2179
     34  N         13.4610   16.9650   -9.4230 N.am   68  TYR68      -0.1959
     35  CA        14.5030   16.1310  -10.0000 C.3    68  TYR68       0.1771
     36  C         15.6810   16.0540   -9.0310 C.2    68  TYR68       0.2619
     37  O         16.0810   17.0660   -8.4490 O.2    68  TYR68      -0.2715
     38  CB        14.9490   16.6670  -11.3660 C.3    68  TYR68       0.0574
     39  CG        15.7520   15.6690  -12.1650 C.ar   68  TYR68      -0.0198
     40  CD1       17.1200   15.5410  -11.9630 C.ar   68  TYR68      -0.0009
     41  CD2       15.1450   14.8470  -13.1140 C.ar   68  TYR68      -0.0009
     42  CE1       17.8730   14.6260  -12.6790 C.ar   68  TYR68       0.0417
     43  CE2       15.8880   13.9280  -13.8440 C.ar   68  TYR68       0.0417
     44  CZ        17.2530   13.8220  -13.6210 C.ar   68  TYR68       0.1957
     45  OH        18.0090   12.9170  -14.3270 O.3    68  TYR68      -0.2866
     46  N         16.2030   14.8450   -8.8420 N.am   69  VAL69      -0.1977
     47  CA        17.3460   14.6230   -7.9660 C.3    69  VAL69       0.1596
     48  C         18.6410   14.8190   -8.7700 C.2    69  VAL69       0.2287
     49  O         18.9380   14.0300   -9.6680 O.2    69  VAL69      -0.2864
     50  CB        17.2920   13.2230   -7.3190 C.3    69  VAL69       0.0276
     51  CG1       18.4760   13.0040   -6.3850 C.3    69  VAL69       0.0022
     52  CG2       15.9840   13.0570   -6.5550 C.3    69  VAL69       0.0022
     53  N         19.7090   17.4080  -14.0200 N.3    72  ARG72      -0.1245
     54  CA        19.0850   16.7010  -15.1320 C.3    72  ARG72       0.1563
     55  C         19.9330   16.8720  -16.3960 C.2    72  ARG72       0.2260
     56  O         20.3570   15.8880  -16.9990 O.2    72  ARG72      -0.2867
     57  CB        17.6490   17.1790  -15.3620 C.3    72  ARG72       0.0307
     58  CG        17.0200   16.5860  -16.6130 C.3    72  ARG72       0.0489
     59  CD        15.5130   16.4440  -16.5360 C.3    72  ARG72       0.2205
     60  NE        14.8240   17.7320  -16.4760 N.pl3  72  ARG72      -0.0865
     61  CZ        13.5910   17.9780  -16.9330 C.cat  72  ARG72       0.5346
     62  NH1       12.8540   17.0330  -17.5230 N.pl3  72  ARG72       0.1354
     63  NH2       13.0840   19.2020  -16.8120 N.pl3  72  ARG72       0.1354
     64  N         14.9560   22.5060  -14.9360 N.3    77  GLN77      -0.1231
     65  CA        14.2260   21.5960  -14.0380 C.3    77  GLN77       0.1698
     66  C         13.5120   22.4090  -12.9550 C.2    77  GLN77       0.2592
     67  O         14.1100   23.2920  -12.3390 O.2    77  GLN77      -0.2718
     68  CB        15.1630   20.5420  -13.4280 C.3    77  GLN77       0.0381
     69  CG        16.2400   21.0770  -12.4950 C.3    77  GLN77       0.0905
     70  CD        17.3110   20.0480  -12.1740 C.2    77  GLN77       0.2608
     71  OE1       18.0330   19.5940  -13.0580 O.2    77  GLN77      -0.2717
     72  NE2       17.4250   19.6830  -10.8980 N.am   77  GLN77      -0.0878
     73  N         12.2320   22.1130  -12.7350 N.am   78  ALA78      -0.1980
     74  CA        11.3770   22.9390  -11.8770 C.3    78  ALA78       0.1597
     75  C         11.4290   22.5180  -10.4080 C.2    78  ALA78       0.2287
     76  O         11.6540   21.3480  -10.0950 O.2    78  ALA78      -0.2864
     77  CB         9.9400   22.8980  -12.3760 C.3    78  ALA78       0.0319
     78  N         15.1450   21.5480    1.8880 N.3    93  HIS93      -0.1226
     79  CA        14.8860   20.1350    1.5250 C.3    93  HIS93       0.1752
     80  C         14.8380   19.9700    0.0110 C.2    93  HIS93       0.2595
     81  O         15.5040   19.0900   -0.5450 O.2    93  HIS93      -0.2718
     82  CB        13.5720   19.6420    2.1730 C.3    93  HIS93       0.0759
     83  CG        13.1100   18.2890    1.7040 C.ar   93  HIS93       0.0818
     84  ND1       13.2900   17.1420    2.4470 N.ar   93  HIS93      -0.2268
     85  CD2       12.4440   17.9090    0.5870 C.ar   93  HIS93       0.1154
     86  CE1       12.7700   16.1130    1.8000 C.ar   93  HIS93       0.1986
     87  NE2       12.2460   16.5500    0.6700 N.ar   93  HIS93      -0.2212
     88  N         14.0560   20.8240   -0.6480 N.am   94  GLU94      -0.1979
     89  CA        13.9400   20.7910   -2.1050 C.3    94  GLU94       0.1602
     90  C         15.2720   20.9970   -2.8260 C.2    94  GLU94       0.2287
     91  O         15.5520   20.3270   -3.8180 O.2    94  GLU94      -0.2864
     92  CB        12.9300   21.8350   -2.5950 C.3    94  GLU94       0.0415
     93  CG        11.4890   21.5500   -2.2310 C.3    94  GLU94       0.1163
     94  CD        11.0730   20.1430   -2.5750 C.2    94  GLU94       0.3649
     95  OE1       11.4430   19.6470   -3.6590 O.co2  94  GLU94      -0.2457
     96  OE2       10.4020   19.5250   -1.7390 O.co2  94  GLU94      -0.2457
     97  N         17.2770   17.9030   -2.9050 N.3    97  HIS97      -0.1241
     98  CA        17.0370   17.1170   -4.1120 C.3    97  HIS97       0.1621
     99  C         17.8880   17.6390   -5.2700 C.2    97  HIS97       0.2264
    100  O         18.6010   16.8600   -5.9090 O.2    97  HIS97      -0.2867
    101  CB        15.5550   17.0780   -4.4960 C.3    97  HIS97       0.0745
    102  CG        14.7080   16.2530   -3.5690 C.ar   97  HIS97       0.0817
    103  ND1       15.0110   14.9490   -3.2380 N.ar   97  HIS97      -0.2268
    104  CD2       13.5510   16.5430   -2.9240 C.ar   97  HIS97       0.1154
    105  CE1       14.0830   14.4780   -2.4220 C.ar   97  HIS97       0.1986
    106  NE2       13.1860   15.4230   -2.2170 N.ar   97  HIS97      -0.2212
    107  N         18.3570   11.8470   -2.5110 N.3   102  TRP102     -0.1227
    108  CA        17.0450   11.2150   -2.4160 C.3   102  TRP102      0.1737
    109  C         16.6030   11.3250   -0.9540 C.2   102  TRP102      0.2595
    110  O         17.3450   11.8710   -0.1200 O.2   102  TRP102     -0.2718
    111  CB        17.1310    9.7430   -2.8620 C.3   102  TRP102      0.0564
    112  CG        17.6030    9.5990   -4.2930 C.ar  102  TRP102      0.0003
    113  CD1       18.8930    9.5260   -4.7280 C.ar  102  TRP102      0.0946
    114  CD2       16.7830    9.5490   -5.4620 C.ar  102  TRP102      0.0152
    115  NE1       18.9280    9.4210   -6.0950 N.ar  102  TRP102     -0.2442
    116  CE2       17.6460    9.4350   -6.5730 C.ar  102  TRP102      0.0810
    117  CE3       15.4000    9.5700   -5.6790 C.ar  102  TRP102      0.0012
    118  CZ2       17.1720    9.3510   -7.8840 C.ar  102  TRP102      0.0191
    119  CZ3       14.9260    9.4910   -6.9900 C.ar  102  TRP102      0.0001
    120  CH2       15.8120    9.3820   -8.0730 C.ar  102  TRP102      0.0015
    121  N         15.4130   10.8150   -0.6290 N.am  103  HIS103     -0.1975
    122  CA        14.9860   10.7840    0.7830 C.3   103  HIS103      0.1656
    123  C         15.8480    9.8030    1.5780 C.2   103  HIS103      0.2291
    124  O         16.1700    8.7090    1.0950 O.2   103  HIS103     -0.2864
    125  CB        13.5040   10.4530    0.9330 C.3   103  HIS103      0.0771
    126  CG        12.5970   11.4980    0.3610 C.ar  103  HIS103      0.0820
    127  ND1       11.4690   11.1860   -0.3670 N.ar  103  HIS103     -0.2267
    128  CD2       12.6630   12.8510    0.3920 C.ar  103  HIS103      0.1154
    129  CE1       10.8760   12.3000   -0.7540 C.ar  103  HIS103      0.1986
    130  NE2       11.5820   13.3290   -0.3100 N.ar  103  HIS103     -0.2212
    131  N          0.2300    5.4350   -1.8520 N.3   125  GLN125     -0.1245
    132  CA         1.4390    6.2070   -1.5540 C.3   125  GLN125      0.1566
    133  C          2.5990    5.3440   -1.0650 C.2   125  GLN125      0.2260
    134  O          3.6400    5.8760   -0.6610 O.2   125  GLN125     -0.2867
    135  CB         1.1120    7.2880   -0.5230 C.3   125  GLN125      0.0367
    136  CG         0.0500    8.2830   -0.9740 C.3   125  GLN125      0.0905
    137  CD         0.4180    8.9960   -2.2660 C.2   125  GLN125      0.2608
    138  OE1        1.5700    9.3170   -2.4910 O.2   125  GLN125     -0.2717
    139  NE2       -0.5770    9.2350   -3.1280 N.am  125  GLN125     -0.0878
    140  N          4.7010    3.5010   -2.6540 N.3   127  TYR127     -0.1227
    141  CA         5.9010    3.6760   -3.4830 C.3   127  TYR127      0.1736
    142  C          6.8930    4.7050   -2.9280 C.2   127  TYR127      0.2595
    143  O          8.0790    4.5920   -3.1770 O.2   127  TYR127     -0.2718
    144  CB         5.5370    4.0190   -4.9320 C.3   127  TYR127      0.0548
    145  CG         5.0010    5.4150   -5.1330 C.ar  127  TYR127     -0.0200
    146  CD1        3.6440    5.7110   -4.9350 C.ar  127  TYR127     -0.0009
    147  CD2        5.8400    6.4500   -5.5300 C.ar  127  TYR127     -0.0009
    148  CE1        3.1520    6.9980   -5.1340 C.ar  127  TYR127      0.0417
    149  CE2        5.3530    7.7350   -5.7250 C.ar  127  TYR127      0.0417
    150  CZ         4.0110    7.9970   -5.5240 C.ar  127  TYR127      0.1957
    151  OH         3.5180    9.2630   -5.7120 O.3   127  TYR127     -0.2866
    152  N          6.4020    5.6870   -2.1710 N.am  128  ASN128     -0.1974
    153  CA         7.2620    6.6870   -1.5150 C.3   128  ASN128      0.1688
    154  C          8.1820    6.1090   -0.4410 C.2   128  ASN128      0.2292
    155  O          9.0660    6.8050    0.0430 O.2   128  ASN128     -0.2864
    156  CB         6.4080    7.7990   -0.8870 C.3   128  ASN128      0.1181
    157  CG         5.7070    8.6480   -1.9290 C.2   128  ASN128      0.2629
    158  OD1        6.3460    9.3740   -2.6740 O.2   128  ASN128     -0.2716
    159  ND2        4.3850    8.5370   -2.0010 N.am  128  ASN128     -0.0877
    160  N         12.0130   11.8110    6.1990 N.3   152  TYR152     -0.1241
    161  CA        10.5650   11.9240    6.4540 C.3   152  TYR152      0.1605
    162  C         10.2880   12.0770    7.9450 C.2   152  TYR152      0.2264
    163  O         11.0980   11.6600    8.7700 O.2   152  TYR152     -0.2867
    164  CB         9.8310   10.6650    5.9570 C.3   152  TYR152      0.0534
    165  CG         9.3260   10.6650    4.5250 C.ar  152  TYR152     -0.0201
    166  CD1        9.7070   11.6470    3.6010 C.ar  152  TYR152     -0.0009
    167  CD2        8.4620    9.6500    4.0860 C.ar  152  TYR152     -0.0009
    168  CE1        9.2260   11.6270    2.3080 C.ar  152  TYR152      0.0417
    169  CE2        7.9990    9.6170    2.7750 C.ar  152  TYR152      0.0417
    170  CZ         8.3810   10.6110    1.8930 C.ar  152  TYR152      0.1957
    171  OH         7.9420   10.6270    0.5830 O.3   152  TYR152     -0.2866
    172  N          2.8370   10.6430    4.9060 N.3   157  PHE157     -0.1241
    173  CA         1.9020    9.8190    4.1280 C.3   157  PHE157      0.1605
    174  C          1.1010    8.8050    4.9550 C.2   157  PHE157      0.2264
    175  O          0.7390    7.7450    4.4540 O.2   157  PHE157     -0.2867
    176  CB         2.6130    9.1270    2.9600 C.3   157  PHE157      0.0534
    177  CG         2.9530   10.0570    1.8490 C.ar  157  PHE157     -0.0203
    178  CD1        1.9360   10.7340    1.1580 C.ar  157  PHE157     -0.0042
    179  CD2        4.2740   10.2690    1.4730 C.ar  157  PHE157     -0.0042
    180  CE1        2.2450   11.6110    0.1330 C.ar  157  PHE157     -0.0003
    181  CE2        4.5830   11.1490    0.4400 C.ar  157  PHE157     -0.0003
    182  CZ         3.5730   11.8170   -0.2250 C.ar  157  PHE157     -0.0000
@<TRIPOS>BOND
     1    62    61    1
     2    56    55    2
     3    61    63    1
     4    61    60    2
     5    58    59    1
     6    58    57    1
     7    59    60    1
     8    55    54    1
     9    57    54    1
    10    54    53    1
    11    64    65    1
    12    45    44    1
    13    65    68    1
    14    65    66    1
    15    43    44   ar
    16    43    41   ar
    17    44    42   ar
    18    68    69    1
    19    41    39   ar
    20    71    70    2
    21    66    73   am
    22    66    67    2
    23    73    74    1
    24    42    40   ar
    25    11     9    1
    26     1     2    1
    27    69    70    1
    28    77    74    1
    29    70    72   am
    30    39    40   ar
    31    39    38    1
    32     8     9    2
    33     8     7    1
    34     6     7    1
    35     6     5    1
    36    74    75    1
    37     2     5    1
    38     2     3    1
    39     9    10    1
    40    38    35    1
    41     3     4    2
    42    75    76    2
    43    35    34    1
    44    35    36    1
    45    21    27    1
    46    21    20    1
    47    26    27    1
    48    26    23    1
    49    49    48    2
    50    25    24    2
    51    34    30   am
    52    22    23    1
    53    22    18   am
    54    19    18    2
    55    36    46   am
    56    36    37    2
    57    46    47    1
    58    24    23    1
    59    24    28   am
    60    48    47    1
    61    18    17    1
    62    20    17    1
    63    30    29    1
    64    30    31    2
    65   120   118   ar
    66   120   119   ar
    67    28    29    1
    68    47    50    1
    69   118   116   ar
    70    17    16    1
    71    29    32    1
    72    50    52    1
    73    50    51    1
    74   119   117   ar
    75    16    14   am
    76   116   115   ar
    77   116   114   ar
    78    32    33    1
    79   115   113   ar
    80   100    99    2
    81    15    14    2
    82   149   147   ar
    83   149   150   ar
    84   151   150    1
    85    14    13    1
    86   117   114   ar
    87   147   145   ar
    88   150   148   ar
    89   114   112   ar
    90    99    98    1
    91   148   146   ar
    92   145   146   ar
    93   145   144    1
    94   144   141    1
    95   113   112   ar
    96   101    98    1
    97   101   102    1
    98    13    12    1
    99   112   111    1
   100    98    97    1
   101    91    90    2
   102    95    94   ar
   103   102   103   ar
   104   102   104   ar
   105   141   142    1
   106   141   140    1
   107   103   105   ar
   108   143   142    2
   109   139   137   am
   110   142   152   am
   111   104   106   ar
   112   111   108    1
   113    90    89    1
   114   158   157    2
   115    92    93    1
   116    92    89    1
   117    94    93    1
   118    94    96   ar
   119   107   108    1
   120   138   137    2
   121   105   106   ar
   122   108   109    1
   123   137   136    1
   124   152   153    1
   125    89    88    1
   126   159   157   am
   127   157   156    1
   128   131   132    1
   129   132   133    1
   130   132   135    1
   131   153   156    1
   132   153   154    1
   133   133   134    2
   134   136   135    1
   135   109   121   am
   136   109   110    2
   137   129   127   ar
   138   129   130   ar
   139    88    80   am
   140   121   122    1
   141    81    80    2
   142   154   155    2
   143   127   126   ar
   144   130   128   ar
   145   182   180   ar
   146   182   181   ar
   147    80    79    1
   148   180   178   ar
   149   126   128   ar
   150   126   125    1
   151   181   179   ar
   152   171   170    1
   153    85    87   ar
   154    85    83   ar
   155    87    86   ar
   156   122   125    1
   157   122   123    1
   158   124   123    2
   159   178   177   ar
   160   179   177   ar
   161    79    78    1
   162    79    82    1
   163    83    82    1
   164    83    84   ar
   165    86    84   ar
   166   177   176    1
   167   170   168   ar
   168   170   169   ar
   169   168   166   ar
   170   169   167   ar
   171   176   173    1
   172   166   165   ar
   173   167   165   ar
   174   173   172    1
   175   173   174    1
   176   175   174    2
   177   165   164    1
   178   164   161    1
   179   160   161    1
   180   161   162    1
   181   162   163    2
