@<TRIPOS>MOLECULE
tmp/6btqA00.pdb
 173 172 0 0 0
SMALL
GASTEIGER

@<TRIPOS>ATOM
      1  N         18.6070    0.7010   22.0120 N.3    63  CYS63      -0.1221
      2  CA        19.1300    1.7730   21.1590 C.3    63  CYS63       0.1808
      3  C         18.8640    1.5040   19.6740 C.2    63  CYS63       0.2602
      4  O         18.8450    0.3500   19.2390 O.2    63  CYS63      -0.2717
      5  CB        20.6280    1.9810   21.4170 C.3    63  CYS63       0.0970
      6  SG        21.0550    2.3500   23.1400 S.3    63  CYS63      -0.0800
      7  N         18.6460    2.5780   18.9120 N.am   64  GLY64      -0.1942
      8  CA        18.3610    2.4940   17.4770 C.3    64  GLY64       0.2014
      9  C         17.3900    3.5520   16.9730 C.2    64  GLY64       0.2639
     10  O         16.7490    4.2510   17.7610 O.2    64  GLY64      -0.2714
     11  N         17.2960    3.6550   15.6470 N.am   65  CYS65      -0.1953
     12  CA        16.2930    4.4890   14.9520 C.3    65  CYS65       0.1843
     13  C         14.8800    4.1760   15.4970 C.2    65  CYS65       0.2626
     14  O         14.6240    3.0230   15.8420 O.2    65  CYS65      -0.2714
     15  CB        16.3510    4.2000   13.4390 C.3    65  CYS65       0.0997
     16  SG        15.6730    5.4670   12.3370 S.3    65  CYS65      -0.0797
     17  N         13.9470    5.1350   15.5850 N.am   66  CYS66      -0.1954
     18  CA        14.0570    6.5210   15.1040 C.3    66  CYS66       0.1843
     19  C         13.3830    7.4810   16.0910 C.2    66  CYS66       0.2626
     20  O         12.5250    7.0680   16.8740 O.2    66  CYS66      -0.2714
     21  CB        13.3650    6.6610   13.7440 C.3    66  CYS66       0.0997
     22  SG        13.6740    5.3120   12.5800 S.3    66  CYS66      -0.0797
     23  N         13.7830    8.7520   16.0400 N.am   67  SER67      -0.1950
     24  CA        13.1980    9.8250   16.8590 C.3    67  SER67       0.1924
     25  C         12.3710   10.7330   15.9770 C.2    67  SER67       0.2314
     26  O         12.6620   10.8780   14.7840 O.2    67  SER67      -0.2863
     27  CB        14.2820   10.6810   17.5170 C.3    67  SER67       0.2116
     28  OG        14.8650   10.0070   18.6180 O.3    67  SER67      -0.2180
     29  N         23.4300    1.1750   26.0500 N.3    84  ASN84      -0.1225
     30  CA        24.5800    1.6170   25.2560 C.3    84  ASN84       0.1785
     31  C         24.3940    2.9720   24.5400 C.2    84  ASN84       0.2597
     32  O         25.1990    3.3160   23.6690 O.2    84  ASN84      -0.2718
     33  CB        24.9210    0.5250   24.2370 C.3    84  ASN84       0.1169
     34  CG        25.2520   -0.7990   24.8980 C.2    84  ASN84       0.2627
     35  OD1       26.2650   -0.9230   25.5900 O.2    84  ASN84      -0.2716
     36  ND2       24.3950   -1.7940   24.6930 N.am   84  ASN84      -0.0877
     37  N         23.3580    3.7350   24.9070 N.am   85  CYS85      -0.1970
     38  CA        23.1380    5.0900   24.3730 C.3    85  CYS85       0.1712
     39  C         22.5170    6.0140   25.4290 C.2    85  CYS85       0.2296
     40  O         21.5120    6.6910   25.1710 O.2    85  CYS85      -0.2864
     41  CB        22.2610    5.0450   23.1120 C.3    85  CYS85       0.0983
     42  SG        20.6270    4.3190   23.3580 S.3    85  CYS85      -0.0798
     43  N         25.1110   11.7450   23.8540 N.3    90  ILE90      -0.1245
     44  CA        24.0550   11.1010   23.0890 C.3    90  ILE90       0.1561
     45  C         22.6950   11.7250   23.4140 C.2    90  ILE90       0.2260
     46  O         21.8870   11.9580   22.5160 O.2    90  ILE90      -0.2867
     47  CB        24.0480    9.5820   23.3260 C.3    90  ILE90       0.0252
     48  CG1       25.3540    8.9900   22.7710 C.3    90  ILE90       0.0019
     49  CG2       22.8420    8.9320   22.6550 C.3    90  ILE90       0.0019
     50  CD1       25.5870    7.5440   23.1050 C.3    90  ILE90       0.0001
     51  N         22.5000   15.0740   21.7000 N.3    93  HIS93      -0.1226
     52  CA        22.1830   14.7790   20.2940 C.3    93  HIS93       0.1752
     53  C         20.6970   14.5040   20.0860 C.2    93  HIS93       0.2595
     54  O         20.0740   15.0950   19.2020 O.2    93  HIS93      -0.2718
     55  CB        23.0110   13.5710   19.8210 C.3    93  HIS93       0.0759
     56  CG        22.6560   13.0640   18.4500 C.ar   93  HIS93       0.0818
     57  ND1       23.4200   13.3370   17.3370 N.ar   93  HIS93      -0.2268
     58  CD2       21.6580   12.2490   18.0290 C.ar   93  HIS93       0.1154
     59  CE1       22.8910   12.7320   16.2830 C.ar   93  HIS93       0.1986
     60  NE2       21.8130   12.0750   16.6740 N.ar   93  HIS93      -0.2212
     61  N         20.1310   13.6140   20.9000 N.am   94  GLU94      -0.1979
     62  CA        18.7160   13.2550   20.7770 C.3    94  GLU94       0.1602
     63  C         17.8240   14.4790   21.0130 C.2    94  GLU94       0.2287
     64  O         16.8100   14.6530   20.3360 O.2    94  GLU94      -0.2864
     65  CB        18.3410   12.1220   21.7380 C.3    94  GLU94       0.0415
     66  CG        19.0670   10.8030   21.4910 C.3    94  GLU94       0.1163
     67  CD        18.4090    9.9530   20.4310 C.2    94  GLU94       0.3649
     68  OE1       17.4760   10.4530   19.7670 O.co2  94  GLU94      -0.2457
     69  OE2       18.8380    8.7840   20.2730 O.co2  94  GLU94      -0.2457
     70  N         17.4880   16.3890   17.9060 N.3    97  HIS97      -0.1241
     71  CA        16.3470   15.9280   17.1010 C.3    97  HIS97       0.1621
     72  C         15.0550   16.5720   17.6130 C.2    97  HIS97       0.2264
     73  O         14.2990   17.1470   16.8380 O.2    97  HIS97      -0.2867
     74  CB        16.2150   14.3980   17.0740 C.3    97  HIS97       0.0745
     75  CG        17.3090   13.7000   16.3250 C.ar   97  HIS97       0.0817
     76  ND1       17.6880   14.0580   15.0520 N.ar   97  HIS97      -0.2268
     77  CD2       18.0840   12.6440   16.6620 C.ar   97  HIS97       0.1154
     78  CE1       18.6570   13.2620   14.6410 C.ar   97  HIS97       0.1986
     79  NE2       18.9250   12.3960   15.6020 N.ar   97  HIS97      -0.2212
     80  N         17.7610   17.3980   11.8830 N.3   102  TRP102     -0.1227
     81  CA        18.1000   16.1070   11.3050 C.3   102  TRP102      0.1737
     82  C         19.6120   15.9350   11.4000 C.2   102  TRP102      0.2595
     83  O         20.3240   16.8390   11.8760 O.2   102  TRP102     -0.2718
     84  CB        17.6310   16.0390    9.8370 C.3   102  TRP102      0.0564
     85  CG        16.1630   16.2650    9.6700 C.ar  102  TRP102      0.0003
     86  CD1       15.5240   17.4600    9.4690 C.ar  102  TRP102      0.0946
     87  CD2       15.1440   15.2680    9.6930 C.ar  102  TRP102      0.0152
     88  NE1       14.1740   17.2640    9.3760 N.ar  102  TRP102     -0.2442
     89  CE2       13.9110   15.9260    9.5120 C.ar  102  TRP102      0.0810
     90  CE3       15.1540   13.8750    9.8500 C.ar  102  TRP102      0.0012
     91  CZ2       12.7010   15.2410    9.4690 C.ar  102  TRP102      0.0191
     92  CZ3       13.9540   13.1970    9.8140 C.ar  102  TRP102      0.0001
     93  CH2       12.7410   13.8790    9.6350 C.ar  102  TRP102      0.0015
     94  N         20.1140   14.7830   10.9580 N.am  103  HIS103     -0.1975
     95  CA        21.5610   14.5550   10.9520 C.3   103  HIS103      0.1656
     96  C         22.2820   15.4850    9.9740 C.2   103  HIS103      0.2291
     97  O         21.8450   15.6610    8.8340 O.2   103  HIS103     -0.2864
     98  CB        21.8840   13.0990   10.6520 C.3   103  HIS103      0.0771
     99  CG        21.4410   12.1670   11.7310 C.ar  103  HIS103      0.0820
    100  ND1       20.8400   10.9550   11.4700 N.ar  103  HIS103     -0.2267
    101  CD2       21.4820   12.2890   13.0790 C.ar  103  HIS103      0.1154
    102  CE1       20.5410   10.3630   12.6150 C.ar  103  HIS103      0.1986
    103  NE2       20.9190   11.1490   13.6080 N.ar  103  HIS103     -0.2212
    104  N         19.4880    4.2050    3.9430 N.3   127  TYR127     -0.1227
    105  CA        18.5890    5.3490    4.2300 C.3   127  TYR127      0.1736
    106  C         19.1420    6.3690    5.2300 C.2   127  TYR127      0.2595
    107  O         18.7720    7.5430    5.1770 O.2   127  TYR127     -0.2718
    108  CB        17.2040    4.8800    4.7080 C.3   127  TYR127      0.0548
    109  CG        17.1480    4.2870    6.1060 C.ar  127  TYR127     -0.0200
    110  CD1       17.3770    2.9280    6.3210 C.ar  127  TYR127     -0.0009
    111  CD2       16.8200    5.0770    7.2180 C.ar  127  TYR127     -0.0009
    112  CE1       17.3110    2.3770    7.5900 C.ar  127  TYR127      0.0417
    113  CE2       16.7540    4.5330    8.4940 C.ar  127  TYR127      0.0417
    114  CZ        16.9930    3.1810    8.6770 C.ar  127  TYR127      0.1957
    115  OH        16.9290    2.6110    9.9390 O.3   127  TYR127     -0.2866
    116  N         20.0050    5.9080    6.1350 N.am  128  ASN128     -0.1974
    117  CA        20.7700    6.7720    7.0430 C.3   128  ASN128      0.1688
    118  C         21.5920    7.8650    6.3330 C.2   128  ASN128      0.2292
    119  O         21.9620    8.8600    6.9640 O.2   128  ASN128     -0.2864
    120  CB        21.7420    5.9230    7.8780 C.3   128  ASN128      0.1181
    121  CG        21.0800    5.2630    9.0640 C.2   128  ASN128      0.2629
    122  OD1       20.9170    5.8980   10.1010 O.2   128  ASN128     -0.2716
    123  ND2       20.7270    3.9770    8.9380 N.am  128  ASN128     -0.0877
    124  N         27.2990   12.3870   12.0010 N.3   152  TYR152     -0.1227
    125  CA        27.7820   11.0070   12.1640 C.3   152  TYR152      0.1736
    126  C         29.2960   10.9540   12.2040 C.2   152  TYR152      0.2595
    127  O         29.9790   11.8450   11.7040 O.2   152  TYR152     -0.2718
    128  CB        27.2940   10.1060   11.0120 C.3   152  TYR152      0.0548
    129  CG        25.9130    9.5010   11.1600 C.ar  152  TYR152     -0.0200
    130  CD1       25.0150    9.9220   12.1480 C.ar  152  TYR152     -0.0009
    131  CD2       25.4820    8.5160   10.2660 C.ar  152  TYR152     -0.0009
    132  CE1       23.7580    9.3500   12.2610 C.ar  152  TYR152      0.0417
    133  CE2       24.2200    7.9460   10.3730 C.ar  152  TYR152      0.0417
    134  CZ        23.3620    8.3720   11.3730 C.ar  152  TYR152      0.1957
    135  OH        22.1070    7.8270   11.5080 O.3   152  TYR152     -0.2866
    136  N         29.8070    9.8760   12.7870 N.am  153  ALA153     -0.1980
    137  CA        31.2280    9.5940   12.7530 C.3   153  ALA153      0.1597
    138  C         31.6040    9.0530   11.3810 C.2   153  ALA153      0.2287
    139  O         30.7350    8.7480   10.5530 O.2   153  ALA153     -0.2864
    140  CB        31.5970    8.6010   13.8370 C.3   153  ALA153      0.0319
    141  N         30.0870    5.2770   10.9620 N.3   156  THR156     -0.1203
    142  CA        28.7510    4.9610   11.4540 C.3   156  THR156      0.1994
    143  C         28.0250    4.1200   10.3920 C.2   156  THR156      0.2617
    144  O         28.1290    4.3900    9.2000 O.2   156  THR156     -0.2717
    145  CB        27.9800    6.2430   11.8300 C.3   156  THR156      0.1784
    146  OG1       28.7760    7.0100   12.7460 O.3   156  THR156     -0.2211
    147  CG2       26.6610    5.9150   12.4960 C.3   156  THR156      0.0376
    148  N         27.3630    3.0550   10.8440 N.am  157  PHE157     -0.1975
    149  CA        26.7110    2.0720    9.9760 C.3   157  PHE157      0.1639
    150  C         27.6030    1.4550    8.8970 C.2   157  PHE157      0.2290
    151  O         27.1400    1.1230    7.8040 O.2   157  PHE157     -0.2864
    152  CB        25.4160    2.6540    9.3860 C.3   157  PHE157      0.0560
    153  CG        24.3440    2.8310   10.4080 C.ar  157  PHE157     -0.0200
    154  CD1       23.7790    1.7160   11.0200 C.ar  157  PHE157     -0.0042
    155  CD2       23.9120    4.0980   10.7910 C.ar  157  PHE157     -0.0042
    156  CE1       22.8050    1.8570   11.9860 C.ar  157  PHE157     -0.0003
    157  CE2       22.9430    4.2430   11.7620 C.ar  157  PHE157     -0.0003
    158  CZ        22.3820    3.1250   12.3580 C.ar  157  PHE157     -0.0000
    159  N         31.8230   13.5730   14.1990 N.3   180  GLY180     -0.1225
    160  CA        31.1510   12.6490   15.0950 C.3   180  GLY180      0.1811
    161  C         31.4130   12.8820   16.5670 C.2   180  GLY180      0.2280
    162  O         31.2320   11.9590   17.3550 O.2   180  GLY180     -0.2866
    163  N         30.7820   13.8360   20.3470 N.3   182  ARG182     -0.1245
    164  CA        29.6320   13.7690   21.2410 C.3   182  ARG182      0.1563
    165  C         30.0110   14.2950   22.6280 C.2   182  ARG182      0.2260
    166  O         29.6890   13.6980   23.6550 O.2   182  ARG182     -0.2867
    167  CB        29.0570   12.3510   21.2820 C.3   182  ARG182      0.0307
    168  CG        28.4350   11.8910   19.9690 C.3   182  ARG182      0.0489
    169  CD        27.1890   12.6890   19.6120 C.3   182  ARG182      0.2205
    170  NE        26.5300   12.1680   18.4190 N.pl3 182  ARG182     -0.0865
    171  CZ        26.8870   12.4310   17.1580 C.cat 182  ARG182      0.5346
    172  NH1       27.9140   13.2280   16.8760 N.pl3 182  ARG182      0.1354
    173  NH2       26.1880   11.8920   16.1630 N.pl3 182  ARG182      0.1354
@<TRIPOS>BOND
     1   104   105    1
     2   105   108    1
     3   105   106    1
     4   108   109    1
     5   107   106    2
     6   106   116   am
     7   109   110   ar
     8   109   111   ar
     9   116   117    1
    10   110   112   ar
    11   118   119    2
    12   118   117    1
    13   117   120    1
    14   111   113   ar
    15   112   114   ar
    16   151   150    2
    17   120   121    1
    18   113   114   ar
    19   114   115    1
    20    97    96    2
    21   150   149    1
    22   123   121   am
    23   121   122    2
    24   144   143    2
    25    88    86   ar
    26    88    89   ar
    27   152   149    1
    28   152   153    1
    29    86    85   ar
    30    91    89   ar
    31    91    93   ar
    32    89    87   ar
    33    93    92   ar
    34    85    87   ar
    35    85    84    1
    36    87    90   ar
    37    92    90   ar
    38    84    81    1
    39    96    95    1
    40   149   148    1
    41   131   133   ar
    42   131   129   ar
    43   133   134   ar
    44   143   148   am
    45   143   142    1
    46   153   155   ar
    47   153   154   ar
    48   139   138    2
    49    98    95    1
    50    98    99    1
    51   155   157   ar
    52    95    94    1
    53    94    82   am
    54   141   142    1
    55   128   129    1
    56   128   125    1
    57   154   156   ar
    58   129   130   ar
    59    81    82    1
    60    81    80    1
    61   134   135    1
    62   134   132   ar
    63   138   137    1
    64    82    83    2
    65   142   145    1
    66   100    99   ar
    67   100   102   ar
    68   127   126    2
    69    99   101   ar
    70   157   158   ar
    71   145   147    1
    72   145   146    1
    73   156   158   ar
    74   124   125    1
    75   130   132   ar
    76   125   126    1
    77   126   136   am
    78    16    22    1
    79    16    15    1
    80    22    21    1
    81   102   103   ar
    82   137   136    1
    83   137   140    1
    84   101   103   ar
    85    15    12    1
    86    21    18    1
    87   159   160    1
    88    78    76   ar
    89    78    79   ar
    90    26    25    2
    91    12    13    1
    92    12    11    1
    93    76    75   ar
    94   160   161    1
    95    18    17    1
    96    18    19    1
    97    13    17   am
    98    13    14    2
    99    79    77   ar
   100    11     9   am
   101    25    24    1
   102    23    19   am
   103    23    24    1
   104    19    20    2
   105   173   171    1
   106    59    60   ar
   107    59    57   ar
   108    75    77   ar
   109    75    74    1
   110   161   162    2
   111    60    58   ar
   112    73    72    2
   113    24    27    1
   114   172   171    1
   115     9     8    1
   116     9    10    2
   117    74    71    1
   118    71    72    1
   119    71    70    1
   120   171   170    2
   121    57    56   ar
   122     8     7    1
   123    27    28    1
   124    58    56   ar
   125   170   169    1
   126    56    55    1
   127     7     3   am
   128    54    53    2
   129     4     3    2
   130   169   168    1
   131     3     2    1
   132    68    67   ar
   133    55    52    1
   134   168   167    1
   135    53    52    1
   136    53    61   am
   137    69    67   ar
   138    52    51    1
   139    64    63    2
   140   163   164    1
   141    67    66    1
   142    62    61    1
   143    62    63    1
   144    62    65    1
   145     2     5    1
   146     2     1    1
   147   164   167    1
   148   164   165    1
   149     5     6    1
   150    66    65    1
   151    46    45    2
   152   165   166    2
   153    49    47    1
   154    48    50    1
   155    48    47    1
   156    44    47    1
   157    44    45    1
   158    44    43    1
   159    41    42    1
   160    41    38    1
   161     6    42    1
   162    32    31    2
   163    33    34    1
   164    33    30    1
   165    38    37    1
   166    38    39    1
   167    31    37   am
   168    31    30    1
   169    36    34   am
   170    34    35    2
   171    40    39    2
   172    30    29    1
