@<TRIPOS>MOLECULE
tmp/6btwB00.pdb
 164 153 0 0 0
SMALL
GASTEIGER

@<TRIPOS>ATOM
      1  N        -36.2280    7.4680   52.2630 N.3    21  ILE21      -0.1245
      2  CA       -35.5730    6.1490   52.4160 C.3    21  ILE21       0.1561
      3  C        -34.5650    6.0770   53.5610 C.2    21  ILE21       0.2260
      4  O        -34.1520    7.0980   54.1110 O.2    21  ILE21      -0.2867
      5  CB       -34.8680    5.7090   51.0940 C.3    21  ILE21       0.0252
      6  CG1      -33.8440    6.7590   50.6190 C.3    21  ILE21       0.0019
      7  CG2      -35.8940    5.4410   49.9910 C.3    21  ILE21       0.0019
      8  CD1      -33.1590    6.4070   49.3220 C.3    21  ILE21       0.0001
      9  N        -32.9190   11.7510   52.8900 N.3    23  ILE23      -0.1245
     10  CA       -32.5950   11.2310   51.5550 C.3    23  ILE23       0.1561
     11  C        -33.8570   10.6610   50.9040 C.2    23  ILE23       0.2260
     12  O        -34.6030    9.9380   51.5540 O.2    23  ILE23      -0.2867
     13  CB       -31.5020   10.1290   51.6330 C.3    23  ILE23       0.0252
     14  CG1      -30.2380   10.6910   52.3050 C.3    23  ILE23       0.0019
     15  CG2      -31.2070    9.5400   50.2510 C.3    23  ILE23       0.0019
     16  CD1      -29.0670    9.7300   52.3660 C.3    23  ILE23       0.0001
     17  N        -35.6870    9.0400   46.9860 N.3    25  LEU25      -0.1245
     18  CA       -35.5500    8.6310   45.5830 C.3    25  LEU25       0.1561
     19  C        -35.7150    9.8340   44.6540 C.2    25  LEU25       0.2260
     20  O        -36.2320   10.8870   45.0540 O.2    25  LEU25      -0.2867
     21  CB       -36.5760    7.5560   45.2010 C.3    25  LEU25       0.0270
     22  CG       -36.5250    6.1990   45.9110 C.3    25  LEU25       0.0019
     23  CD1      -37.6290    5.2990   45.3700 C.3    25  LEU25       0.0001
     24  CD2      -35.1720    5.5160   45.7450 C.3    25  LEU25       0.0001
     25  N        -30.9660    9.0390   43.8460 N.3    36  VAL36      -0.1245
     26  CA       -31.4490    9.5180   45.1100 C.3    36  VAL36       0.1561
     27  C        -31.0200   10.9590   45.2700 C.2    36  VAL36       0.2260
     28  O        -30.0530   11.4070   44.6260 O.2    36  VAL36      -0.2867
     29  CB       -30.9050    8.6910   46.3120 C.3    36  VAL36       0.0252
     30  CG1      -31.3350    7.2420   46.1990 C.3    36  VAL36       0.0019
     31  CG2      -29.3820    8.7800   46.4590 C.3    36  VAL36       0.0019
     32  N        -29.9480   13.7310   48.2970 N.3    38  LYS38      -0.1245
     33  CA       -29.6090   14.0330   49.6770 C.3    38  LYS38       0.1561
     34  C        -29.8750   15.5150   49.8370 C.2    38  LYS38       0.2260
     35  O        -29.5580   16.2850   48.9310 O.2    38  LYS38      -0.2867
     36  CB       -28.1390   13.7570   49.9740 C.3    38  LYS38       0.0271
     37  CG       -27.6730   12.3190   49.8310 C.3    38  LYS38       0.0035
     38  CD       -26.2200   12.1920   50.3180 C.3    38  LYS38       0.0206
     39  CE       -25.8820   10.7850   50.7470 C.3    38  LYS38       0.1093
     40  NZ       -24.4770   10.6670   51.2190 N.3    38  LYS38      -0.1314
     41  N        -19.1370   16.5030   51.5790 N.3    47  GLU47      -0.1245
     42  CA       -19.3780   15.4670   50.5960 C.3    47  GLU47       0.1567
     43  C        -19.3670   16.0550   49.1810 C.2    47  GLU47       0.2260
     44  O        -18.6880   15.5440   48.2920 O.2    47  GLU47      -0.2867
     45  CB       -20.6860   14.7790   50.9290 C.3    47  GLU47       0.0388
     46  CG       -20.8340   13.4520   50.2790 C.3    47  GLU47       0.1160
     47  CD       -21.8190   12.5540   50.9700 C.2    47  GLU47       0.3649
     48  OE1      -22.8320   13.0410   51.5440 O.co2  47  GLU47      -0.2457
     49  OE2      -21.5880   11.3290   50.8850 O.co2  47  GLU47      -0.2457
     50  N        -16.8710   15.2040   45.9870 N.3    51  TYR51      -0.1241
     51  CA       -17.2620   14.7250   44.6310 C.3    51  TYR51       0.1605
     52  C        -16.7590   15.6410   43.5310 C.2    51  TYR51       0.2264
     53  O        -16.2900   15.1780   42.4930 O.2    51  TYR51      -0.2867
     54  CB       -18.7740   14.4660   44.4780 C.3    51  TYR51       0.0534
     55  CG       -19.1550   13.1590   45.0930 C.ar   51  TYR51      -0.0201
     56  CD1      -18.8960   11.9640   44.4330 C.ar   51  TYR51      -0.0009
     57  CD2      -19.7520   13.1040   46.3350 C.ar   51  TYR51      -0.0009
     58  CE1      -19.2180   10.7530   45.0000 C.ar   51  TYR51       0.0417
     59  CE2      -20.0900   11.8980   46.8920 C.ar   51  TYR51       0.0417
     60  CZ       -19.8070   10.7240   46.2250 C.ar   51  TYR51       0.1957
     61  OH       -20.1350    9.5310   46.8010 O.3    51  TYR51      -0.2866
     62  N        -19.5480    6.0120   44.2940 N.3    75  PRO75      -0.2116
     63  CA       -20.8290    6.3610   43.6840 C.3    75  PRO75       0.1372
     64  C        -20.7320    7.4220   42.6000 C.2    75  PRO75       0.2244
     65  O        -19.8560    8.2820   42.6500 O.2    75  PRO75      -0.2868
     66  CB       -21.6330    6.9070   44.8700 C.3    75  PRO75       0.0268
     67  CG       -21.0420    6.2230   46.0580 C.3    75  PRO75       0.0207
     68  CD       -19.5760    6.2670   45.7500 C.3    75  PRO75       0.0892
     69  N        -27.3200   11.5100   43.6030 N.3    91  MET91      -0.1230
     70  CA       -26.3630   10.4040   43.6160 C.3    91  MET91       0.1702
     71  C        -27.0050    9.1700   43.0280 C.2    91  MET91       0.2592
     72  O        -28.2220    9.1410   42.8840 O.2    91  MET91      -0.2718
     73  CB       -25.9720   10.1210   45.0650 C.3    91  MET91       0.0401
     74  CG       -25.3110   11.3090   45.7770 C.3    91  MET91       0.0596
     75  SD       -23.8510   11.9160   44.8990 S.3    91  MET91      -0.1393
     76  CE       -22.8010   10.4570   44.9000 C.3    91  MET91       0.0692
     77  N        -26.2110    8.1530   42.6930 N.am   92  ASP92      -0.1960
     78  CA       -26.7630    6.8250   42.3600 C.3    92  ASP92       0.1840
     79  C        -27.7470    6.3120   43.4310 C.2    92  ASP92       0.2622
     80  O        -27.5550    6.5390   44.6370 O.2    92  ASP92      -0.2715
     81  CB       -25.6720    5.7530   42.2350 C.3    92  ASP92       0.1450
     82  CG       -24.9010    5.8090   40.9200 C.2    92  ASP92       0.3671
     83  OD1      -25.4570    6.2390   39.8750 O.co2  92  ASP92      -0.2456
     84  OD2      -23.7170    5.3670   40.9300 O.co2  92  ASP92      -0.2456
     85  N        -28.7770    5.5950   42.9760 N.am   93  ARG93      -0.1963
     86  CA       -29.5860    4.7430   43.8530 C.3    93  ARG93       0.1729
     87  C        -28.9690    3.3570   43.8560 C.2    93  ARG93       0.2616
     88  O        -28.7320    2.7830   42.8090 O.2    93  ARG93      -0.2715
     89  CB       -31.0560    4.6960   43.3990 C.3    93  ARG93       0.0348
     90  CG       -31.9670    3.8320   44.2660 C.3    93  ARG93       0.0492
     91  CD       -32.0420    2.3880   43.7770 C.3    93  ARG93       0.2205
     92  NE       -33.0580    1.6280   44.5080 N.pl3  93  ARG93      -0.0865
     93  CZ       -34.3670    1.6220   44.2440 C.cat  93  ARG93       0.5346
     94  NH1      -34.8940    2.3320   43.2410 N.pl3  93  ARG93       0.1354
     95  NH2      -35.1640    0.8850   45.0100 N.pl3  93  ARG93       0.1354
     96  N        -28.7310    2.8180   45.0500 N.am   94  PHE94      -0.1960
     97  CA       -28.1810    1.4600   45.2250 C.3    94  PHE94       0.1771
     98  C        -29.2210    0.4440   45.7620 C.2    94  PHE94       0.2620
     99  O        -30.3310    0.8180   46.1580 O.2    94  PHE94      -0.2715
    100  CB       -26.9880    1.5430   46.2050 C.3    94  PHE94       0.0574
    101  CG       -25.8590    2.3690   45.6940 C.ar   94  PHE94      -0.0200
    102  CD1      -25.0650    1.8880   44.6660 C.ar   94  PHE94      -0.0042
    103  CD2      -25.5660    3.6250   46.2520 C.ar   94  PHE94      -0.0042
    104  CE1      -24.0180    2.6510   44.1650 C.ar   94  PHE94      -0.0003
    105  CE2      -24.5120    4.3860   45.7510 C.ar   94  PHE94      -0.0003
    106  CZ       -23.7440    3.8940   44.7050 C.ar   94  PHE94      -0.0000
    107  N        -28.8280   -0.8280   45.7960 N.am   95  GLY95      -0.1954
    108  CA       -29.5730   -1.8930   46.4620 C.3    95  GLY95       0.1869
    109  C        -29.2910   -1.9160   47.9570 C.2    95  GLY95       0.2309
    110  O        -29.1470   -0.8650   48.5740 O.2    95  GLY95      -0.2863
    111  N        -27.6930   -2.4220   51.7590 N.3    97  ASP97      -0.1239
    112  CA       -26.4200   -2.3060   52.4840 C.3    97  ASP97       0.1674
    113  C        -25.9850   -3.6860   52.9670 C.2    97  ASP97       0.2266
    114  O        -26.8050   -4.6100   53.0860 O.2    97  ASP97      -0.2867
    115  CB       -26.4930   -1.2850   53.6340 C.3    97  ASP97       0.1410
    116  CG       -27.4450   -1.6920   54.7250 C.2    97  ASP97       0.3668
    117  OD1      -28.6450   -1.3490   54.6160 O.co2  97  ASP97      -0.2456
    118  OD2      -26.9930   -2.3460   55.6760 O.co2  97  ASP97      -0.2456
    119  N        -27.5180   -5.1760   56.6660 N.3   100  LYS100     -0.1245
    120  CA       -28.7560   -6.0070   56.5880 C.3   100  LYS100      0.1561
    121  C        -28.4430   -7.4670   56.2730 C.2   100  LYS100      0.2260
    122  O        -28.8730   -8.3620   57.0020 O.2   100  LYS100     -0.2867
    123  CB       -29.7470   -5.4840   55.5360 C.3   100  LYS100      0.0271
    124  CG       -30.5180   -4.2310   55.9190 C.3   100  LYS100      0.0035
    125  CD       -31.7110   -4.0130   54.9840 C.3   100  LYS100      0.0206
    126  CE       -32.0800   -2.5390   54.8170 C.3   100  LYS100      0.1093
    127  NZ       -31.4020   -1.9010   53.6440 N.3   100  LYS100     -0.1314
    128  N        -22.6890   -0.9130   57.0170 N.3   141  SER141     -0.1202
    129  CA       -23.8340   -0.0710   56.7750 C.3   141  SER141      0.2020
    130  C        -23.4990    1.0440   55.7840 C.2   141  SER141      0.2618
    131  O        -24.4090    1.6180   55.2150 O.2   141  SER141     -0.2717
    132  CB       -24.3700    0.4650   58.1090 C.3   141  SER141      0.2103
    133  OG       -23.5330    1.4470   58.6920 O.3   141  SER141     -0.2182
    134  N        -22.1980    1.3120   55.5330 N.am  142  ASN142     -0.1974
    135  CA       -21.7910    2.2280   54.4330 C.3   142  ASN142      0.1688
    136  C        -21.3100    1.5110   53.1620 C.2   142  ASN142      0.2292
    137  O        -20.6990    2.1530   52.2880 O.2   142  ASN142     -0.2864
    138  CB       -20.6990    3.2220   54.8960 C.3   142  ASN142      0.1181
    139  CG       -21.2160    4.2400   55.8730 C.2   142  ASN142      0.2629
    140  OD1      -22.3360    4.6620   55.7610 O.2   142  ASN142     -0.2716
    141  ND2      -20.3660    4.6950   56.7970 N.am  142  ASN142     -0.0877
    142  N        -22.8330   -0.5630   50.0470 N.3   144  LEU144     -0.1245
    143  CA       -24.1110   -0.8060   49.3620 C.3   144  LEU144      0.1561
    144  C        -23.8650   -1.5080   48.0340 C.2   144  LEU144      0.2260
    145  O        -22.8770   -1.2280   47.3400 O.2   144  LEU144     -0.2867
    146  CB       -24.8670    0.5010   49.1440 C.3   144  LEU144      0.0270
    147  CG       -25.7260    0.9650   50.3180 C.3   144  LEU144      0.0019
    148  CD1      -24.9240    1.3370   51.5660 C.3   144  LEU144      0.0001
    149  CD2      -26.6040    2.1330   49.9060 C.3   144  LEU144      0.0001
    150  N        -20.2580    4.3240   50.4560 N.3   156  VAL156     -0.1231
    151  CA       -20.9910    5.5570   50.4910 C.3   156  VAL156      0.1692
    152  C        -20.6440    6.4170   51.7330 C.2   156  VAL156      0.2592
    153  O        -19.9130    5.9860   52.6120 O.2   156  VAL156     -0.2718
    154  CB       -22.5260    5.2950   50.4160 C.3   156  VAL156      0.0266
    155  CG1      -22.8680    4.3780   49.2340 C.3   156  VAL156      0.0020
    156  CG2      -23.0820    4.7070   51.7280 C.3   156  VAL156      0.0020
    157  N        -21.1820    7.6300   51.7360 N.am  157  ASP157     -0.1974
    158  CA       -21.1070    8.5900   52.8180 C.3   157  ASP157      0.1709
    159  C        -19.7130    9.1620   53.0420 C.2   157  ASP157      0.2293
    160  O        -18.9720    8.6750   53.8830 O.2   157  ASP157     -0.2864
    161  CB       -21.6600    7.9960   54.1270 C.3   157  ASP157      0.1436
    162  CG       -21.9680    9.0650   55.1660 C.2   157  ASP157      0.3671
    163  OD1      -21.5520   10.2400   55.0060 O.co2 157  ASP157     -0.2456
    164  OD2      -22.6150    8.7030   56.1530 O.co2 157  ASP157     -0.2456
@<TRIPOS>BOND
     1    83    82   ar
     2    82    84   ar
     3    82    81    1
     4    81    78    1
     5    78    77    1
     6    78    79    1
     7    53    52    2
     8    64    65    2
     9    64    63    1
    10    77    71   am
    11    88    87    2
    12    72    71    2
    13    85    79   am
    14    85    86    1
    15    71    70    1
    16    94    93    1
    17    89    86    1
    18    89    90    1
    19    79    80    2
    20    52    51    1
    21    69    70    1
    22    70    73    1
    23    63    62    1
    24    63    66    1
    25    91    90    1
    26    91    92    1
    27    25    26    1
    28    86    87    1
    29    87    96   am
    30   104   102   ar
    31   104   106   ar
    32    93    92    2
    33    93    95    1
    34    62    68    1
    35    56    58   ar
    36    56    55   ar
    37    54    51    1
    38    54    55    1
    39    28    27    2
    40    51    50    1
    41    19    20    2
    42    19    18    1
    43   102   101   ar
    44   106   105   ar
    45    66    67    1
    46    75    76    1
    47    75    74    1
    48    58    60   ar
    49    96    97    1
    50    73    74    1
    51    55    57   ar
    52    26    27    1
    53    26    29    1
    54    21    18    1
    55    21    22    1
    56    97    98    1
    57    97   100    1
    58    23    22    1
    59    18    17    1
    60   101   100    1
    61   101   103   ar
    62    24    22    1
    63    68    67    1
    64   105   103   ar
    65    98   107   am
    66    98    99    2
    67   107   108    1
    68    30    29    1
    69    60    61    1
    70    60    59   ar
    71    29    31    1
    72    57    59   ar
    73   108   109    1
    74   145   144    2
    75   109   110    2
    76   144   143    1
    77    44    43    2
    78    32    33    1
    79    35    34    2
    80   146   143    1
    81   146   147    1
    82    43    42    1
    83   155   154    1
    84     8     6    1
    85   143   142    1
    86    33    34    1
    87    33    36    1
    88    37    36    1
    89    37    38    1
    90   149   147    1
    91     7     5    1
    92    15    13    1
    93    46    45    1
    94    46    47    1
    95   147   148    1
    96    38    39    1
    97   154   151    1
    98   154   156    1
    99   150   151    1
   100   151   152    1
   101    42    45    1
   102    42    41    1
   103     6     5    1
   104    39    40    1
   105    49    47   ar
   106    11    12    2
   107    11    10    1
   108    47    48   ar
   109     5     2    1
   110    10    13    1
   111    10     9    1
   112    13    14    1
   113   152   157   am
   114   152   153    2
   115   157   158    1
   116   111   112    1
   117     1     2    1
   118   137   136    2
   119    14    16    1
   120     2     3    1
   121   112   113    1
   122   112   115    1
   123   158   159    1
   124   158   161    1
   125   113   114    2
   126   159   160    2
   127   136   135    1
   128     3     4    2
   129   115   116    1
   130   127   126    1
   131   161   162    1
   132   135   138    1
   133   135   134    1
   134   117   116   ar
   135   116   118   ar
   136   126   125    1
   137   138   139    1
   138   125   124    1
   139   163   162   ar
   140   162   164   ar
   141   131   130    2
   142   134   130   am
   143   123   124    1
   144   123   120    1
   145   140   139    2
   146   130   129    1
   147   139   141   am
   148   121   120    1
   149   121   122    2
   150   120   119    1
   151   129   128    1
   152   129   132    1
   153   132   133    1
