@<TRIPOS>MOLECULE
tmp/6btxA01.pdb
 163 158 0 0 0
SMALL
GASTEIGER

@<TRIPOS>ATOM
      1  N        -39.5470  -29.7070   53.9880 N.3    51  LYS51      -0.1245
      2  CA       -38.6370  -29.2660   55.0410 C.3    51  LYS51       0.1561
      3  C        -37.9850  -30.4500   55.7440 C.2    51  LYS51       0.2260
      4  O        -36.7610  -30.4920   55.9150 O.2    51  LYS51      -0.2867
      5  CB       -39.3930  -28.3960   56.0470 C.3    51  LYS51       0.0271
      6  CG       -38.6610  -27.1290   56.4500 C.3    51  LYS51       0.0035
      7  CD       -38.5130  -26.1740   55.2760 C.3    51  LYS51       0.0206
      8  CE       -39.8440  -25.5380   54.9090 C.3    51  LYS51       0.1093
      9  NZ       -39.7060  -24.5200   53.8300 N.3    51  LYS51      -0.1314
     10  N        -33.0170  -14.6020   68.6230 N.3   201  TYR201     -0.1241
     11  CA       -32.9830  -14.6930   67.1660 C.3   201  TYR201      0.1605
     12  C        -33.8600  -15.8340   66.6660 C.2   201  TYR201      0.2264
     13  O        -34.5190  -15.7130   65.6260 O.2   201  TYR201     -0.2867
     14  CB       -31.5400  -14.8730   66.6870 C.3   201  TYR201      0.0534
     15  CG       -31.3990  -15.0030   65.1850 C.ar  201  TYR201     -0.0201
     16  CD1      -31.3480  -13.8810   64.3710 C.ar  201  TYR201     -0.0009
     17  CD2      -31.2960  -16.2530   64.5850 C.ar  201  TYR201     -0.0009
     18  CE1      -31.2170  -14.0000   62.9990 C.ar  201  TYR201      0.0417
     19  CE2      -31.1620  -16.3800   63.2150 C.ar  201  TYR201      0.0417
     20  CZ       -31.1240  -15.2510   62.4270 C.ar  201  TYR201      0.1957
     21  OH       -30.9910  -15.3710   61.0630 O.3   201  TYR201     -0.2866
     22  N        -37.8230  -15.3890   66.1360 N.3   204  LEU204     -0.1231
     23  CA       -38.2830  -14.6480   64.9690 C.3   204  LEU204      0.1693
     24  C        -38.5800  -15.5570   63.7830 C.2   204  LEU204      0.2592
     25  O        -39.3180  -15.1540   62.8770 O.2   204  LEU204     -0.2718
     26  CB       -37.2380  -13.5990   64.5860 C.3   204  LEU204      0.0284
     27  CG       -36.9090  -12.6080   65.7040 C.3   204  LEU204      0.0019
     28  CD1      -35.7880  -11.6700   65.2880 C.3   204  LEU204      0.0001
     29  CD2      -38.1500  -11.8260   66.1070 C.3   204  LEU204      0.0001
     30  N        -38.0290  -16.7700   63.7670 N.am  205  TRP205     -0.1976
     31  CA       -38.3140  -17.7310   62.7090 C.3   205  TRP205      0.1640
     32  C        -39.6800  -18.3870   62.8570 C.2   205  TRP205      0.2290
     33  O        -40.0670  -19.1750   61.9880 O.2   205  TRP205     -0.2864
     34  CB       -37.2250  -18.8070   62.6650 C.3   205  TRP205      0.0576
     35  CG       -35.9000  -18.3040   62.1770 C.ar  205  TRP205      0.0006
     36  CD1      -35.1510  -17.3060   62.7250 C.ar  205  TRP205      0.0946
     37  CD2      -35.1630  -18.7840   61.0450 C.ar  205  TRP205      0.0152
     38  NE1      -33.9970  -17.1290   62.0030 N.ar  205  TRP205     -0.2442
     39  CE2      -33.9790  -18.0250   60.9660 C.ar  205  TRP205      0.0810
     40  CE3      -35.3910  -19.7790   60.0890 C.ar  205  TRP205      0.0012
     41  CZ2      -33.0260  -18.2310   59.9710 C.ar  205  TRP205      0.0191
     42  CZ3      -34.4440  -19.9800   59.1020 C.ar  205  TRP205      0.0001
     43  CH2      -33.2760  -19.2100   59.0510 C.ar  205  TRP205      0.0015
     44  N        -42.3490  -16.3710   63.1120 N.3   207  SER207     -0.1202
     45  CA       -43.2490  -15.3670   62.5650 C.3   207  SER207      0.2020
     46  C        -43.5790  -15.6910   61.1150 C.2   207  SER207      0.2619
     47  O        -42.6810  -15.9120   60.2970 O.2   207  SER207     -0.2717
     48  CB       -42.6290  -13.9740   62.6680 C.3   207  SER207      0.2103
     49  OG       -41.3450  -13.9390   62.0690 O.3   207  SER207     -0.2182
     50  N        -44.8790  -15.7340   60.8050 N.am  208  VAL208     -0.1965
     51  CA       -45.3320  -15.8880   59.4250 C.3   208  VAL208      0.1727
     52  C        -45.3700  -14.5650   58.6840 C.2   208  VAL208      0.2616
     53  O        -45.7120  -14.5400   57.4940 O.2   208  VAL208     -0.2715
     54  CB       -46.7290  -16.5380   59.3790 C.3   208  VAL208      0.0290
     55  CG1      -46.7250  -17.8590   60.1310 C.3   208  VAL208      0.0023
     56  CG2      -47.7660  -15.5940   59.9660 C.3   208  VAL208      0.0023
     57  N        -45.0220  -13.4640   59.3480 N.am  209  LEU209     -0.1963
     58  CA       -45.1180  -12.1290   58.7580 C.3   209  LEU209      0.1728
     59  C        -43.8440  -11.8270   57.9670 C.2   209  LEU209      0.2616
     60  O        -43.0340  -10.9630   58.3110 O.2   209  LEU209     -0.2715
     61  CB       -45.3770  -11.0960   59.8460 C.3   209  LEU209      0.0311
     62  CG       -46.6000  -11.4370   60.7050 C.3   209  LEU209      0.0022
     63  CD1      -46.6410  -10.6100   61.9820 C.3   209  LEU209      0.0001
     64  CD2      -47.8880  -11.2690   59.9070 C.3   209  LEU209      0.0001
     65  N        -43.6820  -12.5760   56.8740 N.am  210  SER210     -0.1950
     66  CA       -42.5460  -12.4500   55.9820 C.3   210  SER210      0.1924
     67  C        -43.0190  -12.2070   54.5540 C.2   210  SER210      0.2314
     68  O        -43.9710  -12.8490   54.1000 O.2   210  SER210     -0.2863
     69  CB       -41.6720  -13.7150   56.0140 C.3   210  SER210      0.2116
     70  OG       -41.6120  -14.2660   57.3170 O.3   210  SER210     -0.2180
     71  N        -41.2220  -13.1040   52.1080 N.3   212  HIS212     -0.1226
     72  CA       -40.7360  -14.3140   51.4580 C.3   212  HIS212      0.1752
     73  C        -41.2790  -15.5800   52.1140 C.2   212  HIS212      0.2597
     74  O        -40.6800  -16.6520   51.9760 O.2   212  HIS212     -0.2718
     75  CB       -39.2040  -14.3220   51.4330 C.3   212  HIS212      0.0759
     76  CG       -38.5690  -14.5000   52.7780 C.ar  212  HIS212      0.0818
     77  ND1      -38.0150  -13.4510   53.4810 N.ar  212  HIS212     -0.2268
     78  CD2      -38.3800  -15.6030   53.5390 C.ar  212  HIS212      0.1154
     79  CE1      -37.5250  -13.8990   54.6220 C.ar  212  HIS212      0.1986
     80  NE2      -37.7330  -15.2020   54.6820 N.ar  212  HIS212     -0.2212
     81  N        -42.4110  -15.4780   52.8070 N.am  213  GLY213     -0.1942
     82  CA       -43.0110  -16.6110   53.4860 C.3   213  GLY213      0.2014
     83  C        -44.1220  -17.2290   52.6540 C.2   213  GLY213      0.2638
     84  O        -45.0340  -16.5340   52.2010 O.2   213  GLY213     -0.2714
     85  N        -44.0350  -18.5480   52.4760 N.am  214  VAL214     -0.1977
     86  CA       -44.9970  -19.2540   51.6350 C.3   214  VAL214      0.1596
     87  C        -46.3820  -19.2640   52.2670 C.2   214  VAL214      0.2287
     88  O        -47.3940  -19.3130   51.5550 O.2   214  VAL214     -0.2864
     89  CB       -44.5000  -20.6830   51.3520 C.3   214  VAL214      0.0276
     90  CG1      -43.2720  -20.6480   50.4590 C.3   214  VAL214      0.0022
     91  CG2      -44.1880  -21.3950   52.6540 C.3   214  VAL214      0.0022
     92  N        -38.8130   -3.6640   64.6040 N.3   269  GLN269     -0.1245
     93  CA       -39.5670   -4.7500   63.9860 C.3   269  GLN269      0.1566
     94  C        -40.8360   -5.0530   64.7710 C.2   269  GLN269      0.2260
     95  O        -41.9140   -5.2190   64.1890 O.2   269  GLN269     -0.2867
     96  CB       -38.6990   -6.0040   63.8710 C.3   269  GLN269      0.0367
     97  CG       -39.4640   -7.2100   63.3460 C.3   269  GLN269      0.0905
     98  CD       -38.6450   -8.4860   63.3520 C.2   269  GLN269      0.2608
     99  OE1      -39.0030   -9.4650   62.7000 O.2   269  GLN269     -0.2717
    100  NE2      -37.5390   -8.4810   64.0860 N.am  269  GLN269     -0.0878
    101  N        -38.9450   -5.2640   57.9290 N.3   299  ARG299     -0.1245
    102  CA       -37.7750   -5.9800   57.4280 C.3   299  ARG299      0.1563
    103  C        -36.4870   -5.2800   57.8430 C.2   299  ARG299      0.2260
    104  O        -35.4810   -5.9370   58.1370 O.2   299  ARG299     -0.2867
    105  CB       -37.8420   -6.1120   55.9040 C.3   299  ARG299      0.0307
    106  CG       -39.1490   -6.6660   55.3580 C.3   299  ARG299      0.0489
    107  CD       -39.7140   -7.7900   56.2130 C.3   299  ARG299      0.2205
    108  NE       -38.9760   -9.0390   56.0680 N.pl3 299  ARG299     -0.0865
    109  CZ       -39.0770  -10.0630   56.9070 C.cat 299  ARG299      0.5346
    110  NH1      -39.8820   -9.9840   57.9590 N.pl3 299  ARG299      0.1354
    111  NH2      -38.3760  -11.1680   56.6950 N.pl3 299  ARG299      0.1354
    112  N        -35.8120   -6.4550   61.3760 N.3   302  LEU302     -0.1231
    113  CA       -35.4060   -7.8550   61.4560 C.3   302  LEU302      0.1693
    114  C        -33.9820   -8.0440   60.9470 C.2   302  LEU302      0.2592
    115  O        -33.1360   -8.6280   61.6340 O.2   302  LEU302     -0.2718
    116  CB       -36.3770   -8.7290   60.6650 C.3   302  LEU302      0.0284
    117  CG       -35.8950  -10.1600   60.4130 C.3   302  LEU302      0.0019
    118  CD1      -35.6300  -10.8870   61.7230 C.3   302  LEU302      0.0001
    119  CD2      -36.8950  -10.9220   59.5700 C.3   302  LEU302      0.0001
    120  N        -33.7020   -7.5620   59.7340 N.am  303  TYR303     -0.1976
    121  CA       -32.3610   -7.7090   59.1820 C.3   303  TYR303      0.1639
    122  C        -31.3360   -6.9300   59.9930 C.2   303  TYR303      0.2290
    123  O        -30.1730   -7.3410   60.0820 O.2   303  TYR303     -0.2864
    124  CB       -32.3460   -7.2700   57.7180 C.3   303  TYR303      0.0560
    125  CG       -32.9470   -8.3000   56.7900 C.ar  303  TYR303     -0.0198
    126  CD1      -32.2690   -9.4760   56.5010 C.ar  303  TYR303     -0.0009
    127  CD2      -34.1960   -8.1050   56.2180 C.ar  303  TYR303     -0.0009
    128  CE1      -32.8140  -10.4260   55.6610 C.ar  303  TYR303      0.0417
    129  CE2      -34.7490   -9.0490   55.3750 C.ar  303  TYR303      0.0417
    130  CZ       -34.0540  -10.2080   55.1010 C.ar  303  TYR303      0.1957
    131  OH       -34.5960  -11.1540   54.2630 O.3   303  TYR303     -0.2866
    132  N        -30.5970   -9.2880   62.9390 N.3   306  SER306     -0.1217
    133  CA       -29.8570  -10.4800   62.5330 C.3   306  SER306      0.1889
    134  C        -28.3830  -10.1690   62.3130 C.2   306  SER306      0.2288
    135  O        -27.5160  -10.9870   62.6340 O.2   306  SER306     -0.2866
    136  CB       -30.4700  -11.0780   61.2680 C.3   306  SER306      0.2089
    137  OG       -30.4880  -10.1270   60.2200 O.3   306  SER306     -0.2183
    138  N        -39.1150  -23.3220   62.4210 N.3   337  THR337     -0.1218
    139  CA       -39.8550  -23.5270   61.1800 C.3   337  THR337      0.1862
    140  C        -40.5480  -24.8820   61.1610 C.2   337  THR337      0.2287
    141  O        -41.6160  -25.0180   60.5520 O.2   337  THR337     -0.2866
    142  CB       -38.9260  -23.3880   59.9740 C.3   337  THR337      0.1770
    143  OG1      -38.1150  -24.5620   59.8530 O.3   337  THR337     -0.2211
    144  CG2      -38.0290  -22.1690   60.1270 C.3   337  THR337      0.0375
    145  N        -43.4540  -24.0960   63.0660 N.3   340  LEU340     -0.1231
    146  CA       -44.2390  -23.2060   62.2150 C.3   340  LEU340      0.1693
    147  C        -45.0720  -23.9970   61.2140 C.2   340  LEU340      0.2592
    148  O        -46.2930  -23.8210   61.1250 O.2   340  LEU340     -0.2718
    149  CB       -43.3040  -22.2260   61.4950 C.3   340  LEU340      0.0284
    150  CG       -43.7950  -21.0060   60.6950 C.3   340  LEU340      0.0019
    151  CD1      -42.5980  -20.1700   60.2740 C.3   340  LEU340      0.0001
    152  CD2      -44.6120  -21.3640   59.4610 C.3   340  LEU340      0.0001
    153  N        -44.4250  -24.8770   60.4520 N.am  341  PHE341     -0.1976
    154  CA       -45.1230  -25.6050   59.4020 C.3   341  PHE341      0.1639
    155  C        -45.9450  -26.7640   59.9440 C.2   341  PHE341      0.2290
    156  O        -46.9050  -27.1840   59.2890 O.2   341  PHE341     -0.2864
    157  CB       -44.1180  -26.1050   58.3620 C.3   341  PHE341      0.0560
    158  CG       -43.7630  -25.0740   57.3280 C.ar  341  PHE341     -0.0200
    159  CD1      -44.6150  -24.8050   56.2720 C.ar  341  PHE341     -0.0042
    160  CD2      -42.5810  -24.3610   57.4260 C.ar  341  PHE341     -0.0042
    161  CE1      -44.2880  -23.8540   55.3310 C.ar  341  PHE341     -0.0003
    162  CE2      -42.2520  -23.4090   56.4850 C.ar  341  PHE341     -0.0003
    163  CZ       -43.1060  -23.1570   55.4390 C.ar  341  PHE341     -0.0000
@<TRIPOS>BOND
     1    90    89    1
     2    89    86    1
     3    89    91    1
     4    75    72    1
     5    75    76    1
     6    72    71    1
     7    72    73    1
     8    88    87    2
     9    86    87    1
    10    86    85    1
    11    74    73    2
    12    73    81   am
    13    84    83    2
    14    85    83   am
    15    83    82    1
    16    76    77   ar
    17    76    78   ar
    18    81    82    1
    19    77    79   ar
    20    78    80   ar
    21     9     8    1
    22     1     2    1
    23    68    67    2
    24   131   130    1
    25    67    66    1
    26    79    80   ar
    27     8     7    1
    28     2     3    1
    29     2     5    1
    30   130   129   ar
    31   130   128   ar
    32     7     6    1
    33   161   163   ar
    34   161   159   ar
    35   106   105    1
    36   106   107    1
    37   129   127   ar
    38   163   162   ar
    39   128   126   ar
    40     3     4    2
    41   105   102    1
    42    66    69    1
    43    66    65    1
    44    69    70    1
    45     5     6    1
    46   108   107    1
    47   108   109    2
    48   127   125   ar
    49   159   158   ar
    50   162   160   ar
    51   126   125   ar
    52   111   109    1
    53   125   124    1
    54    65    59   am
    55   109   110    1
    56   158   160   ar
    57   158   157    1
    58   102   103    1
    59   102   101    1
    60    53    52    2
    61   124   121    1
    62   103   104    2
    63    59    60    2
    64    59    58    1
    65   157   154    1
    66    52    57   am
    67    52    51    1
    68    58    57    1
    69    58    61    1
    70    43    42   ar
    71    43    41   ar
    72    42    40   ar
    73   121   120    1
    74   121   122    1
    75   156   155    2
    76    54    51    1
    77    54    56    1
    78    54    55    1
    79   154   155    1
    80   154   153    1
    81    51    50    1
    82   152   150    1
    83   119   117    1
    84   120   114   am
    85    61    62    1
    86   143   142    1
    87    64    62    1
    88    41    39   ar
    89   142   144    1
    90   142   139    1
    91   122   123    2
    92    40    37   ar
    93   137   136    1
    94   151   150    1
    95    47    46    2
    96   117   116    1
    97   117   118    1
    98   153   147   am
    99   141   140    2
   100   116   113    1
   101   150   149    1
   102    62    63    1
   103    50    46   am
   104   114   113    1
   105   114   115    2
   106    39    37   ar
   107    39    38   ar
   108    37    35   ar
   109    21    20    1
   110    46    45    1
   111   148   147    2
   112   140   139    1
   113   139   138    1
   114   147   146    1
   115   136   133    1
   116   112   113    1
   117   149   146    1
   118    33    32    2
   119    38    36   ar
   120    49    48    1
   121    35    34    1
   122    35    36   ar
   123   146   145    1
   124   134   133    1
   125   134   135    2
   126    20    18   ar
   127    20    19   ar
   128   133   132    1
   129    45    48    1
   130    45    44    1
   131    34    31    1
   132    99    98    2
   133    31    32    1
   134    31    30    1
   135    25    24    2
   136    18    16   ar
   137    19    17   ar
   138    97    98    1
   139    97    96    1
   140    98   100   am
   141    30    24   am
   142    24    23    1
   143    96    93    1
   144    93    92    1
   145    93    94    1
   146    95    94    2
   147    16    15   ar
   148    17    15   ar
   149    26    23    1
   150    26    27    1
   151    23    22    1
   152    15    14    1
   153    28    27    1
   154    13    12    2
   155    27    29    1
   156    12    11    1
   157    14    11    1
   158    11    10    1
