@<TRIPOS>MOLECULE
tmp/6btxA00.pdb
 134 125 0 0 0
SMALL
GASTEIGER

@<TRIPOS>ATOM
      1  N        -34.0350  -30.4410   37.0530 N.3    68  PHE68      -0.1241
      2  CA       -34.7260  -30.7990   35.8190 C.3    68  PHE68       0.1605
      3  C        -35.7560  -31.8950   36.0650 C.2    68  PHE68       0.2264
      4  O        -36.9400  -31.7390   35.7420 O.2    68  PHE68      -0.2867
      5  CB       -33.7170  -31.2380   34.7580 C.3    68  PHE68       0.0534
      6  CG       -34.3230  -31.4480   33.4010 C.ar   68  PHE68      -0.0203
      7  CD1      -34.5180  -30.3800   32.5430 C.ar   68  PHE68      -0.0042
      8  CD2      -34.7040  -32.7120   32.9850 C.ar   68  PHE68      -0.0042
      9  CE1      -35.0770  -30.5690   31.2930 C.ar   68  PHE68      -0.0003
     10  CE2      -35.2640  -32.9070   31.7380 C.ar   68  PHE68      -0.0003
     11  CZ       -35.4510  -31.8320   30.8910 C.ar   68  PHE68      -0.0000
     12  N        -39.7810  -31.4150   36.1120 N.3    72  LEU72      -0.1245
     13  CA       -40.4870  -32.2980   35.1880 C.3    72  LEU72       0.1561
     14  C        -41.5430  -33.1200   35.9160 C.2    72  LEU72       0.2260
     15  O        -42.7010  -33.1820   35.4890 O.2    72  LEU72      -0.2867
     16  CB       -39.4940  -33.2120   34.4730 C.3    72  LEU72       0.0270
     17  CG       -40.0670  -34.0830   33.3530 C.3    72  LEU72       0.0019
     18  CD1      -40.5300  -33.2350   32.1800 C.3    72  LEU72       0.0001
     19  CD2      -39.0400  -35.1040   32.9020 C.3    72  LEU72       0.0001
     20  N        -44.5760  -30.9210   37.1590 N.3    75  MET75      -0.1230
     21  CA       -45.5760  -30.5640   36.1580 C.3    75  MET75       0.1702
     22  C        -46.4960  -31.7380   35.8460 C.2    75  MET75       0.2592
     23  O        -47.7150  -31.5640   35.7300 O.2    75  MET75      -0.2718
     24  CB       -44.8880  -30.0670   34.8870 C.3    75  MET75       0.0401
     25  CG       -43.9640  -28.8830   35.1140 C.3    75  MET75       0.0596
     26  SD       -43.5570  -28.0170   33.5930 S.3    75  MET75      -0.1393
     27  CE       -42.9090  -29.3630   32.6100 C.3    75  MET75       0.0692
     28  N        -45.9340  -32.9390   35.7100 N.am   76  VAL76      -0.1980
     29  CA       -46.7570  -34.1130   35.4380 C.3    76  VAL76       0.1595
     30  C        -47.6650  -34.4170   36.6230 C.2    76  VAL76       0.2287
     31  O        -48.8460  -34.7430   36.4500 O.2    76  VAL76      -0.2864
     32  CB       -45.8650  -35.3160   35.0770 C.3    76  VAL76       0.0276
     33  CG1      -46.6640  -36.6090   35.1130 C.3    76  VAL76       0.0022
     34  CG2      -45.2350  -35.1140   33.7050 C.3    76  VAL76       0.0022
     35  N        -50.4080  -31.6410   37.0970 N.3    79  GLY79      -0.1225
     36  CA       -51.4920  -31.8290   36.1460 C.3    79  GLY79       0.1811
     37  C        -52.4170  -32.9610   36.5450 C.2    79  GLY79       0.2280
     38  O        -53.6430  -32.8260   36.4940 O.2    79  GLY79      -0.2866
     39  N        -54.4340  -31.8580   39.4590 N.3    82  ASP82      -0.1225
     40  CA       -55.4990  -30.9500   39.0490 C.3    82  ASP82       0.1805
     41  C        -56.6730  -31.7190   38.4580 C.2    82  ASP82       0.2598
     42  O        -57.8220  -31.5350   38.8730 O.2    82  ASP82      -0.2718
     43  CB       -54.9600  -29.9330   38.0430 C.3    82  ASP82       0.1424
     44  CG       -55.8860  -28.7460   37.8580 C.2    82  ASP82       0.3668
     45  OD1      -56.3230  -28.1600   38.8720 O.co2  82  ASP82      -0.2456
     46  OD2      -56.1770  -28.3970   36.6950 O.co2  82  ASP82      -0.2456
     47  N        -56.3990  -32.5990   37.4930 N.am   83  GLY83      -0.1957
     48  CA       -57.4770  -33.3040   36.8180 C.3    83  GLY83       0.1869
     49  C        -58.2510  -34.2360   37.7320 C.2    83  GLY83       0.2309
     50  O        -59.4680  -34.3800   37.6000 O.2    83  GLY83      -0.2863
     51  N        -60.5210  -32.3120   40.2570 N.3    86  ARG86      -0.1245
     52  CA       -61.6260  -31.7060   39.5250 C.3    86  ARG86       0.1563
     53  C        -62.6830  -32.7230   39.1050 C.2    86  ARG86       0.2260
     54  O        -63.7840  -32.3220   38.7180 O.2    86  ARG86      -0.2867
     55  CB       -61.0960  -30.9690   38.2960 C.3    86  ARG86       0.0307
     56  CG       -60.3100  -29.7070   38.6210 C.3    86  ARG86       0.0489
     57  CD       -60.2710  -28.7540   37.4410 C.3    86  ARG86       0.2205
     58  NE       -59.8880  -29.4240   36.2060 N.pl3  86  ARG86      -0.0865
     59  CZ       -59.4150  -28.7900   35.1420 C.cat  86  ARG86       0.5346
     60  NH1      -59.2620  -27.4720   35.1690 N.pl3  86  ARG86       0.1354
     61  NH2      -59.0900  -29.4720   34.0540 N.pl3  86  ARG86       0.1354
     62  N        -57.9100  -21.7680   32.6130 N.3   161  LEU161     -0.1245
     63  CA       -56.6530  -22.4060   33.0030 C.3   161  LEU161      0.1561
     64  C        -55.9840  -21.5780   34.0910 C.2   161  LEU161      0.2260
     65  O        -55.1520  -20.7090   33.7990 O.2   161  LEU161     -0.2867
     66  CB       -55.7170  -22.5800   31.8070 C.3   161  LEU161      0.0270
     67  CG       -56.0500  -23.5650   30.6810 C.3   161  LEU161      0.0019
     68  CD1      -57.1390  -23.0360   29.7580 C.3   161  LEU161      0.0001
     69  CD2      -54.7940  -23.9070   29.8870 C.3   161  LEU161      0.0001
     70  N        -53.8330  -22.7730   36.4030 N.3   163  LEU163     -0.1231
     71  CA       -52.4570  -23.2490   36.4710 C.3   163  LEU163      0.1693
     72  C        -51.6910  -23.0640   35.1670 C.2   163  LEU163      0.2591
     73  O        -50.6040  -23.6350   35.0270 O.2   163  LEU163     -0.2718
     74  CB       -52.4260  -24.7270   36.8720 C.3   163  LEU163      0.0284
     75  CG       -52.9940  -25.0860   38.2450 C.3   163  LEU163      0.0019
     76  CD1      -52.6060  -26.5040   38.6270 C.3   163  LEU163      0.0001
     77  CD2      -52.5070  -24.0960   39.2850 C.3   163  LEU163      0.0001
     78  N        -52.2230  -22.2880   34.2190 N.am  164  ALA164     -0.1980
     79  CA       -51.5230  -22.0730   32.9570 C.3   164  ALA164      0.1597
     80  C        -50.1480  -21.4560   33.1720 C.2   164  ALA164      0.2287
     81  O        -49.2040  -21.7670   32.4350 O.2   164  ALA164     -0.2864
     82  CB       -52.3660  -21.1890   32.0390 C.3   164  ALA164      0.0319
     83  N        -47.0770  -24.0910   34.4530 N.3   167  PHE167     -0.1241
     84  CA       -46.3400  -24.8540   33.4530 C.3   167  PHE167      0.1605
     85  C        -45.4230  -23.9610   32.6290 C.2   167  PHE167      0.2264
     86  O        -44.3530  -24.4070   32.2020 O.2   167  PHE167     -0.2867
     87  CB       -47.3200  -25.6120   32.5600 C.3   167  PHE167      0.0534
     88  CG       -48.3350  -26.4030   33.3300 C.ar  167  PHE167     -0.0203
     89  CD1      -47.9430  -27.4740   34.1150 C.ar  167  PHE167     -0.0042
     90  CD2      -49.6760  -26.0680   33.2840 C.ar  167  PHE167     -0.0042
     91  CE1      -48.8700  -28.2020   34.8340 C.ar  167  PHE167     -0.0003
     92  CE2      -50.6080  -26.7920   34.0030 C.ar  167  PHE167     -0.0003
     93  CZ       -50.2040  -27.8610   34.7770 C.ar  167  PHE167     -0.0000
     94  N        -41.7880  -24.8730   32.2870 N.3   171  LEU171     -0.1245
     95  CA       -41.1970  -24.9630   30.9570 C.3   171  LEU171      0.1561
     96  C        -39.9850  -24.0470   30.8420 C.2   171  LEU171      0.2260
     97  O        -38.9820  -24.4020   30.2110 O.2   171  LEU171     -0.2867
     98  CB       -42.2440  -24.6160   29.8990 C.3   171  LEU171      0.0270
     99  CG       -42.2720  -25.5130   28.6630 C.3   171  LEU171      0.0019
    100  CD1      -42.5030  -26.9640   29.0650 C.3   171  LEU171      0.0001
    101  CD2      -43.3370  -25.0490   27.6830 C.3   171  LEU171      0.0001
    102  N        -37.2650  -25.9260   32.5420 N.3   174  LEU174     -0.1231
    103  CA       -36.7510  -27.0320   31.7380 C.3   174  LEU174      0.1693
    104  C        -35.9010  -26.5410   30.5720 C.2   174  LEU174      0.2591
    105  O        -34.8240  -27.0910   30.3140 O.2   174  LEU174     -0.2718
    106  CB       -37.9030  -27.8890   31.2130 C.3   174  LEU174      0.0284
    107  CG       -38.3160  -29.1250   32.0090 C.3   174  LEU174      0.0019
    108  CD1      -38.6390  -28.7760   33.4480 C.3   174  LEU174      0.0001
    109  CD2      -39.4990  -29.7990   31.3410 C.3   174  LEU174      0.0001
    110  N        -36.3750  -25.5240   29.8480 N.am  175  VAL175     -0.1980
    111  CA       -35.6220  -25.0070   28.7090 C.3   175  VAL175      0.1595
    112  C        -34.3300  -24.3460   29.1700 C.2   175  VAL175      0.2287
    113  O        -33.3010  -24.4340   28.4870 O.2   175  VAL175     -0.2864
    114  CB       -36.4960  -24.0390   27.8890 C.3   175  VAL175      0.0276
    115  CG1      -35.6840  -23.3670   26.7960 C.3   175  VAL175      0.0022
    116  CG2      -37.6870  -24.7790   27.2900 C.3   175  VAL175      0.0022
    117  N        -32.4870  -25.3610   31.4570 N.3   177  PHE177     -0.1227
    118  CA       -31.5350  -26.3900   31.8670 C.3   177  PHE177      0.1736
    119  C        -30.3970  -26.5280   30.8650 C.2   177  PHE177      0.2595
    120  O        -29.2460  -26.7640   31.2510 O.2   177  PHE177     -0.2718
    121  CB       -32.2540  -27.7290   32.0450 C.3   177  PHE177      0.0547
    122  CG       -31.3460  -28.9260   31.9650 C.ar  177  PHE177     -0.0202
    123  CD1      -30.5200  -29.2600   33.0250 C.ar  177  PHE177     -0.0042
    124  CD2      -31.3240  -29.7230   30.8300 C.ar  177  PHE177     -0.0042
    125  CE1      -29.6850  -30.3640   32.9540 C.ar  177  PHE177     -0.0003
    126  CE2      -30.4920  -30.8270   30.7540 C.ar  177  PHE177     -0.0003
    127  CZ       -29.6720  -31.1470   31.8190 C.ar  177  PHE177     -0.0000
    128  N        -30.6980  -26.3920   29.5730 N.am  178  VAL178     -0.1980
    129  CA       -29.6480  -26.4900   28.5580 C.3   178  VAL178      0.1595
    130  C        -28.6280  -25.3610   28.6980 C.2   178  VAL178      0.2287
    131  O        -27.4220  -25.6400   28.6390 O.2   178  VAL178     -0.2864
    132  CB       -30.2670  -26.5730   27.1550 C.3   178  VAL178      0.0276
    133  CG1      -29.1760  -26.6180   26.0930 C.3   178  VAL178      0.0022
    134  CG2      -31.1810  -27.7840   27.0440 C.3   178  VAL178      0.0022
@<TRIPOS>BOND
     1   133   132    1
     2   115   114    1
     3   134   132    1
     4   132   129    1
     5   116   114    1
     6   101    99    1
     7   114   111    1
     8   113   112    2
     9   129   130    1
    10   129   128    1
    11   131   130    2
    12    99   100    1
    13    99    98    1
    14   111   112    1
    15   111   110    1
    16   128   119   am
    17    68    67    1
    18   110   104   am
    19    69    67    1
    20    98    95    1
    21    97    96    2
    22   105   104    2
    23   104   103    1
    24    67    66    1
    25   126   124   ar
    26   126   127   ar
    27   124   122   ar
    28    96    95    1
    29   119   120    2
    30   119   118    1
    31    11     9   ar
    32    11    10   ar
    33    95    94    1
    34   106   103    1
    35   106   107    1
    36     9     7   ar
    37   109   107    1
    38   117   118    1
    39   103   102    1
    40    10     8   ar
    41    66    63    1
    42   127   125   ar
    43   118   121    1
    44   122   121    1
    45   122   123   ar
    46   107   108    1
    47    82    79    1
    48    18    17    1
    49    86    85    2
    50    81    80    2
    51     7     6   ar
    52    87    88    1
    53    87    84    1
    54    27    26    1
    55    62    63    1
    56    85    84    1
    57    19    17    1
    58   125   123   ar
    59    79    80    1
    60    79    78    1
    61     8     6   ar
    62    63    64    1
    63    90    88   ar
    64    90    92   ar
    65    88    89   ar
    66    17    16    1
    67     6     5    1
    68    84    83    1
    69    26    25    1
    70    34    32    1
    71    65    64    2
    72    92    93   ar
    73    61    59    1
    74    89    91   ar
    75    78    72   am
    76    16    13    1
    77     5     2    1
    78    93    91   ar
    79    24    25    1
    80    24    21    1
    81    73    72    2
    82    32    33    1
    83    32    29    1
    84    59    60    1
    85    59    58    2
    86    72    71    1
    87    13    14    1
    88    13    12    1
    89    29    28    1
    90    29    30    1
    91    15    14    2
    92    28    22   am
    93    23    22    2
    94     4     3    2
    95     2     3    1
    96     2     1    1
    97    22    21    1
    98    36    37    1
    99    36    35    1
   100    21    20    1
   101    58    57    1
   102    70    71    1
   103    31    30    2
   104    71    74    1
   105    38    37    2
   106    46    44   ar
   107    48    47    1
   108    48    49    1
   109    74    75    1
   110    57    56    1
   111    47    41   am
   112    50    49    2
   113    44    43    1
   114    44    45   ar
   115    43    40    1
   116    75    76    1
   117    75    77    1
   118    55    56    1
   119    55    52    1
   120    41    42    2
   121    41    40    1
   122    54    53    2
   123    40    39    1
   124    53    52    1
   125    52    51    1
