@<TRIPOS>MOLECULE
tmp/6btyB00.pdb
 93 93 0 0 0
SMALL
GASTEIGER

@<TRIPOS>ATOM
      1  N        -13.3000   24.2010    4.7210 N.3   108  LEU108     -0.1231
      2  CA       -13.8280   24.6770    5.9920 C.3   108  LEU108      0.1678
      3  C        -13.2970   26.0560    6.3600 C.2   108  LEU108      0.2434
      4  O        -12.1490   26.1830    6.7450 O.2   108  LEU108     -0.2733
      5  CB       -13.4690   23.7010    7.1120 C.3   108  LEU108      0.0284
      6  CG       -13.9600   22.2670    6.9520 C.3   108  LEU108      0.0019
      7  CD1      -13.3690   21.3590    8.0440 C.3   108  LEU108      0.0001
      8  CD2      -15.4900   22.2520    6.9690 C.3   108  LEU108      0.0001
      9  N        -14.1260   27.1010    6.2440 N.am  109  PRO109     -0.2729
     10  CA       -13.6960   28.3880    6.8070 C.3   109  PRO109      0.1401
     11  C        -13.4810   28.2980    8.3220 C.2   109  PRO109      0.2269
     12  O        -14.3710   27.8650    9.0590 O.2   109  PRO109     -0.2865
     13  CB       -14.8590   29.3250    6.4720 C.3   109  PRO109      0.0296
     14  CG       -15.4870   28.7190    5.2600 C.3   109  PRO109      0.0237
     15  CD       -15.3420   27.2320    5.4200 C.3   109  PRO109      0.0939
     16  N        -15.6850   29.7930   11.5220 N.3   112  ASP112     -0.1225
     17  CA       -16.8900   29.1630   12.0500 C.3   112  ASP112      0.1805
     18  C        -16.5950   28.3290   13.2900 C.2   112  ASP112      0.2598
     19  O        -17.5080   27.7990   13.9310 O.2   112  ASP112     -0.2718
     20  CB       -17.5450   28.2980   10.9680 C.3   112  ASP112      0.1424
     21  CG       -17.9740   29.1080    9.7480 C.2   112  ASP112      0.3668
     22  OD1      -18.3700   30.2830    9.9180 O.co2 112  ASP112     -0.2456
     23  OD2      -17.9160   28.5730    8.6190 O.co2 112  ASP112     -0.2456
     24  N        -15.3170   28.2160   13.6360 N.am  113  PHE113     -0.1962
     25  CA       -14.9220   27.4200   14.7890 C.3   113  PHE113      0.1771
     26  C        -14.7230   28.2460   16.0450 C.2   113  PHE113      0.2619
     27  O        -14.2370   29.3800   15.9980 O.2   113  PHE113     -0.2715
     28  CB       -13.6350   26.6510   14.4930 C.3   113  PHE113      0.0574
     29  CG       -13.8110   25.5430   13.5090 C.ar  113  PHE113     -0.0200
     30  CD1      -13.8080   25.8000   12.1500 C.ar  113  PHE113     -0.0042
     31  CD2      -13.9860   24.2370   13.9440 C.ar  113  PHE113     -0.0042
     32  CE1      -13.9730   24.7810   11.2410 C.ar  113  PHE113     -0.0003
     33  CE2      -14.1540   23.2120   13.0360 C.ar  113  PHE113     -0.0003
     34  CZ       -14.1420   23.4800   11.6870 C.ar  113  PHE113     -0.0000
     35  N        -15.0960   27.6680   17.1780 N.am  114  ASN114     -0.1972
     36  CA       -14.7020   28.2410   18.4440 C.3   114  ASN114      0.1688
     37  C        -13.3090   27.7330   18.7610 C.2   114  ASN114      0.2292
     38  O        -13.1450   26.6100   19.2310 O.2   114  ASN114     -0.2864
     39  CB       -15.6760   27.8760   19.5570 C.3   114  ASN114      0.1181
     40  CG       -15.2480   28.4220   20.9030 C.2   114  ASN114      0.2629
     41  OD1      -14.3620   29.2740   20.9940 O.2   114  ASN114     -0.2716
     42  ND2      -15.8740   27.9310   21.9590 N.am  114  ASN114     -0.0877
     43  N        -12.1390   25.9180   22.0190 N.3   117  LYS117     -0.1245
     44  CA       -12.5370   24.5510   22.3410 C.3   117  LYS117      0.1561
     45  C        -12.0540   23.5560   21.2820 C.2   117  LYS117      0.2260
     46  O        -11.5200   23.9490   20.2460 O.2   117  LYS117     -0.2867
     47  CB       -14.0580   24.4570   22.5100 C.3   117  LYS117      0.0271
     48  CG       -14.8370   24.1090   21.2520 C.3   117  LYS117      0.0035
     49  CD       -16.3310   24.1070   21.5410 C.3   117  LYS117      0.0206
     50  CE       -17.1340   24.5950   20.3510 C.3   117  LYS117      0.1093
     51  NZ       -17.4060   23.4820   19.4030 N.3   117  LYS117     -0.1314
     52  N        -13.2460   21.0240   18.5560 N.3   119  THR119     -0.1218
     53  CA       -14.4290   20.6790   17.7720 C.3   119  THR119      0.1862
     54  C        -14.2260   19.3510   17.0690 C.2   119  THR119      0.2287
     55  O        -13.3420   19.2290   16.2320 O.2   119  THR119     -0.2866
     56  CB       -14.7440   21.7650   16.7400 C.3   119  THR119      0.1770
     57  OG1      -15.0200   22.9930   17.4260 O.3   119  THR119     -0.2211
     58  CG2      -15.9570   21.3710   15.9010 C.3   119  THR119      0.0375
     59  N        -16.1470   16.4220   14.7770 N.3   121  LYS121     -0.1231
     60  CA       -17.3200   15.9780   14.0240 C.3   121  LYS121      0.1693
     61  C        -16.9820   15.4490   12.6390 C.2   121  LYS121      0.2592
     62  O        -15.8290   15.4740   12.2000 O.2   121  LYS121     -0.2718
     63  CB       -18.3470   17.1030   13.8920 C.3   121  LYS121      0.0285
     64  CG       -17.9210   18.2680   13.0420 C.3   121  LYS121      0.0035
     65  CD       -19.0120   19.3350   13.1110 C.3   121  LYS121      0.0206
     66  CE       -18.7200   20.5290   12.2400 C.3   121  LYS121      0.1093
     67  NZ       -19.8490   21.4980   12.2940 N.3   121  LYS121     -0.1314
     68  N        -18.0130   14.9440   11.9730 N.am  122  TRP122     -0.1962
     69  CA       -17.8850   14.3810   10.6410 C.3   122  TRP122      0.1771
     70  C        -18.1840   15.4250    9.5720 C.2   122  TRP122      0.2619
     71  O        -19.0280   16.3050    9.7650 O.2   122  TRP122     -0.2715
     72  CB       -18.8270   13.1880   10.4770 C.3   122  TRP122      0.0590
     73  CG       -18.4310   11.9980   11.2490 C.ar  122  TRP122      0.0006
     74  CD1      -18.7870   11.7010   12.5310 C.ar  122  TRP122      0.0946
     75  CD2      -17.6150   10.9150   10.7960 C.ar  122  TRP122      0.0152
     76  NE1      -18.2340   10.5090   12.9100 N.ar  122  TRP122     -0.2442
     77  CE2      -17.5070   10.0040   11.8640 C.ar  122  TRP122      0.0810
     78  CE3      -16.9480   10.6370    9.5950 C.ar  122  TRP122      0.0012
     79  CZ2      -16.7710    8.8300   11.7730 C.ar  122  TRP122      0.0191
     80  CZ3      -16.2100    9.4730    9.5050 C.ar  122  TRP122      0.0001
     81  CH2      -16.1270    8.5820   10.5930 C.ar  122  TRP122      0.0015
     82  N        -17.4720   15.3250    8.4530 N.am  123  TYR123     -0.1974
     83  CA       -17.6640   16.1970    7.3070 C.3   123  TYR123      0.1639
     84  C        -17.8830   15.3770    6.0380 C.2   123  TYR123      0.2290
     85  O        -17.2140   14.3710    5.7980 O.2   123  TYR123     -0.2864
     86  CB       -16.4630   17.1300    7.1190 C.3   123  TYR123      0.0560
     87  CG       -16.1920   17.9950    8.3220 C.ar  123  TYR123     -0.0198
     88  CD1      -15.4000   17.5340    9.3680 C.ar  123  TYR123     -0.0009
     89  CD2      -16.7310   19.2690    8.4160 C.ar  123  TYR123     -0.0009
     90  CE1      -15.1580   18.3230   10.4740 C.ar  123  TYR123      0.0417
     91  CE2      -16.4860   20.0690    9.5090 C.ar  123  TYR123      0.0417
     92  CZ       -15.6990   19.5970   10.5330 C.ar  123  TYR123      0.1957
     93  OH       -15.4710   20.3890   11.6310 O.3   123  TYR123     -0.2866
@<TRIPOS>BOND
     1     1     2    1
     2    14    15    1
     3    14    13    1
     4    15     9    1
     5    85    84    2
     6     2     3    1
     7     2     5    1
     8    84    83    1
     9     9     3   am
    10     9    10    1
    11     3     4    2
    12    13    10    1
    13    10    11    1
    14     6     8    1
    15     6     5    1
    16     6     7    1
    17    86    83    1
    18    86    87    1
    19    83    82    1
    20    87    89   ar
    21    87    88   ar
    22    11    12    2
    23    89    91   ar
    24    82    70   am
    25    23    21   ar
    26    88    90   ar
    27    80    78   ar
    28    80    81   ar
    29    91    92   ar
    30    70    71    2
    31    70    69    1
    32    78    75   ar
    33    21    22   ar
    34    21    20    1
    35    90    92   ar
    36    72    69    1
    37    72    73    1
    38    92    93    1
    39    81    79   ar
    40    69    68    1
    41    75    73   ar
    42    75    77   ar
    43    20    17    1
    44    32    34   ar
    45    32    30   ar
    46    73    74   ar
    47    16    17    1
    48    34    33   ar
    49    79    77   ar
    50    77    76   ar
    51    68    61   am
    52    17    18    1
    53    30    29   ar
    54    62    61    2
    55    66    67    1
    56    66    65    1
    57    74    76   ar
    58    61    60    1
    59    33    31   ar
    60    64    65    1
    61    64    63    1
    62    18    24   am
    63    18    19    2
    64    29    31   ar
    65    29    28    1
    66    24    25    1
    67    63    60    1
    68    60    59    1
    69    28    25    1
    70    25    26    1
    71    58    56    1
    72    27    26    2
    73    26    35   am
    74    55    54    2
    75    56    57    1
    76    56    53    1
    77    54    53    1
    78    35    36    1
    79    53    52    1
    80    36    37    1
    81    36    39    1
    82    37    38    2
    83    51    50    1
    84    39    40    1
    85    46    45    2
    86    50    49    1
    87    40    41    2
    88    40    42   am
    89    48    49    1
    90    48    47    1
    91    45    44    1
    92    43    44    1
    93    44    47    1
