@<TRIPOS>MOLECULE
tmp/6bu0B00.pdb
 100 93 0 0 0
SMALL
GASTEIGER

@<TRIPOS>ATOM
      1  N        -35.2400    0.2020   -6.3550 N.3    38  TYR38      -0.1241
      2  CA       -35.3790   -0.0730   -7.7760 C.3    38  TYR38       0.1605
      3  C        -34.6040   -1.3370   -8.0970 C.2    38  TYR38       0.2264
      4  O        -33.6500   -1.7090   -7.4030 O.2    38  TYR38      -0.2867
      5  CB       -34.8960    1.0730   -8.7070 C.3    38  TYR38       0.0534
      6  CG       -33.4180    1.4420   -8.6730 C.ar   38  TYR38      -0.0201
      7  CD1      -32.9330    2.3150   -7.7170 C.ar   38  TYR38      -0.0009
      8  CD2      -32.5270    0.9660   -9.6350 C.ar   38  TYR38      -0.0009
      9  CE1      -31.5970    2.6920   -7.6890 C.ar   38  TYR38       0.0417
     10  CE2      -31.1790    1.3360   -9.6160 C.ar   38  TYR38       0.0417
     11  CZ       -30.7280    2.2060   -8.6320 C.ar   38  TYR38       0.1957
     12  OH       -29.4150    2.6010   -8.5660 O.3    38  TYR38      -0.2866
     13  N        -32.5160   -3.6020  -10.9250 N.3    40  LYS40      -0.1245
     14  CA       -31.5620   -3.3990  -11.9980 C.3    40  LYS40       0.1561
     15  C        -31.0430   -4.7640  -12.4030 C.2    40  LYS40       0.2260
     16  O        -30.6290   -5.5450  -11.5430 O.2    40  LYS40      -0.2867
     17  CB       -30.3910   -2.5220  -11.5590 C.3    40  LYS40       0.0271
     18  CG       -29.3030   -2.4210  -12.6140 C.3    40  LYS40       0.0035
     19  CD       -28.3930   -1.2440  -12.3660 C.3    40  LYS40       0.0206
     20  CE       -27.5660   -1.4390  -11.1160 C.3    40  LYS40       0.1093
     21  NZ       -26.8860   -0.1620  -10.7750 N.3    40  LYS40      -0.1314
     22  N        -28.5740   -7.1750  -15.1350 N.3    42  TYR42      -0.1241
     23  CA       -27.5170   -7.3360  -16.1230 C.3    42  TYR42       0.1605
     24  C        -27.4960   -8.7810  -16.6200 C.2    42  TYR42       0.2264
     25  O        -27.7350   -9.7130  -15.8480 O.2    42  TYR42      -0.2867
     26  CB       -26.1560   -6.9630  -15.5210 C.3    42  TYR42       0.0534
     27  CG       -25.8650   -5.4760  -15.4560 C.ar   42  TYR42      -0.0201
     28  CD1      -25.3090   -4.7970  -16.5460 C.ar   42  TYR42      -0.0009
     29  CD2      -26.1150   -4.7540  -14.3020 C.ar   42  TYR42      -0.0009
     30  CE1      -25.0260   -3.4270  -16.4780 C.ar   42  TYR42       0.0417
     31  CE2      -25.8390   -3.3950  -14.2230 C.ar   42  TYR42       0.0417
     32  CZ       -25.2960   -2.7330  -15.3110 C.ar   42  TYR42       0.1957
     33  OH       -25.0320   -1.3850  -15.2170 O.3    42  TYR42      -0.2866
     34  N        -20.4500   -3.1230  -18.7420 N.3    49  LYS49      -0.1245
     35  CA       -21.8790   -2.8860  -18.5540 C.3    49  LYS49       0.1561
     36  C        -22.5230   -3.3500  -19.8440 C.2    49  LYS49       0.2260
     37  O        -22.1480   -4.4170  -20.3150 O.2    49  LYS49      -0.2867
     38  CB       -22.1970   -1.4240  -18.2330 C.3    49  LYS49       0.0271
     39  CG       -22.0220   -1.0530  -16.7370 C.3    49  LYS49       0.0035
     40  CD       -21.1660   -2.0330  -15.9650 C.3    49  LYS49       0.0206
     41  CE       -21.2350   -1.7880  -14.4620 C.3    49  LYS49       0.1093
     42  NZ       -20.9260   -0.3920  -14.0470 N.3    49  LYS49      -0.1314
     43  N        -27.6500   -3.2110  -19.1930 N.3    52  LYS52      -0.1245
     44  CA       -28.4260   -2.7730  -18.0410 C.3    52  LYS52       0.1561
     45  C        -29.8940   -2.5920  -18.4040 C.2    52  LYS52       0.2260
     46  O        -30.2320   -2.1750  -19.5120 O.2    52  LYS52      -0.2867
     47  CB       -27.8630   -1.4590  -17.4920 C.3    52  LYS52       0.0271
     48  CG       -28.4680   -0.9880  -16.1800 C.3    52  LYS52       0.0035
     49  CD       -27.7930    0.2680  -15.7280 C.3    52  LYS52       0.0206
     50  CE       -28.6350    1.4700  -16.0190 C.3    52  LYS52       0.1093
     51  NZ       -27.8420    2.7090  -15.8190 N.3    52  LYS52      -0.1314
     52  N        -33.5110   -1.2810  -15.8360 N.3    54  LYS54      -0.1245
     53  CA       -33.8970   -0.7450  -14.5390 C.3    54  LYS54       0.1561
     54  C        -35.3940   -0.5010  -14.5190 C.2    54  LYS54       0.2260
     55  O        -35.9950   -0.1650  -15.5370 O.2    54  LYS54      -0.2867
     56  CB       -33.2210    0.5950  -14.2170 C.3    54  LYS54       0.0271
     57  CG       -31.7350    0.5500  -14.1020 C.3    54  LYS54       0.0035
     58  CD       -31.2080    1.7950  -13.4200 C.3    54  LYS54       0.0206
     59  CE       -31.6840    3.0740  -14.0800 C.3    54  LYS54       0.1093
     60  NZ       -30.9230    4.2210  -13.4520 N.3    54  LYS54      -0.1314
     61  N        -31.6850   -1.8890   -5.2510 N.3    90  LEU90      -0.1245
     62  CA       -30.8780   -0.7920   -4.7600 C.3    90  LEU90       0.1561
     63  C        -31.8180    0.2850   -4.2690 C.2    90  LEU90       0.2260
     64  O        -32.9480    0.4050   -4.7440 O.2    90  LEU90      -0.2867
     65  CB       -29.9400   -0.2250   -5.8490 C.3    90  LEU90       0.0270
     66  CG       -28.7330   -1.0900   -6.2430 C.3    90  LEU90       0.0019
     67  CD1      -28.9750   -1.7820   -7.5510 C.3    90  LEU90       0.0001
     68  CD2      -27.4570   -0.2730   -6.3070 C.3    90  LEU90       0.0001
     69  N        -30.9800    6.8420   -3.5800 N.3    93  GLU93      -0.1245
     70  CA       -30.6960    7.8070   -2.5320 C.3    93  GLU93       0.1567
     71  C        -30.2330    9.1190   -3.1570 C.2    93  GLU93       0.2260
     72  O        -29.3610    9.1160   -4.0290 O.2    93  GLU93      -0.2867
     73  CB       -29.6300    7.2370   -1.5930 C.3    93  GLU93       0.0388
     74  CG       -30.1360    6.0830   -0.7540 C.3    93  GLU93       0.1160
     75  CD       -31.1630    6.5410    0.2630 C.2    93  GLU93       0.3649
     76  OE1      -30.8930    7.5450    0.9580 O.co2  93  GLU93      -0.2457
     77  OE2      -32.2490    5.9330    0.3400 O.co2  93  GLU93      -0.2457
     78  N        -26.9100   10.3240   -0.4800 N.3    96  ARG96      -0.1231
     79  CA       -25.8380    9.3700   -0.2060 C.3    96  ARG96       0.1694
     80  C        -25.8410    8.3430   -1.3300 C.2    96  ARG96       0.2593
     81  O        -26.7600    8.3010   -2.1470 O.2    96  ARG96      -0.2718
     82  CB       -25.9870    8.7140    1.1750 C.3    96  ARG96       0.0321
     83  CG       -27.0960    7.6850    1.3150 C.3    96  ARG96       0.0489
     84  CD       -27.0000    6.9680    2.6630 C.3    96  ARG96       0.2205
     85  NE       -28.1700    6.1390    2.9570 N.pl3  96  ARG96      -0.0865
     86  CZ       -29.1970    6.5160    3.7120 C.cat  96  ARG96       0.5346
     87  NH1      -30.2090    5.6820    3.9170 N.pl3  96  ARG96       0.1354
     88  NH2      -29.2080    7.7170    4.2730 N.pl3  96  ARG96       0.1354
     89  N        -24.8230    7.4890   -1.3550 N.am   97  GLY97      -0.1942
     90  CA       -24.7190    6.5310   -2.4370 C.3    97  GLY97       0.2014
     91  C        -25.8850    5.5600   -2.4520 C.2    97  GLY97       0.2638
     92  O        -26.5260    5.3040   -1.4270 O.2    97  GLY97      -0.2714
     93  N        -26.1830    5.0400   -3.6480 N.am   98  ASN98      -0.1972
     94  CA       -27.3140    4.1320   -3.8630 C.3    98  ASN98       0.1688
     95  C        -26.9220    2.7520   -3.3600 C.2    98  ASN98       0.2292
     96  O        -26.2740    1.9880   -4.0760 O.2    98  ASN98      -0.2864
     97  CB       -27.6930    4.0770   -5.3390 C.3    98  ASN98       0.1181
     98  CG       -28.4600    5.2970   -5.7850 C.2    98  ASN98       0.2629
     99  OD1      -28.6470    6.2410   -5.0070 O.2    98  ASN98      -0.2716
    100  ND2      -28.9130    5.2940   -7.0350 N.am   98  ASN98      -0.0877
@<TRIPOS>BOND
     1    37    36    2
     2    36    35    1
     3    46    45    2
     4    43    44    1
     5    34    35    1
     6    35    38    1
     7    45    44    1
     8    38    39    1
     9    44    47    1
    10    47    48    1
    11    39    40    1
    12    24    23    1
    13    24    25    2
    14    28    30   ar
    15    28    27   ar
    16    30    32   ar
    17    48    49    1
    18    23    26    1
    19    23    22    1
    20    50    51    1
    21    50    49    1
    22    40    41    1
    23    52    53    1
    24    55    54    2
    25    26    27    1
    26    27    29   ar
    27    32    33    1
    28    32    31   ar
    29    53    54    1
    30    53    56    1
    31    41    42    1
    32    29    31   ar
    33    56    57    1
    34    57    58    1
    35    59    60    1
    36    59    58    1
    37    18    19    1
    38    18    17    1
    39    15    14    1
    40    15    16    2
    41    19    20    1
    42    14    17    1
    43    14    13    1
    44    20    21    1
    45     8    10   ar
    46     8     6   ar
    47    10    11   ar
    48     5     6    1
    49     5     2    1
    50     6     7   ar
    51    11    12    1
    52    11     9   ar
    53     3     2    1
    54     3     4    2
    55     2     1    1
    56     7     9   ar
    57    67    66    1
    58   100    98   am
    59    68    66    1
    60    66    65    1
    61    65    62    1
    62    98    97    1
    63    98    99    2
    64    97    94    1
    65    61    62    1
    66    62    63    1
    67    64    63    2
    68    96    95    2
    69    72    71    2
    70    94    93    1
    71    94    95    1
    72    93    91   am
    73    69    70    1
    74    71    70    1
    75    70    73    1
    76    91    90    1
    77    91    92    2
    78    90    89    1
    79    81    80    2
    80    73    74    1
    81    89    80   am
    82    80    79    1
    83    74    75    1
    84    78    79    1
    85    79    82    1
    86    75    77   ar
    87    75    76   ar
    88    82    83    1
    89    83    84    1
    90    84    85    1
    91    85    86    2
    92    86    87    1
    93    86    88    1
