@<TRIPOS>MOLECULE
tmp/6bu5A04.pdb
 73 67 0 0 0
SMALL
GASTEIGER

@<TRIPOS>ATOM
      1  N        -43.7650  -60.1440   26.6770 N.3   107  LEU107     -0.1245
      2  CA       -43.6340  -61.5760   26.9180 C.3   107  LEU107      0.1561
      3  C        -44.1220  -61.9970   28.2970 C.2   107  LEU107      0.2260
      4  O        -44.6330  -63.1130   28.4500 O.2   107  LEU107     -0.2867
      5  CB       -42.1740  -62.0120   26.7490 C.3   107  LEU107      0.0270
      6  CG       -41.6160  -62.0790   25.3270 C.3   107  LEU107      0.0019
      7  CD1      -40.1320  -62.4130   25.3450 C.3   107  LEU107      0.0001
      8  CD2      -42.3810  -63.0980   24.4980 C.3   107  LEU107      0.0001
      9  N        -18.8290  -64.2350   20.8460 N.3   139  LEU139     -0.1231
     10  CA       -19.6940  -65.3990   20.6900 C.3   139  LEU139      0.1693
     11  C        -21.1000  -65.1260   21.2080 C.2   139  LEU139      0.2591
     12  O        -22.0750  -65.6440   20.6530 O.2   139  LEU139     -0.2718
     13  CB       -19.0910  -66.6040   21.4110 C.3   139  LEU139      0.0284
     14  CG       -17.7020  -67.0590   20.9600 C.3   139  LEU139      0.0019
     15  CD1      -17.2290  -68.2370   21.7960 C.3   139  LEU139      0.0001
     16  CD2      -17.7070  -67.4170   19.4830 C.3   139  LEU139      0.0001
     17  N        -21.2230  -64.3220   22.2660 N.am  140  ALA140     -0.1980
     18  CA       -22.5390  -64.0190   22.8180 C.3   140  ALA140      0.1597
     19  C        -23.3650  -63.1890   21.8440 C.2   140  ALA140      0.2287
     20  O        -24.5120  -63.5350   21.5380 O.2   140  ALA140     -0.2864
     21  CB       -22.3930  -63.2950   24.1560 C.3   140  ALA140      0.0319
     22  N        -24.6930  -65.1290   19.0410 N.3   143  ALA143     -0.1231
     23  CA       -25.8290  -65.9840   19.3680 C.3   143  ALA143      0.1694
     24  C        -27.1330  -65.1960   19.3700 C.2   143  ALA143      0.2592
     25  O        -28.1790  -65.7140   18.9590 O.2   143  ALA143     -0.2718
     26  CB       -25.6110  -66.6610   20.7200 C.3   143  ALA143      0.0304
     27  N        -27.0950  -63.9440   19.8340 N.am  144  PHE144     -0.1976
     28  CA       -28.2910  -63.1100   19.7940 C.3   144  PHE144      0.1639
     29  C        -28.6860  -62.7670   18.3640 C.2   144  PHE144      0.2290
     30  O        -29.8790  -62.6450   18.0640 O.2   144  PHE144     -0.2864
     31  CB       -28.0760  -61.8300   20.6020 C.3   144  PHE144      0.0560
     32  CG       -27.9440  -62.0590   22.0820 C.ar  144  PHE144     -0.0200
     33  CD1      -29.0360  -62.4560   22.8360 C.ar  144  PHE144     -0.0042
     34  CD2      -26.7320  -61.8590   22.7220 C.ar  144  PHE144     -0.0042
     35  CE1      -28.9180  -62.6620   24.1980 C.ar  144  PHE144     -0.0003
     36  CE2      -26.6070  -62.0620   24.0830 C.ar  144  PHE144     -0.0003
     37  CZ       -27.7020  -62.4640   24.8230 C.ar  144  PHE144     -0.0000
     38  N        -30.8740  -65.4450   16.8200 N.3   147  MET147     -0.1245
     39  CA       -32.2680  -65.5330   17.2430 C.3   147  MET147      0.1570
     40  C        -33.1470  -64.5140   16.5260 C.2   147  MET147      0.2261
     41  O        -34.2680  -64.8400   16.1190 O.2   147  MET147     -0.2867
     42  CB       -32.3700  -65.3500   18.7570 C.3   147  MET147      0.0387
     43  CG       -33.7760  -65.5290   19.3130 C.3   147  MET147      0.0595
     44  SD       -34.4610  -67.1640   18.9740 S.3   147  MET147     -0.1393
     45  CE       -33.2430  -68.2160   19.7600 C.3   147  MET147      0.0692
     46  N        -39.6370  -61.9030   21.3090 N.3   280  VAL280     -0.1245
     47  CA       -38.3660  -62.5710   21.5800 C.3   280  VAL280      0.1561
     48  C        -37.2550  -61.9540   20.7410 C.2   280  VAL280      0.2260
     49  O        -36.1300  -61.7540   21.2180 O.2   280  VAL280     -0.2867
     50  CB       -38.4940  -64.0850   21.3290 C.3   280  VAL280      0.0252
     51  CG1      -37.1220  -64.7440   21.3000 C.3   280  VAL280      0.0019
     52  CG2      -39.3690  -64.7250   22.3960 C.3   280  VAL280      0.0019
     53  N        -36.2200  -58.6550   22.1990 N.3   283  LEU283     -0.1231
     54  CA       -35.4390  -58.7530   23.4280 C.3   283  LEU283      0.1693
     55  C        -33.9540  -58.9210   23.1320 C.2   283  LEU283      0.2591
     56  O        -33.1130  -58.2700   23.7630 O.2   283  LEU283     -0.2718
     57  CB       -35.9480  -59.9130   24.2830 C.3   283  LEU283      0.0284
     58  CG       -35.2010  -60.1810   25.5920 C.3   283  LEU283      0.0019
     59  CD1      -35.2290  -58.9530   26.4880 C.3   283  LEU283      0.0001
     60  CD2      -35.7890  -61.3870   26.3110 C.3   283  LEU283      0.0001
     61  N        -33.6110  -59.7910   22.1790 N.am  284  ALA284     -0.1980
     62  CA       -32.2060  -60.0080   21.8520 C.3   284  ALA284      0.1597
     63  C        -31.5760  -58.7700   21.2290 C.2   284  ALA284      0.2287
     64  O        -30.3660  -58.5550   21.3690 O.2   284  ALA284     -0.2864
     65  CB       -32.0630  -61.2080   20.9160 C.3   284  ALA284      0.0319
     66  N        -30.7920  -55.7820   24.5660 N.3   287  LEU287     -0.1245
     67  CA       -29.7200  -55.9670   25.5380 C.3   287  LEU287      0.1561
     68  C        -28.3670  -56.1660   24.8660 C.2   287  LEU287      0.2260
     69  O        -27.3310  -55.8500   25.4620 O.2   287  LEU287     -0.2867
     70  CB       -30.0470  -57.1390   26.4660 C.3   287  LEU287      0.0270
     71  CG       -30.6010  -58.4320   25.8610 C.3   287  LEU287      0.0019
     72  CD1      -29.4910  -59.3150   25.3090 C.3   287  LEU287      0.0001
     73  CD2      -31.4290  -59.1860   26.8910 C.3   287  LEU287      0.0001
@<TRIPOS>BOND
     1    41    40    2
     2    40    39    1
     3    38    39    1
     4    39    42    1
     5    30    29    2
     6    29    28    1
     7    42    43    1
     8    25    24    2
     9    44    43    1
    10    44    45    1
    11    22    23    1
    12    23    24    1
    13    23    26    1
    14    24    27   am
    15    16    14    1
    16    28    27    1
    17    28    31    1
    18    31    32    1
    19    12    11    2
    20    10     9    1
    21    10    11    1
    22    10    13    1
    23    48    49    2
    24    48    47    1
    25    65    62    1
    26    14    13    1
    27    14    15    1
    28    11    17   am
    29    63    64    2
    30    63    62    1
    31    51    50    1
    32    46    47    1
    33    50    47    1
    34    50    52    1
    35    20    19    2
    36    19    18    1
    37    62    61    1
    38    32    34   ar
    39    32    33   ar
    40    61    55   am
    41    53    54    1
    42    17    18    1
    43    34    36   ar
    44    18    21    1
    45    33    35   ar
    46    55    54    1
    47    55    56    2
    48    54    57    1
    49    36    37   ar
    50    35    37   ar
    51    57    58    1
    52     8     6    1
    53    66    67    1
    54    68    69    2
    55    68    67    1
    56    72    71    1
    57     6     7    1
    58     6     5    1
    59    67    70    1
    60    58    60    1
    61    58    59    1
    62    71    70    1
    63    71    73    1
    64     1     2    1
    65     5     2    1
    66     2     3    1
    67     3     4    2
