@<TRIPOS>MOLECULE
tmp/6bu5A07.pdb
 91 86 0 0 0
SMALL
GASTEIGER

@<TRIPOS>ATOM
      1  N        -40.6350  -50.4820   34.5580 N.3   113  PHE113     -0.1241
      2  CA       -39.5180  -50.3240   35.4840 C.3   113  PHE113      0.1605
      3  C        -38.7680  -51.6370   35.6750 C.2   113  PHE113      0.2264
      4  O        -37.5500  -51.7060   35.4730 O.2   113  PHE113     -0.2867
      5  CB       -40.0170  -49.7880   36.8270 C.3   113  PHE113      0.0534
      6  CG       -38.9370  -49.6600   37.8640 C.ar  113  PHE113     -0.0203
      7  CD1      -38.7490  -50.6500   38.8150 C.ar  113  PHE113     -0.0042
      8  CD2      -38.1040  -48.5540   37.8800 C.ar  113  PHE113     -0.0042
      9  CE1      -37.7530  -50.5360   39.7660 C.ar  113  PHE113     -0.0003
     10  CE2      -37.1060  -48.4350   38.8290 C.ar  113  PHE113     -0.0003
     11  CZ       -36.9310  -49.4270   39.7730 C.ar  113  PHE113     -0.0000
     12  N        -34.7530  -53.0390   34.9180 N.3   117  VAL117     -0.1245
     13  CA       -33.8050  -53.6030   35.8740 C.3   117  VAL117      0.1561
     14  C        -33.2600  -54.9310   35.3630 C.2   117  VAL117      0.2260
     15  O        -32.0730  -55.2360   35.5300 O.2   117  VAL117     -0.2867
     16  CB       -34.4650  -53.7520   37.2560 C.3   117  VAL117      0.0252
     17  CG1      -33.4760  -54.3170   38.2650 C.3   117  VAL117      0.0019
     18  CG2      -35.0090  -52.4130   37.7310 C.3   117  VAL117      0.0019
     19  N        -30.6880  -54.0360   32.7590 N.3   120  GLY120     -0.1210
     20  CA       -29.4920  -53.4500   33.3410 C.3   120  GLY120      0.1956
     21  C        -28.5910  -54.4710   34.0070 C.2   120  GLY120      0.2611
     22  O        -27.3760  -54.2720   34.0930 O.2   120  GLY120     -0.2717
     23  N        -29.1660  -55.5760   34.4820 N.am  121  VAL121     -0.1979
     24  CA       -28.3690  -56.6140   35.1280 C.3   121  VAL121      0.1595
     25  C        -27.7180  -57.5220   34.0920 C.2   121  VAL121      0.2287
     26  O        -26.5350  -57.8620   34.2050 O.2   121  VAL121     -0.2864
     27  CB       -29.2420  -57.4110   36.1140 C.3   121  VAL121      0.0276
     28  CG1      -28.4990  -58.6380   36.6140 C.3   121  VAL121      0.0022
     29  CG2      -29.6610  -56.5290   37.2800 C.3   121  VAL121      0.0022
     30  N        -21.7340  -48.4830   33.2000 N.3   315  ARG315     -0.1231
     31  CA       -23.0730  -49.0300   33.0110 C.3   315  ARG315      0.1694
     32  C        -24.0950  -48.3140   33.8830 C.2   315  ARG315      0.2591
     33  O        -25.2490  -48.1410   33.4740 O.2   315  ARG315     -0.2718
     34  CB       -23.0730  -50.5310   33.3090 C.3   315  ARG315      0.0321
     35  CG       -24.4540  -51.1830   33.3660 C.3   315  ARG315      0.0489
     36  CD       -25.0650  -51.3920   31.9820 C.3   315  ARG315      0.2205
     37  NE       -25.5670  -50.1540   31.3910 N.pl3 315  ARG315     -0.0865
     38  CZ       -26.2230  -50.0900   30.2370 C.cat 315  ARG315      0.5346
     39  NH1      -26.6410  -48.9200   29.7750 N.pl3 315  ARG315      0.1354
     40  NH2      -26.4620  -51.1960   29.5460 N.pl3 315  ARG315      0.1354
     41  N        -23.6870  -47.8740   35.0750 N.am  316  LEU316     -0.1980
     42  CA       -24.6190  -47.2190   35.9850 C.3   316  LEU316      0.1596
     43  C        -25.0330  -45.8460   35.4690 C.2   316  LEU316      0.2287
     44  O        -26.2030  -45.4620   35.5800 O.2   316  LEU316     -0.2864
     45  CB       -23.9930  -47.1050   37.3750 C.3   316  LEU316      0.0297
     46  CG       -24.8720  -46.5190   38.4800 C.3   316  LEU316      0.0022
     47  CD1      -26.0760  -47.4120   38.7320 C.3   316  LEU316      0.0001
     48  CD2      -24.0660  -46.3210   39.7550 C.3   316  LEU316      0.0001
     49  N        -27.5250  -45.8330   32.3970 N.3   319  MET319     -0.1230
     50  CA       -28.8830  -46.2620   32.7070 C.3   319  MET319      0.1702
     51  C        -29.7420  -45.1440   33.2780 C.2   319  MET319      0.2592
     52  O        -30.9690  -45.2860   33.3140 O.2   319  MET319     -0.2718
     53  CB       -28.8630  -47.4260   33.7000 C.3   319  MET319      0.0401
     54  CG       -28.3600  -48.7370   33.1340 C.3   319  MET319      0.0596
     55  SD       -28.5130  -50.0720   34.3350 S.3   319  MET319     -0.1393
     56  CE       -27.6310  -49.3720   35.7280 C.3   319  MET319      0.0692
     57  N        -29.1320  -44.0460   33.7250 N.am  320  LEU320     -0.1980
     58  CA       -29.8960  -42.9950   34.3960 C.3   320  LEU320      0.1596
     59  C        -30.9760  -42.3830   33.5120 C.2   320  LEU320      0.2287
     60  O        -32.1230  -42.2690   33.9760 O.2   320  LEU320     -0.2864
     61  CB       -28.9380  -41.9300   34.9420 C.3   320  LEU320      0.0297
     62  CG       -27.9170  -42.4220   35.9700 C.3   320  LEU320      0.0022
     63  CD1      -27.0720  -41.2670   36.4830 C.3   320  LEU320      0.0001
     64  CD2      -28.6120  -43.1370   37.1190 C.3   320  LEU320      0.0001
     65  N        -34.1840  -44.9190   33.2680 N.3   323  PHE323     -0.1227
     66  CA       -35.1370  -44.9980   34.3700 C.3   323  PHE323      0.1736
     67  C        -35.8730  -43.6790   34.5770 C.2   323  PHE323      0.2595
     68  O        -37.0050  -43.6780   35.0720 O.2   323  PHE323     -0.2718
     69  CB       -34.4240  -45.4190   35.6550 C.3   323  PHE323      0.0547
     70  CG       -33.9190  -46.8350   35.6330 C.ar  323  PHE323     -0.0202
     71  CD1      -34.7270  -47.8780   36.0560 C.ar  323  PHE323     -0.0042
     72  CD2      -32.6380  -47.1230   35.1940 C.ar  323  PHE323     -0.0042
     73  CE1      -34.2660  -49.1820   36.0380 C.ar  323  PHE323     -0.0003
     74  CE2      -32.1710  -48.4250   35.1740 C.ar  323  PHE323     -0.0003
     75  CZ       -32.9870  -49.4550   35.5970 C.ar  323  PHE323     -0.0000
     76  N        -35.2540  -42.5550   34.2060 N.am  324  ILE324     -0.1980
     77  CA       -35.9130  -41.2600   34.3550 C.3   324  ILE324      0.1595
     78  C        -37.1430  -41.1790   33.4590 C.2   324  ILE324      0.2287
     79  O        -38.2120  -40.7260   33.8850 O.2   324  ILE324     -0.2864
     80  CB       -34.9210  -40.1180   34.0640 C.3   324  ILE324      0.0276
     81  CG1      -33.9010  -39.9940   35.1980 C.3   324  ILE324      0.0022
     82  CG2      -35.6570  -38.8030   33.8620 C.3   324  ILE324      0.0022
     83  CD1      -32.8320  -38.9520   34.9480 C.3   324  ILE324      0.0001
     84  N        -39.9940  -43.2480   34.8770 N.3   327  LEU327     -0.1245
     85  CA       -40.6570  -42.6680   36.0400 C.3   327  LEU327      0.1561
     86  C        -41.5440  -41.4890   35.6620 C.2   327  LEU327      0.2260
     87  O        -42.5810  -41.2690   36.2970 O.2   327  LEU327     -0.2867
     88  CB       -39.6190  -42.2370   37.0770 C.3   327  LEU327      0.0270
     89  CG       -38.8010  -43.3550   37.7250 C.3   327  LEU327      0.0019
     90  CD1      -37.7630  -42.7800   38.6750 C.3   327  LEU327      0.0001
     91  CD2      -39.7090  -44.3380   38.4470 C.3   327  LEU327      0.0001
@<TRIPOS>BOND
     1    40    38    1
     2    39    38    1
     3    38    37    2
     4    37    36    1
     5    36    35    1
     6    49    50    1
     7    50    51    1
     8    50    53    1
     9    19    20    1
    10    31    30    1
    11    31    34    1
    12    31    32    1
    13    54    53    1
    14    54    55    1
    15    65    66    1
    16    51    52    2
    17    51    57   am
    18    34    35    1
    19    20    21    1
    20    78    79    2
    21    78    77    1
    22    33    32    2
    23    59    60    2
    24    59    58    1
    25    57    58    1
    26    82    80    1
    27    32    41   am
    28    21    22    2
    29    21    23   am
    30    80    77    1
    31    80    81    1
    32    25    26    2
    33    25    24    1
    34    76    77    1
    35    76    67   am
    36    55    56    1
    37    66    67    1
    38    66    69    1
    39    58    61    1
    40    23    24    1
    41     1     2    1
    42    67    68    2
    43    84    85    1
    44    12    13    1
    45    61    62    1
    46    83    81    1
    47    41    42    1
    48    24    27    1
    49    74    72   ar
    50    74    75   ar
    51    72    70   ar
    52    14    15    2
    53    14    13    1
    54    43    44    2
    55    43    42    1
    56     4     3    2
    57     2     3    1
    58     2     5    1
    59    75    73   ar
    60    70    69    1
    61    70    71   ar
    62    86    85    1
    63    86    87    2
    64    13    16    1
    65    62    63    1
    66    62    64    1
    67    42    45    1
    68    73    71   ar
    69    85    88    1
    70    27    28    1
    71    27    29    1
    72     5     6    1
    73    88    89    1
    74    16    18    1
    75    16    17    1
    76    45    46    1
    77    89    91    1
    78    89    90    1
    79     6     8   ar
    80     6     7   ar
    81     8    10   ar
    82    46    47    1
    83    46    48    1
    84     7     9   ar
    85    10    11   ar
    86     9    11   ar
