@<TRIPOS>MOLECULE
tmp/6bu5A00.pdb
 113 108 0 0 0
SMALL
GASTEIGER

@<TRIPOS>ATOM
      1  N        -39.2630  -49.7920   15.5470 N.3    23  ALA23      -0.1231
      2  CA       -40.4130  -48.8940   15.5060 C.3    23  ALA23       0.1694
      3  C        -40.5510  -48.2250   14.1440 C.2    23  ALA23       0.2592
      4  O        -41.6710  -48.0060   13.6660 O.2    23  ALA23      -0.2718
      5  CB       -40.2970  -47.8440   16.6100 C.3    23  ALA23       0.0304
      6  N        -39.4280  -47.8960   13.5040 N.am   24  THR24      -0.1953
      7  CA       -39.4880  -47.2220   12.2110 C.3    24  THR24       0.1897
      8  C        -39.9400  -48.1740   11.1110 C.2    24  THR24       0.2313
      9  O        -40.7830  -47.8160   10.2800 O.2    24  THR24      -0.2863
     10  CB       -38.1250  -46.6190   11.8690 C.3    24  THR24       0.1794
     11  OG1      -37.7130  -45.7370   12.9210 O.3    24  THR24      -0.2208
     12  CG2      -38.2000  -45.8400   10.5660 C.3    24  THR24       0.0378
     13  N        -43.7690  -49.0100   11.4350 N.3    27  GLU27      -0.1245
     14  CA       -44.6260  -47.8930   11.0520 C.3    27  GLU27       0.1567
     15  C        -44.6290  -47.6780    9.5450 C.2    27  GLU27       0.2260
     16  O        -45.6540  -47.2870    8.9750 O.2    27  GLU27      -0.2867
     17  CB       -44.1780  -46.6170   11.7630 C.3    27  GLU27       0.0388
     18  CG       -45.1480  -45.4580   11.6200 C.3    27  GLU27       0.1160
     19  CD       -44.4560  -44.1120   11.6690 C.2    27  GLU27       0.3649
     20  OE1      -43.2440  -44.0560   11.3760 O.co2  27  GLU27      -0.2457
     21  OE2      -45.1250  -43.1090   11.9980 O.co2  27  GLU27      -0.2457
     22  N        -48.4480  -48.1160    7.2180 N.3    31  ARG31      -0.1245
     23  CA       -48.9970  -46.8960    6.6410 C.3    31  ARG31       0.1563
     24  C        -48.8460  -46.8280    5.1280 C.2    31  ARG31       0.2260
     25  O        -49.7030  -46.2430    4.4570 O.2    31  ARG31      -0.2867
     26  CB       -48.3320  -45.6700    7.2730 C.3    31  ARG31       0.0307
     27  CG       -48.5040  -45.5850    8.7810 C.3    31  ARG31       0.0489
     28  CD       -47.7510  -44.4000    9.3640 C.3    31  ARG31       0.2205
     29  NE       -48.2980  -43.1200    8.9220 N.pl3  31  ARG31      -0.0865
     30  CZ       -47.8350  -41.9370    9.3120 C.cat  31  ARG31       0.5346
     31  NH1      -46.8140  -41.8680   10.1550 N.pl3  31  ARG31       0.1354
     32  NH2      -48.3930  -40.8220    8.8610 N.pl3  31  ARG31       0.1354
     33  N        -41.5540  -37.8130    4.4350 N.3   181  TYR181     -0.1227
     34  CA       -40.9480  -37.5180    5.7300 C.3   181  TYR181      0.1736
     35  C        -40.4130  -38.7830    6.3880 C.2   181  TYR181      0.2595
     36  O        -39.3480  -38.7630    7.0160 O.2   181  TYR181     -0.2718
     37  CB       -41.9660  -36.8290    6.6390 C.3   181  TYR181      0.0548
     38  CG       -41.4420  -36.5010    8.0210 C.ar  181  TYR181     -0.0200
     39  CD1      -40.7510  -35.3200    8.2600 C.ar  181  TYR181     -0.0009
     40  CD2      -41.6440  -37.3680    9.0880 C.ar  181  TYR181     -0.0009
     41  CE1      -40.2720  -35.0150    9.5200 C.ar  181  TYR181      0.0417
     42  CE2      -41.1680  -37.0720   10.3510 C.ar  181  TYR181      0.0417
     43  CZ       -40.4830  -35.8940   10.5610 C.ar  181  TYR181      0.1957
     44  OH       -40.0070  -35.5930   11.8160 O.3   181  TYR181     -0.2866
     45  N        -41.1370  -39.8950    6.2520 N.am  182  LEU182     -0.1980
     46  CA       -40.7050  -41.1400    6.8760 C.3   182  LEU182      0.1596
     47  C        -39.4570  -41.7020    6.2080 C.2   182  LEU182      0.2287
     48  O        -38.6260  -42.3270    6.8770 O.2   182  LEU182     -0.2864
     49  CB       -41.8420  -42.1600    6.8400 C.3   182  LEU182      0.0297
     50  CG       -41.6270  -43.4760    7.5860 C.3   182  LEU182      0.0022
     51  CD1      -41.0800  -43.2190    8.9800 C.3   182  LEU182      0.0001
     52  CD2      -42.9360  -44.2380    7.6610 C.3   182  LEU182      0.0001
     53  N        -36.4500  -39.7210    7.4290 N.3   185  TRP185     -0.1241
     54  CA       -36.1110  -40.0730    8.8030 C.3   185  TRP185      0.1605
     55  C        -35.2790  -41.3480    8.8700 C.2   185  TRP185      0.2264
     56  O        -34.5070  -41.5330    9.8180 O.2   185  TRP185     -0.2867
     57  CB       -37.3880  -40.2250    9.6290 C.3   185  TRP185      0.0550
     58  CG       -37.2150  -39.8960   11.0790 C.ar  185  TRP185      0.0003
     59  CD1      -37.2280  -38.6540   11.6430 C.ar  185  TRP185      0.0946
     60  CD2      -37.0130  -40.8220   12.1530 C.ar  185  TRP185      0.0152
     61  NE1      -37.0430  -38.7490   13.0010 N.ar  185  TRP185     -0.2442
     62  CE2      -36.9090  -40.0690   13.3390 C.ar  185  TRP185      0.0810
     63  CE3      -36.9100  -42.2150   12.2260 C.ar  185  TRP185      0.0012
     64  CZ2      -36.7060  -40.6620   14.5840 C.ar  185  TRP185      0.0191
     65  CZ3      -36.7080  -42.8000   13.4630 C.ar  185  TRP185      0.0001
     66  CH2      -36.6080  -42.0250   14.6240 C.ar  185  TRP185      0.0015
     67  N        -51.5650  -45.9410   14.5840 N.3   255  ASN255     -0.1225
     68  CA       -50.4990  -46.0010   15.5860 C.3   255  ASN255      0.1785
     69  C        -49.6940  -47.2960   15.4390 C.2   255  ASN255      0.2597
     70  O        -49.8070  -48.2390   16.2240 O.2   255  ASN255     -0.2718
     71  CB       -51.0660  -45.8550   17.0040 C.3   255  ASN255      0.1169
     72  CG       -51.6670  -44.4850   17.2540 C.2   255  ASN255      0.2627
     73  OD1      -51.2660  -43.4970   16.6390 O.2   255  ASN255     -0.2716
     74  ND2      -52.6330  -44.4200   18.1630 N.am  255  ASN255     -0.0877
     75  N        -48.8670  -47.3090   14.3940 N.am  256  ALA256     -0.1966
     76  CA       -48.0860  -48.4910   14.0550 C.3   256  ALA256      0.1728
     77  C        -46.6810  -48.4660   14.6350 C.2   256  ALA256      0.2617
     78  O        -46.1270  -49.5300   14.9370 O.2   256  ALA256     -0.2715
     79  CB       -48.0020  -48.6470   12.5350 C.3   256  ALA256      0.0334
     80  N        -46.0890  -47.2800   14.7950 N.am  257  GLY257     -0.1940
     81  CA       -44.7350  -47.2020   15.3150 C.3   257  GLY257      0.2014
     82  C        -44.6020  -47.7340   16.7280 C.2   257  GLY257      0.2638
     83  O        -43.5480  -48.2550   17.1020 O.2   257  GLY257     -0.2714
     84  N        -45.6570  -47.6090   17.5290 N.am  258  ASP258     -0.1971
     85  CA       -45.6500  -48.1690   18.8750 C.3   258  ASP258      0.1709
     86  C        -45.6200  -49.6900   18.7890 C.2   258  ASP258      0.2293
     87  O        -46.5140  -50.3040   18.1970 O.2   258  ASP258     -0.2864
     88  CB       -46.8750  -47.6940   19.6530 C.3   258  ASP258      0.1436
     89  CG       -46.8020  -48.0400   21.1300 C.2   258  ASP258      0.3671
     90  OD1      -45.7390  -48.5160   21.5830 O.co2 258  ASP258     -0.2456
     91  OD2      -47.8090  -47.8360   21.8390 O.co2 258  ASP258     -0.2456
     92  N        -42.9260  -41.1440   21.3010 N.3   333  SER333     -0.1217
     93  CA       -42.5080  -40.3000   20.1870 C.3   333  SER333      0.1889
     94  C        -41.7100  -39.0950   20.6680 C.2   333  SER333      0.2288
     95  O        -40.9030  -38.5460   19.9090 O.2   333  SER333     -0.2866
     96  CB       -43.7270  -39.8440   19.3850 C.3   333  SER333      0.2089
     97  OG       -44.4370  -40.9530   18.8600 O.3   333  SER333     -0.2183
     98  N        -37.9610  -40.2340   21.2170 N.3   336  LEU336     -0.1231
     99  CA       -37.2590  -40.5130   19.9720 C.3   336  LEU336      0.1693
    100  C        -36.8290  -39.2440   19.2510 C.2   336  LEU336      0.2591
    101  O        -35.8710  -39.2810   18.4720 O.2   336  LEU336     -0.2718
    102  CB       -38.1330  -41.3570   19.0430 C.3   336  LEU336      0.0284
    103  CG       -38.4010  -42.8000   19.4650 C.3   336  LEU336      0.0019
    104  CD1      -39.1690  -43.5430   18.3800 C.3   336  LEU336      0.0001
    105  CD2      -37.0980  -43.5150   19.7900 C.3   336  LEU336      0.0001
    106  N        -37.5090  -38.1240   19.4940 N.am  337  ILE337     -0.1980
    107  CA       -37.1310  -36.8740   18.8430 C.3   337  ILE337      0.1595
    108  C        -35.9060  -36.2670   19.5140 C.2   337  ILE337      0.2287
    109  O        -34.9820  -35.8040   18.8370 O.2   337  ILE337     -0.2864
    110  CB       -38.3240  -35.8960   18.8280 C.3   337  ILE337      0.0276
    111  CG1      -39.0780  -35.9810   17.4970 C.3   337  ILE337      0.0022
    112  CG2      -37.8700  -34.4610   19.0810 C.3   337  ILE337      0.0022
    113  CD1      -39.6390  -37.3480   17.1760 C.3   337  ILE337      0.0001
@<TRIPOS>BOND
     1    33    34    1
     2    25    24    2
     3    24    23    1
     4    34    35    1
     5    34    37    1
     6    47    46    1
     7    47    48    2
     8    45    35   am
     9    45    46    1
    10    35    36    2
    11    37    38    1
    12    23    22    1
    13    23    26    1
    14    49    46    1
    15    49    50    1
    16    26    27    1
    17    53    54    1
    18    50    52    1
    19    50    51    1
    20    38    39   ar
    21    38    40   ar
    22    39    41   ar
    23    27    28    1
    24    54    55    1
    25    54    57    1
    26    32    30    1
    27    55    56    2
    28    29    30    2
    29    29    28    1
    30    16    15    2
    31    40    42   ar
    32    30    31    1
    33    41    43   ar
    34    15    14    1
    35    57    58    1
    36     9     8    2
    37    42    43   ar
    38    43    44    1
    39    12    10    1
    40    14    13    1
    41    14    17    1
    42    58    59   ar
    43    58    60   ar
    44     8     7    1
    45    20    19   ar
    46    18    19    1
    47    18    17    1
    48    59    61   ar
    49    19    21   ar
    50    10     7    1
    51    10    11    1
    52    60    63   ar
    53    60    62   ar
    54     7     6    1
    55    63    65   ar
    56    79    76    1
    57    61    62   ar
    58    62    64   ar
    59    65    66   ar
    60     6     3   am
    61     4     3    2
    62    76    75    1
    63    76    77    1
    64     3     2    1
    65    75    69   am
    66    64    66   ar
    67    67    68    1
    68    77    80   am
    69    77    78    2
    70    80    81    1
    71    81    82    1
    72    69    68    1
    73    69    70    2
    74     2     1    1
    75     2     5    1
    76    68    71    1
    77    73    72    2
    78    82    83    2
    79    82    84   am
    80    71    72    1
    81   113   111    1
    82    72    74   am
    83   111   110    1
    84    84    85    1
    85    87    86    2
    86   104   103    1
    87   101   100    2
    88    86    85    1
    89   110   107    1
    90   110   112    1
    91   109   108    2
    92   107   106    1
    93   107   108    1
    94    97    96    1
    95    85    88    1
    96   102   103    1
    97   102    99    1
    98   100   106   am
    99   100    99    1
   100    96    93    1
   101   103   105    1
   102    88    89    1
   103    95    94    2
   104    99    98    1
   105    93    94    1
   106    93    92    1
   107    89    90   ar
   108    89    91   ar
