@<TRIPOS>MOLECULE
tmp/6bu5A03.pdb
 77 71 0 0 0
SMALL
GASTEIGER

@<TRIPOS>ATOM
      1  N        -12.2900  -66.8760   10.2680 N.3     3  LEU3       -0.1231
      2  CA       -12.7860  -65.5050   10.2020 C.3     3  LEU3        0.1678
      3  C        -12.2070  -64.7140   11.3670 C.2     3  LEU3        0.2434
      4  O        -12.7510  -64.7620   12.4820 O.2     3  LEU3       -0.2733
      5  CB       -14.3170  -65.4810   10.2360 C.3     3  LEU3        0.0284
      6  CG       -14.9940  -66.2420    9.0920 C.3     3  LEU3        0.0019
      7  CD1      -16.5000  -66.3000    9.2820 C.3     3  LEU3        0.0001
      8  CD2      -14.6480  -65.6120    7.7530 C.3     3  LEU3        0.0001
      9  N        -11.1090  -63.9780   11.1700 N.am    4  PRO4       -0.2729
     10  CA       -10.4510  -63.3380   12.3210 C.3     4  PRO4        0.1401
     11  C        -11.2430  -62.1840   12.9050 C.2     4  PRO4        0.2269
     12  O        -11.3470  -62.0700   14.1330 O.2     4  PRO4       -0.2865
     13  CB        -9.1070  -62.8670   11.7420 C.3     4  PRO4        0.0296
     14  CG        -8.9640  -63.5760   10.4190 C.3     4  PRO4        0.0237
     15  CD       -10.3560  -63.7780    9.9230 C.3     4  PRO4        0.0939
     16  N        -14.5290  -61.4820   12.4370 N.3     6  LEU6       -0.1231
     17  CA       -15.9770  -61.6620   12.4680 C.3     6  LEU6        0.1693
     18  C        -16.5600  -61.1800   13.7890 C.2     6  LEU6        0.2592
     19  O        -17.6590  -60.6150   13.8220 O.2     6  LEU6       -0.2718
     20  CB       -16.3340  -63.1280   12.2290 C.3     6  LEU6        0.0284
     21  CG       -17.8300  -63.4510   12.2580 C.3     6  LEU6        0.0019
     22  CD1      -18.5540  -62.7550   11.1150 C.3     6  LEU6        0.0001
     23  CD2      -18.0670  -64.9510   12.2180 C.3     6  LEU6        0.0001
     24  N        -15.8350  -61.3910   14.8850 N.am    7  GLY7       -0.1957
     25  CA       -16.2550  -60.9420   16.1900 C.3     7  GLY7        0.1869
     26  C        -16.5410  -59.4540   16.2470 C.2     7  GLY7        0.2309
     27  O        -17.6630  -59.0300   16.5390 O.2     7  GLY7       -0.2863
     28  N        -19.6320  -58.5820   14.0570 N.3    10  VAL10      -0.1245
     29  CA       -20.9400  -58.8580   14.6410 C.3    10  VAL10       0.1561
     30  C        -21.2170  -57.9170   15.8070 C.2    10  VAL10       0.2260
     31  O        -22.3680  -57.5320   16.0460 O.2    10  VAL10      -0.2867
     32  CB       -21.0310  -60.3370   15.0660 C.3    10  VAL10       0.0252
     33  CG1      -22.3830  -60.6350   15.6990 C.3    10  VAL10       0.0019
     34  CG2      -20.7940  -61.2460   13.8700 C.3    10  VAL10       0.0019
     35  N        -13.1620  -62.4650   23.2950 N.3   135  ARG135     -0.1245
     36  CA       -13.8220  -63.3910   22.3810 C.3   135  ARG135      0.1563
     37  C        -15.1550  -63.9020   22.9310 C.2   135  ARG135      0.2260
     38  O        -16.1050  -64.0580   22.1530 O.2   135  ARG135     -0.2867
     39  CB       -12.9000  -64.5680   22.0460 C.3   135  ARG135      0.0307
     40  CG       -11.6460  -64.1850   21.2790 C.3   135  ARG135      0.0489
     41  CD       -10.8600  -65.4190   20.8600 C.3   135  ARG135      0.2205
     42  NE        -9.6300  -65.0740   20.1510 N.pl3 135  ARG135     -0.0865
     43  CZ        -9.5460  -64.9140   18.8340 C.cat 135  ARG135      0.5346
     44  NH1       -8.3850  -64.6000   18.2760 N.pl3 135  ARG135      0.1354
     45  NH2      -10.6220  -65.0670   18.0750 N.pl3 135  ARG135      0.1354
     46  N        -17.8130  -61.7960   21.7380 N.3   138  GLU138     -0.1231
     47  CA       -18.0860  -61.9640   20.3150 C.3   138  GLU138      0.1699
     48  C        -18.9780  -63.1710   20.0540 C.2   138  GLU138      0.2592
     49  O        -19.8060  -63.1400   19.1360 O.2   138  GLU138     -0.2718
     50  CB       -16.7710  -62.0920   19.5470 C.3   138  GLU138      0.0402
     51  CG       -15.8090  -60.9410   19.7950 C.3   138  GLU138      0.1161
     52  CD       -14.4490  -61.1660   19.1650 C.2   138  GLU138      0.3649
     53  OE1      -14.2670  -62.1990   18.4860 O.co2 138  GLU138     -0.2457
     54  OE2      -13.5590  -60.3090   19.3500 O.co2 138  GLU138     -0.2457
     55  N        -18.8290  -64.2350   20.8460 N.am  139  LEU139     -0.1980
     56  CA       -19.6940  -65.3990   20.6900 C.3   139  LEU139      0.1596
     57  C        -21.1000  -65.1260   21.2080 C.2   139  LEU139      0.2287
     58  O        -22.0750  -65.6440   20.6530 O.2   139  LEU139     -0.2864
     59  CB       -19.0910  -66.6040   21.4110 C.3   139  LEU139      0.0297
     60  CG       -17.7020  -67.0590   20.9600 C.3   139  LEU139      0.0022
     61  CD1      -17.2290  -68.2370   21.7960 C.3   139  LEU139      0.0001
     62  CD2      -17.7070  -67.4170   19.4830 C.3   139  LEU139      0.0001
     63  N        -23.0330  -62.8970   18.6910 N.3   142  GLY142     -0.1225
     64  CA       -23.3720  -63.7280   17.5490 C.3   142  GLY142      0.1811
     65  C        -24.5550  -64.6390   17.8070 C.2   142  GLY142      0.2280
     66  O        -25.3540  -64.9000   16.9020 O.2   142  GLY142     -0.2866
     67  N         -5.3800  -56.4900   17.3470 N.3   206  ARG206     -0.1245
     68  CA        -5.9700  -57.8120   17.5350 C.3   206  ARG206      0.1563
     69  C         -5.0000  -58.9200   17.1450 C.2   206  ARG206      0.2260
     70  O         -5.0000  -59.9890   17.7660 O.2   206  ARG206     -0.2867
     71  CB        -7.2660  -57.9240   16.7320 C.3   206  ARG206      0.0307
     72  CG        -8.0090  -59.2360   16.9240 C.3   206  ARG206      0.0489
     73  CD        -9.3900  -59.1820   16.2910 C.3   206  ARG206      0.2205
     74  NE       -10.0900  -60.4590   16.3880 N.pl3 206  ARG206     -0.0865
     75  CZ       -10.8210  -60.8350   17.4320 C.cat 206  ARG206      0.5346
     76  NH1      -10.9490  -60.0320   18.4800 N.pl3 206  ARG206      0.1354
     77  NH2      -11.4240  -62.0160   17.4310 N.pl3 206  ARG206      0.1354
@<TRIPOS>BOND
     1     8     6    1
     2     6     7    1
     3     6     5    1
     4    15    14    1
     5    15     9    1
     6     2     5    1
     7     2     1    1
     8     2     3    1
     9    14    13    1
    10    22    21    1
    11     9     3   am
    12     9    10    1
    13     3     4    2
    14    13    10    1
    15    23    21    1
    16    20    21    1
    17    20    17    1
    18    10    11    1
    19    16    17    1
    20    17    18    1
    21    11    12    2
    22    18    19    2
    23    18    24   am
    24    34    32    1
    25    28    29    1
    26    29    32    1
    27    29    30    1
    28    24    25    1
    29    32    33    1
    30    30    31    2
    31    25    26    1
    32    26    27    2
    33    73    74    1
    34    73    72    1
    35    74    75    2
    36    71    72    1
    37    71    68    1
    38    66    65    2
    39    69    68    1
    40    69    70    2
    41    67    68    1
    42    77    75    1
    43    75    76    1
    44    64    65    1
    45    64    63    1
    46    45    43    1
    47    44    43    1
    48    53    52   ar
    49    43    42    2
    50    49    48    2
    51    52    54   ar
    52    52    51    1
    53    62    60    1
    54    50    51    1
    55    50    47    1
    56    48    47    1
    57    48    55   am
    58    42    41    1
    59    47    46    1
    60    58    57    2
    61    56    55    1
    62    56    57    1
    63    56    59    1
    64    41    40    1
    65    60    59    1
    66    60    61    1
    67    40    39    1
    68    39    36    1
    69    38    37    2
    70    36    37    1
    71    36    35    1
