@<TRIPOS>MOLECULE
tmp/6bu5A02.pdb
 78 73 0 0 0
SMALL
GASTEIGER

@<TRIPOS>ATOM
      1  N        -42.0400  -56.8090   28.6850 N.3   105  GLN105     -0.1231
      2  CA       -43.4360  -56.5400   29.0170 C.3   105  GLN105      0.1698
      3  C        -44.3800  -57.3040   28.0980 C.2   105  GLN105      0.2592
      4  O        -45.4200  -57.8040   28.5420 O.2   105  GLN105     -0.2718
      5  CB       -43.7120  -55.0390   28.9430 C.3   105  GLN105      0.0381
      6  CG       -45.1660  -54.6580   29.1770 C.3   105  GLN105      0.0905
      7  CD       -45.3910  -53.1600   29.1210 C.2   105  GLN105      0.2608
      8  OE1      -45.3490  -52.4760   30.1430 O.2   105  GLN105     -0.2717
      9  NE2      -45.6270  -52.6420   27.9210 N.am  105  GLN105     -0.0878
     10  N        -44.0350  -57.4080   26.8130 N.am  106  LEU106     -0.1966
     11  CA       -44.8960  -58.1240   25.8790 C.3   106  LEU106      0.1728
     12  C        -44.8580  -59.6290   26.1140 C.2   106  LEU106      0.2616
     13  O        -45.8230  -60.3270   25.7860 O.2   106  LEU106     -0.2715
     14  CB       -44.4930  -57.8030   24.4400 C.3   106  LEU106      0.0311
     15  CG       -44.6030  -56.3370   24.0180 C.3   106  LEU106      0.0022
     16  CD1      -44.1140  -56.1560   22.5890 C.3   106  LEU106      0.0001
     17  CD2      -46.0330  -55.8380   24.1650 C.3   106  LEU106      0.0001
     18  N        -43.7650  -60.1440   26.6770 N.am  107  LEU107     -0.1963
     19  CA       -43.6340  -61.5760   26.9180 C.3   107  LEU107      0.1728
     20  C        -44.1220  -61.9970   28.2970 C.2   107  LEU107      0.2617
     21  O        -44.6330  -63.1130   28.4500 O.2   107  LEU107     -0.2715
     22  CB       -42.1740  -62.0120   26.7490 C.3   107  LEU107      0.0311
     23  CG       -41.6160  -62.0790   25.3270 C.3   107  LEU107      0.0022
     24  CD1      -40.1320  -62.4130   25.3450 C.3   107  LEU107      0.0001
     25  CD2      -42.3810  -63.0980   24.4980 C.3   107  LEU107      0.0001
     26  N        -43.9770  -61.1350   29.3050 N.am  108  THR108     -0.1937
     27  CA       -44.3130  -61.4870   30.6760 C.3   108  THR108      0.2028
     28  C        -45.3940  -60.6190   31.3000 C.2   108  THR108      0.2642
     29  O        -46.0560  -61.0760   32.2380 O.2   108  THR108     -0.2714
     30  CB       -43.0630  -61.4190   31.5690 C.3   108  THR108      0.1808
     31  OG1      -42.4820  -60.1120   31.4820 O.3   108  THR108     -0.2208
     32  CG2      -42.0380  -62.4540   31.1310 C.3   108  THR108      0.0379
     33  N        -45.5950  -59.3950   30.8170 N.am  109  GLY109     -0.1954
     34  CA       -46.5470  -58.4870   31.4170 C.3   109  GLY109      0.1869
     35  C        -45.9800  -57.5910   32.4950 C.2   109  GLY109      0.2309
     36  O        -46.7440  -56.8430   33.1190 O.2   109  GLY109     -0.2863
     37  N        -30.8740  -65.4450   16.8200 N.3   147  MET147     -0.1245
     38  CA       -32.2680  -65.5330   17.2430 C.3   147  MET147      0.1570
     39  C        -33.1470  -64.5140   16.5260 C.2   147  MET147      0.2261
     40  O        -34.2680  -64.8400   16.1190 O.2   147  MET147     -0.2867
     41  CB       -32.3700  -65.3500   18.7570 C.3   147  MET147      0.0387
     42  CG       -33.7760  -65.5290   19.3130 C.3   147  MET147      0.0595
     43  SD       -34.4610  -67.1640   18.9740 S.3   147  MET147     -0.1393
     44  CE       -33.2430  -68.2160   19.7600 C.3   147  MET147      0.0692
     45  N        -47.8490  -55.4160   18.3330 N.3   263  TYR263     -0.1241
     46  CA       -47.8170  -56.7170   18.9900 C.3   263  TYR263      0.1605
     47  C        -49.2180  -57.2930   19.1600 C.2   263  TYR263      0.2264
     48  O        -49.4080  -58.5110   19.0640 O.2   263  TYR263     -0.2867
     49  CB       -47.1170  -56.5960   20.3450 C.3   263  TYR263      0.0534
     50  CG       -47.0310  -57.8870   21.1280 C.ar  263  TYR263     -0.0201
     51  CD1      -47.9660  -58.1930   22.1100 C.ar  263  TYR263     -0.0009
     52  CD2      -46.0080  -58.7960   20.8930 C.ar  263  TYR263     -0.0009
     53  CE1      -47.8880  -59.3710   22.8290 C.ar  263  TYR263      0.0417
     54  CE2      -45.9220  -59.9750   21.6080 C.ar  263  TYR263      0.0417
     55  CZ       -46.8640  -60.2570   22.5740 C.ar  263  TYR263      0.1957
     56  OH       -46.7820  -61.4310   23.2870 O.3   263  TYR263     -0.2866
     57  N        -45.1540  -63.9260   19.6780 N.3   276  VAL276     -0.1245
     58  CA       -44.0600  -64.3110   20.5650 C.3   276  VAL276      0.1561
     59  C        -42.7190  -64.1700   19.8580 C.2   276  VAL276      0.2260
     60  O        -41.7480  -63.6660   20.4350 O.2   276  VAL276     -0.2867
     61  CB       -44.2750  -65.7430   21.0860 C.3   276  VAL276      0.0252
     62  CG1      -43.2570  -66.0720   22.1670 C.3   276  VAL276      0.0019
     63  CG2      -45.6930  -65.9090   21.6040 C.3   276  VAL276      0.0019
     64  N        -39.6370  -61.9030   21.3090 N.3   280  VAL280     -0.1245
     65  CA       -38.3660  -62.5710   21.5800 C.3   280  VAL280      0.1561
     66  C        -37.2550  -61.9540   20.7410 C.2   280  VAL280      0.2260
     67  O        -36.1300  -61.7540   21.2180 O.2   280  VAL280     -0.2867
     68  CB       -38.4940  -64.0850   21.3290 C.3   280  VAL280      0.0252
     69  CG1      -37.1220  -64.7440   21.3000 C.3   280  VAL280      0.0019
     70  CG2      -39.3690  -64.7250   22.3960 C.3   280  VAL280      0.0019
     71  N        -36.2200  -58.6550   22.1990 N.3   283  LEU283     -0.1245
     72  CA       -35.4390  -58.7530   23.4280 C.3   283  LEU283      0.1561
     73  C        -33.9540  -58.9210   23.1320 C.2   283  LEU283      0.2260
     74  O        -33.1130  -58.2700   23.7630 O.2   283  LEU283     -0.2867
     75  CB       -35.9480  -59.9130   24.2830 C.3   283  LEU283      0.0270
     76  CG       -35.2010  -60.1810   25.5920 C.3   283  LEU283      0.0019
     77  CD1      -35.2290  -58.9530   26.4880 C.3   283  LEU283      0.0001
     78  CD2      -35.7890  -61.3870   26.3110 C.3   283  LEU283      0.0001
@<TRIPOS>BOND
     1    40    39    2
     2    39    38    1
     3    37    38    1
     4    38    41    1
     5    45    46    1
     6    41    42    1
     7    43    42    1
     8    43    44    1
     9    46    47    1
    10    46    49    1
    11    48    47    2
    12    57    58    1
    13    59    60    2
    14    59    58    1
    15    49    50    1
    16    58    61    1
    17    66    67    2
    18    66    65    1
    19    52    50   ar
    20    52    54   ar
    21    61    63    1
    22    61    62    1
    23    50    51   ar
    24    69    68    1
    25    64    65    1
    26    68    65    1
    27    68    70    1
    28    54    55   ar
    29    51    53   ar
    30    71    72    1
    31    55    53   ar
    32    55    56    1
    33    16    15    1
    34    73    72    1
    35    73    74    2
    36    72    75    1
    37    15    17    1
    38    15    14    1
    39    75    76    1
    40    14    11    1
    41    25    23    1
    42    23    24    1
    43    23    22    1
    44    76    78    1
    45    76    77    1
    46    13    12    2
    47    11    12    1
    48    11    10    1
    49    12    18   am
    50    18    19    1
    51    22    19    1
    52    10     3   am
    53    19    20    1
    54     9     7   am
    55     3     4    2
    56     3     2    1
    57    20    21    2
    58    20    26   am
    59     1     2    1
    60     5     2    1
    61     5     6    1
    62     7     6    1
    63     7     8    2
    64    26    27    1
    65    27    28    1
    66    27    30    1
    67    33    28   am
    68    33    34    1
    69    32    30    1
    70    28    29    2
    71    34    35    1
    72    31    30    1
    73    35    36    2
