@<TRIPOS>MOLECULE
tmp/6bu6D00.pdb
 167 159 0 0 0
SMALL
GASTEIGER

@<TRIPOS>ATOM
      1  N        -28.5090   10.5500    0.8170 N.3    22  ILE22      -0.1231
      2  CA       -27.1340   10.0250    0.7390 C.3    22  ILE22       0.1692
      3  C        -26.8190    9.4520   -0.6570 C.2    22  ILE22       0.2592
      4  O        -27.6900    8.8550   -1.2890 O.2    22  ILE22      -0.2718
      5  CB       -26.8200    9.0230    1.8730 C.3    22  ILE22       0.0266
      6  CG1      -27.6730    7.7500    1.7840 C.3    22  ILE22       0.0019
      7  CG2      -27.0000    9.7210    3.2040 C.3    22  ILE22       0.0020
      8  CD1      -27.2520    6.6890    2.7790 C.3    22  ILE22       0.0001
      9  N        -25.5850    9.6730   -1.1350 N.am   23  GLY23      -0.1957
     10  CA       -25.0720    9.1220   -2.4130 C.3    23  GLY23       0.1869
     11  C        -25.9780    9.1870   -3.6390 C.2    23  GLY23       0.2309
     12  O        -25.8570    8.3720   -4.5700 O.2    23  GLY23      -0.2863
     13  N        -27.3730    5.7690   -5.5960 N.3    24  GLY24      -0.1210
     14  CA       -27.0970    4.4150   -6.0700 C.3    24  GLY24       0.1956
     15  C        -28.2670    3.4430   -5.9970 C.2    24  GLY24       0.2611
     16  O        -28.4040    2.5760   -6.8490 O.2    24  GLY24      -0.2717
     17  N        -29.1050    3.5780   -4.9690 N.am   25  PHE25      -0.1976
     18  CA       -30.2430    2.6810   -4.7340 C.3    25  PHE25       0.1639
     19  C        -31.6240    3.3530   -4.8940 C.2    25  PHE25       0.2290
     20  O        -32.5800    3.0220   -4.1680 O.2    25  PHE25      -0.2864
     21  CB       -30.1500    2.1520   -3.3080 C.3    25  PHE25       0.0560
     22  CG       -28.8200    1.5670   -2.9390 C.ar   25  PHE25      -0.0200
     23  CD1      -28.5260    0.2370   -3.2430 C.ar   25  PHE25      -0.0042
     24  CD2      -27.8880    2.3160   -2.2080 C.ar   25  PHE25      -0.0042
     25  CE1      -27.3210   -0.3230   -2.8630 C.ar   25  PHE25      -0.0003
     26  CE2      -26.6670    1.7830   -1.8640 C.ar   25  PHE25      -0.0003
     27  CZ       -26.3940    0.4710   -2.1800 C.ar   25  PHE25      -0.0000
     28  N        -33.0270    7.6390   -1.5270 N.3    28  ILE28      -0.1245
     29  CA       -32.7250    7.2320   -0.1730 C.3    28  ILE28       0.1561
     30  C        -32.2890    8.4280    0.6410 C.2    28  ILE28       0.2260
     31  O        -31.4790    9.2320    0.1840 O.2    28  ILE28      -0.2867
     32  CB       -31.6160    6.1570   -0.1250 C.3    28  ILE28       0.0252
     33  CG1      -32.0770    4.9360   -0.9360 C.3    28  ILE28       0.0019
     34  CG2      -31.2570    5.7830    1.3450 C.3    28  ILE28       0.0019
     35  CD1      -31.2940    3.6780   -0.6320 C.3    28  ILE28       0.0001
     36  N        -32.2260    4.7310    7.3300 N.3    46  VAL46      -0.1245
     37  CA       -32.4770    5.3680    6.0780 C.3    46  VAL46       0.1561
     38  C        -33.9020    5.0630    5.6740 C.2    46  VAL46       0.2260
     39  O        -34.4720    4.0770    6.1020 O.2    46  VAL46      -0.2867
     40  CB       -31.5020    4.9230    4.9500 C.3    46  VAL46       0.0252
     41  CG1      -30.0720    5.2480    5.3250 C.3    46  VAL46       0.0019
     42  CG2      -31.6560    3.4440    4.6040 C.3    46  VAL46       0.0019
     43  N        -36.0420    4.4530    2.1880 N.3    48  LYS48      -0.1245
     44  CA       -36.0870    4.2480    0.7430 C.3    48  LYS48       0.1561
     45  C        -37.4850    4.5580    0.2780 C.2    48  LYS48       0.2260
     46  O        -38.4670    4.1540    0.9190 O.2    48  LYS48      -0.2867
     47  CB       -35.7640    2.7930    0.3780 C.3    48  LYS48       0.0271
     48  CG       -34.3990    2.3290    0.8650 C.3    48  LYS48       0.0035
     49  CD       -34.2230    0.7910    0.8240 C.3    48  LYS48       0.0206
     50  CE       -34.4650    0.1920   -0.5570 C.3    48  LYS48       0.1093
     51  NZ       -33.8070   -1.0910   -0.8650 N.3    48  LYS48      -0.1314
     52  N        -39.7300   -6.2010   -2.0160 N.3    60  GLU60      -0.1245
     53  CA       -38.8030   -6.1450   -0.9130 C.3    60  GLU60       0.1567
     54  C        -39.5490   -6.1220    0.4560 C.2    60  GLU60       0.2260
     55  O        -39.1750   -6.8360    1.3850 O.2    60  GLU60      -0.2867
     56  CB       -37.9390   -4.9020   -1.0680 C.3    60  GLU60       0.0388
     57  CG       -36.9440   -4.6920    0.0380 C.3    60  GLU60       0.1160
     58  CD       -35.7590   -3.8660   -0.4880 C.2    60  GLU60       0.3649
     59  OE1      -35.9000   -2.8570   -1.2490 O.co2  60  GLU60      -0.2457
     60  OE2      -34.6640   -4.2640   -0.1610 O.co2  60  GLU60      -0.2457
     61  N        -39.1540   -8.8910    3.5380 N.3    64  TYR64      -0.1241
     62  CA       -38.7850   -8.5880    4.9080 C.3    64  TYR64       0.1605
     63  C        -39.8380   -9.0640    5.9040 C.2    64  TYR64       0.2264
     64  O        -39.4910   -9.6800    6.9610 O.2    64  TYR64      -0.2867
     65  CB       -38.4680   -7.1100    5.0830 C.3    64  TYR64       0.0534
     66  CG       -37.0590   -6.7410    4.6790 C.ar   64  TYR64      -0.0201
     67  CD1      -36.0000   -7.1660    5.4560 C.ar   64  TYR64      -0.0009
     68  CD2      -36.7760   -6.0110    3.5330 C.ar   64  TYR64      -0.0009
     69  CE1      -34.6740   -6.8210    5.1320 C.ar   64  TYR64       0.0417
     70  CE2      -35.4870   -5.7490    3.1510 C.ar   64  TYR64       0.0417
     71  CZ       -34.4160   -6.1950    3.9340 C.ar   64  TYR64       0.1957
     72  OH       -33.1260   -5.8790    3.6320 O.3    64  TYR64      -0.2866
     73  N        -30.1610   -6.9950    6.5560 N.3    88  PRO88      -0.2116
     74  CA       -30.5080   -5.7740    7.2830 C.3    88  PRO88       0.1372
     75  C        -31.7410   -5.8840    8.1260 C.2    88  PRO88       0.2244
     76  O        -32.6620   -6.6620    7.8110 O.2    88  PRO88      -0.2868
     77  CB       -30.7670   -4.7590    6.1630 C.3    88  PRO88       0.0268
     78  CG       -30.0650   -5.2760    4.9850 C.3    88  PRO88       0.0207
     79  CD       -30.1400   -6.7610    5.0990 C.3    88  PRO88       0.0892
     80  N        -35.0410    1.3430    6.9480 N.3   108  MET108     -0.1230
     81  CA       -34.0450    0.2710    7.1210 C.3   108  MET108      0.1702
     82  C        -32.8530    0.7760    7.9100 C.2   108  MET108      0.2592
     83  O        -32.7290    1.9780    8.1560 O.2   108  MET108     -0.2718
     84  CB       -33.5160   -0.1960    5.7610 C.3   108  MET108      0.0401
     85  CG       -34.5090   -0.4820    4.6450 C.3   108  MET108      0.0596
     86  SD       -35.5090   -1.9060    5.0750 S.3   108  MET108     -0.1393
     87  CE       -34.2150   -3.1590    5.3710 C.3   108  MET108      0.0692
     88  N        -32.0010   -0.1640    8.3340 N.am  109  ASP109     -0.1960
     89  CA       -30.6950    0.1600    8.9120 C.3   109  ASP109      0.1840
     90  C        -29.9340    1.1150    8.0140 C.2   109  ASP109      0.2622
     91  O        -29.9890    0.9740    6.7920 O.2   109  ASP109     -0.2715
     92  CB       -29.8160   -1.1090    9.0880 C.3   109  ASP109      0.1450
     93  CG       -30.1320   -1.9110   10.3360 C.2   109  ASP109      0.3671
     94  OD1      -30.7050   -1.3550   11.3310 O.co2 109  ASP109     -0.2456
     95  OD2      -29.7900   -3.1540   10.2670 O.co2 109  ASP109     -0.2456
     96  N        -29.2190    2.0580    8.6320 N.am  110  ARG110     -0.1963
     97  CA       -28.1970    2.8270    7.9300 C.3   110  ARG110      0.1729
     98  C        -26.8720    2.0520    8.0100 C.2   110  ARG110      0.2616
     99  O        -26.5180    1.5230    9.0480 O.2   110  ARG110     -0.2715
    100  CB       -28.0630    4.2120    8.5590 C.3   110  ARG110      0.0348
    101  CG       -27.0620    5.1230    7.8680 C.3   110  ARG110      0.0492
    102  CD       -25.6650    5.0560    8.5720 C.3   110  ARG110      0.2205
    103  NE       -24.8040    6.0830    8.0030 N.pl3 110  ARG110     -0.0865
    104  CZ       -24.7730    7.3590    8.3780 C.cat 110  ARG110      0.5346
    105  NH1      -23.9120    8.1910    7.7930 N.pl3 110  ARG110      0.1354
    106  NH2      -25.5630    7.8140    9.3540 N.pl3 110  ARG110      0.1354
    107  N        -26.1440    2.0300    6.8940 N.am  111  PHE111     -0.1960
    108  CA       -24.8780    1.3220    6.7730 C.3   111  PHE111      0.1771
    109  C        -23.7380    2.2960    6.4370 C.2   111  PHE111      0.2620
    110  O        -23.9490    3.4690    6.1860 O.2   111  PHE111     -0.2715
    111  CB       -25.0170    0.2310    5.7050 C.3   111  PHE111      0.0574
    112  CG       -25.9120   -0.8940    6.1310 C.ar  111  PHE111     -0.0200
    113  CD1      -25.4920   -1.8120    7.0700 C.ar  111  PHE111     -0.0042
    114  CD2      -27.1520   -1.0240    5.5810 C.ar  111  PHE111     -0.0042
    115  CE1      -26.3210   -2.8710    7.4820 C.ar  111  PHE111     -0.0003
    116  CE2      -28.0180   -2.0740    5.9700 C.ar  111  PHE111     -0.0003
    117  CZ       -27.6050   -2.9710    6.9340 C.ar  111  PHE111     -0.0000
    118  N        -22.5130    1.7730    6.4240 N.am  112  GLY112     -0.1940
    119  CA       -21.3540    2.5030    5.9340 C.3   112  GLY112      0.2014
    120  C        -21.2320    2.3950    4.4220 C.2   112  GLY112      0.2640
    121  O        -22.2260    2.4530    3.6750 O.2   112  GLY112     -0.2714
    122  N        -20.0090    2.2580    3.9450 N.am  113  SER113     -0.1935
    123  CA       -19.7450    2.2700    2.5200 C.3   113  SER113      0.2055
    124  C        -20.2220    0.9790    1.8420 C.2   113  SER113      0.2643
    125  O        -20.2700   -0.0810    2.4700 O.2   113  SER113     -0.2714
    126  CB       -18.2430    2.4080    2.2620 C.3   113  SER113      0.2130
    127  OG       -17.9910    2.4770    0.8660 O.3   113  SER113     -0.2179
    128  N        -20.5330    1.0890    0.5610 N.am  114  ASP114     -0.1971
    129  CA       -20.7510   -0.1070   -0.2640 C.3   114  ASP114      0.1709
    130  C        -19.3850   -0.6400   -0.6940 C.2   114  ASP114      0.2293
    131  O        -18.3870    0.1020   -0.7020 O.2   114  ASP114     -0.2864
    132  CB       -21.6570    0.1670   -1.4610 C.3   114  ASP114      0.1436
    133  CG       -21.0290    1.0970   -2.4710 C.2   114  ASP114      0.3671
    134  OD1      -21.0350    2.3070   -2.1900 O.co2 114  ASP114     -0.2456
    135  OD2      -20.5470    0.6300   -3.5170 O.co2 114  ASP114     -0.2456
    136  N        -17.4410    0.9570   -4.0760 N.3   117  LYS117     -0.1245
    137  CA       -16.5600    2.1270   -3.8460 C.3   117  LYS117      0.1561
    138  C        -15.1700    1.6970   -3.3540 C.2   117  LYS117      0.2260
    139  O        -14.1580    2.1490   -3.8810 O.2   117  LYS117     -0.2867
    140  CB       -17.1790    3.1370   -2.8680 C.3   117  LYS117      0.0271
    141  CG       -18.3920    3.8970   -3.3880 C.3   117  LYS117      0.0035
    142  CD       -18.7080    5.1340   -2.5180 C.3   117  LYS117      0.0206
    143  CE       -20.1930    5.4480   -2.2520 C.3   117  LYS117      0.1093
    144  NZ       -21.1990    4.8440   -3.1880 N.3   117  LYS117     -0.1314
    145  N        -22.9650   -3.7550    1.7010 N.3   161  LEU161     -0.1245
    146  CA       -22.6630   -2.5920    2.5410 C.3   161  LEU161      0.1561
    147  C        -22.0500   -3.0510    3.8440 C.2   161  LEU161      0.2260
    148  O        -22.4200   -4.0900    4.3880 O.2   161  LEU161     -0.2867
    149  CB       -23.9420   -1.7840    2.8060 C.3   161  LEU161      0.0270
    150  CG       -24.4790   -0.9140    1.6770 C.3   161  LEU161      0.0019
    151  CD1      -24.4570   -1.5280    0.3130 C.3   161  LEU161      0.0001
    152  CD2      -25.8880   -0.4570    1.9930 C.3   161  LEU161      0.0001
    153  N        -27.8960   -6.1090    0.5960 N.3   173  VAL173     -0.1231
    154  CA       -29.0950   -5.2760    0.5290 C.3   173  VAL173      0.1692
    155  C        -29.7870   -5.4090   -0.8240 C.2   173  VAL173      0.2592
    156  O        -29.3260   -6.0810   -1.7430 O.2   173  VAL173     -0.2718
    157  CB       -28.7570   -3.7820    0.8360 C.3   173  VAL173      0.0266
    158  CG1      -27.9450   -3.6960    2.1300 C.3   173  VAL173      0.0020
    159  CG2      -28.0030   -3.1050   -0.3130 C.3   173  VAL173      0.0020
    160  N        -30.9370   -4.7790   -0.8950 N.am  174  ASP174     -0.1974
    161  CA       -31.7680   -4.6420   -2.0790 C.3   174  ASP174      0.1709
    162  C        -32.4250   -5.9560   -2.5050 C.2   174  ASP174      0.2293
    163  O        -31.9050   -6.6720   -3.3340 O.2   174  ASP174     -0.2864
    164  CB       -30.9970   -3.9860   -3.2470 C.3   174  ASP174      0.1436
    165  CG       -31.9440   -3.4840   -4.3370 C.2   174  ASP174      0.3671
    166  OD1      -33.1410   -3.8630   -4.3370 O.co2 174  ASP174     -0.2456
    167  OD2      -31.4590   -2.7250   -5.1940 O.co2 174  ASP174     -0.2456
@<TRIPOS>BOND
     1    16    15    2
     2    14    15    1
     3    14    13    1
     4    15    17   am
     5   167   165   ar
     6    17    18    1
     7    19    18    1
     8    19    20    2
     9    18    21    1
    10    12    11    2
    11   165   166   ar
    12   165   164    1
    13   136   137    1
    14   139   138    2
    15   137   138    1
    16   137   140    1
    17    11    10    1
    18   135   133   ar
    19   141   140    1
    20   141   142    1
    21   163   162    2
    22    21    22    1
    23   164   161    1
    24    23    22   ar
    25    23    25   ar
    26   144   143    1
    27    22    24   ar
    28    25    27   ar
    29   142   143    1
    30   162   161    1
    31   133   134   ar
    32   133   132    1
    33    10     9    1
    34    24    26   ar
    35    27    26   ar
    36   161   160    1
    37    52    53    1
    38   156   155    2
    39    28    29    1
    40   132   129    1
    41     4     3    2
    42    59    58   ar
    43     9     3   am
    44    56    53    1
    45    56    57    1
    46    33    35    1
    47    33    32    1
    48    53    54    1
    49   160   155   am
    50    51    50    1
    51   155   154    1
    52   131   130    2
    53   130   129    1
    54     3     2    1
    55    50    49    1
    56    58    60   ar
    57    58    57    1
    58   159   157    1
    59   129   128    1
    60    29    32    1
    61    29    30    1
    62    32    34    1
    63    31    30    2
    64    45    44    1
    65    45    46    2
    66   151   150    1
    67    47    44    1
    68    47    48    1
    69    54    55    2
    70   154   153    1
    71   154   157    1
    72   128   124   am
    73     2     1    1
    74     2     5    1
    75    44    43    1
    76    49    48    1
    77   157   158    1
    78   127   126    1
    79   150   152    1
    80   150   149    1
    81   145   146    1
    82     6     5    1
    83     6     8    1
    84   124   125    2
    85   124   123    1
    86     5     7    1
    87   126   123    1
    88   123   122    1
    89   146   149    1
    90   146   147    1
    91    70    68   ar
    92    70    71   ar
    93    68    66   ar
    94    61    62    1
    95    72    71    1
    96   121   120    2
    97   147   148    2
    98    71    69   ar
    99   122   120   am
   100   120   119    1
   101    42    40    1
   102    85    86    1
   103    85    84    1
   104    66    65    1
   105    66    67   ar
   106    62    65    1
   107    62    63    1
   108    40    41    1
   109    40    37    1
   110    78    79    1
   111    78    77    1
   112    86    87    1
   113    79    73    1
   114    69    67   ar
   115   114   116   ar
   116   114   112   ar
   117    38    37    1
   118    38    39    2
   119   111   112    1
   120   111   108    1
   121    84    81    1
   122    63    64    2
   123   119   118    1
   124   116   117   ar
   125    37    36    1
   126   112   113   ar
   127    77    74    1
   128   110   109    2
   129   118   109   am
   130   109   108    1
   131    73    74    1
   132   108   107    1
   133    91    90    2
   134   107    98   am
   135   117   115   ar
   136    80    81    1
   137   113   115   ar
   138    81    82    1
   139    74    75    1
   140   105   104    1
   141    76    75    2
   142   101   100    1
   143   101   102    1
   144    82    83    2
   145    82    88   am
   146    97    98    1
   147    97   100    1
   148    97    96    1
   149   103   104    2
   150   103   102    1
   151    98    99    2
   152    90    96   am
   153    90    89    1
   154    88    89    1
   155   104   106    1
   156    89    92    1
   157    92    93    1
   158    95    93   ar
   159    93    94   ar
