@<TRIPOS>MOLECULE
tmp/6bu7B02.pdb
 91 89 0 0 0
SMALL
GASTEIGER

@<TRIPOS>ATOM
      1  N         15.6040    3.8930   16.1250 N.3    14  SER14      -0.1217
      2  CA        15.8950    2.4860   16.3820 C.3    14  SER14       0.1889
      3  C         15.2320    2.0110   17.6690 C.2    14  SER14       0.2288
      4  O         14.3470    1.1510   17.6460 O.2    14  SER14      -0.2866
      5  CB        17.4060    2.2690   16.4410 C.3    14  SER14       0.2089
      6  OG        17.9940    2.5340   15.1770 O.3    14  SER14      -0.2183
      7  N         11.1490    2.7400   17.8950 N.3    17  LEU17      -0.1231
      8  CA        10.2720    1.8920   17.0940 C.3    17  LEU17       0.1693
      9  C         10.1710    0.4950   17.6830 C.2    17  LEU17       0.2591
     10  O          9.0720   -0.0510   17.8300 O.2    17  LEU17      -0.2718
     11  CB        10.7710    1.8320   15.6530 C.3    17  LEU17       0.0284
     12  CG        10.4570    3.0580   14.8020 C.3    17  LEU17       0.0019
     13  CD1       10.6420    2.7190   13.3360 C.3    17  LEU17       0.0001
     14  CD2        9.0430    3.5540   15.0730 C.3    17  LEU17       0.0001
     15  N         11.3130   -0.1090   18.0130 N.am   18  GLU18      -0.1979
     16  CA        11.2950   -1.4200   18.6470 C.3    18  GLU18       0.1602
     17  C         10.3860   -1.4070   19.8660 C.2    18  GLU18       0.2287
     18  O          9.5530   -2.3000   20.0510 O.2    18  GLU18      -0.2864
     19  CB        12.7150   -1.8300   19.0370 C.3    18  GLU18       0.0415
     20  CG        12.8100   -3.2050   19.6630 C.3    18  GLU18       0.1163
     21  CD        12.7330   -4.3160   18.6360 C.2    18  GLU18       0.3649
     22  OE1       12.2130   -4.0670   17.5240 O.co2  18  GLU18      -0.2457
     23  OE2       13.2030   -5.4350   18.9370 O.co2  18  GLU18      -0.2457
     24  N          6.4240   -0.9570   18.5980 N.3    21  TRP21      -0.1241
     25  CA         5.9930   -2.1700   17.9120 C.3    21  TRP21       0.1605
     26  C          5.8090   -3.3300   18.8830 C.2    21  TRP21       0.2264
     27  O          4.7490   -3.9630   18.9170 O.2    21  TRP21      -0.2867
     28  CB         7.0080   -2.5350   16.8330 C.3    21  TRP21       0.0550
     29  CG         6.6870   -3.8000   16.1240 C.ar   21  TRP21       0.0003
     30  CD1        7.2420   -5.0270   16.3420 C.ar   21  TRP21       0.0946
     31  CD2        5.7340   -3.9690   15.0740 C.ar   21  TRP21       0.0152
     32  NE1        6.6920   -5.9530   15.4890 N.ar   21  TRP21      -0.2442
     33  CE2        5.7620   -5.3280   14.7000 C.ar   21  TRP21       0.0810
     34  CE3        4.8580   -3.1040   14.4130 C.ar   21  TRP21       0.0012
     35  CZ2        4.9470   -5.8420   13.6950 C.ar   21  TRP21       0.0191
     36  CZ3        4.0500   -3.6150   13.4160 C.ar   21  TRP21       0.0001
     37  CH2        4.1000   -4.9710   13.0650 C.ar   21  TRP21       0.0015
     38  N          8.0130    1.8810    4.0650 N.3   109  SER109     -0.1202
     39  CA         7.4900    0.6580    4.6600 C.3   109  SER109      0.2020
     40  C          7.1580    0.8490    6.1330 C.2   109  SER109      0.2619
     41  O          6.1360    0.3440    6.6070 O.2   109  SER109     -0.2717
     42  CB         8.4910   -0.4810    4.4890 C.3   109  SER109      0.2103
     43  OG         9.6190   -0.2790    5.3160 O.3   109  SER109     -0.2182
     44  N          8.0100    1.5580    6.8750 N.am  110  TYR110     -0.1961
     45  CA         7.7000    1.8450    8.2730 C.3   110  TYR110      0.1771
     46  C          6.3520    2.5450    8.3910 C.2   110  TYR110      0.2619
     47  O          5.5060    2.1590    9.2040 O.2   110  TYR110     -0.2715
     48  CB         8.8180    2.6760    8.9050 C.3   110  TYR110      0.0574
     49  CG        10.0180    1.8540    9.3270 C.ar  110  TYR110     -0.0198
     50  CD1        9.9700    0.4640    9.3180 C.ar  110  TYR110     -0.0009
     51  CD2       11.1910    2.4630    9.7420 C.ar  110  TYR110     -0.0009
     52  CE1       11.0620   -0.2940    9.7070 C.ar  110  TYR110      0.0417
     53  CE2       12.2860    1.7140   10.1330 C.ar  110  TYR110      0.0417
     54  CZ        12.2180    0.3370   10.1140 C.ar  110  TYR110      0.1957
     55  OH        13.3110   -0.4060   10.5020 O.3   110  TYR110     -0.2866
     56  N          6.1270    3.5740    7.5830 N.am  111  GLU111     -0.1963
     57  CA         4.7650    4.0360    7.3850 C.3   111  GLU111      0.1733
     58  C          3.9840    2.9370    6.6840 C.2   111  GLU111      0.2617
     59  O          4.5210    2.1960    5.8600 O.2   111  GLU111     -0.2715
     60  CB         4.7380    5.3220    6.5640 C.3   111  GLU111      0.0429
     61  CG         3.4780    6.1470    6.7520 C.3   111  GLU111      0.1163
     62  CD         3.5250    7.4580    5.9880 C.2   111  GLU111      0.3649
     63  OE1        3.8700    7.4340    4.7850 O.co2 111  GLU111     -0.2457
     64  OE2        3.2250    8.5110    6.5940 O.co2 111  GLU111     -0.2457
     65  N          2.7160    2.8100    7.0260 N.am  112  GLY112     -0.1940
     66  CA         1.9460    1.6660    6.5690 C.3   112  GLY112      0.2014
     67  C          2.0180    0.5390    7.5740 C.2   112  GLY112      0.2638
     68  O          1.0210   -0.1440    7.8160 O.2   112  GLY112     -0.2714
     69  N          3.1940    0.3320    8.1720 N.am  113  MET113     -0.1976
     70  CA         3.2490   -0.4350    9.4110 C.3   113  MET113      0.1605
     71  C          2.3720    0.2160   10.4740 C.2   113  MET113      0.2287
     72  O          1.6080   -0.4640   11.1690 O.2   113  MET113     -0.2864
     73  CB         4.6900   -0.5560    9.9000 C.3   113  MET113      0.0413
     74  CG         4.8040   -1.0470   11.3400 C.3   113  MET113      0.0598
     75  SD         6.4480   -0.8090   12.0550 S.3   113  MET113     -0.1393
     76  CE         6.5240    0.9770   12.1790 C.3   113  MET113      0.0692
     77  N         -1.3430   -0.0930    9.3110 N.3   116  ASP116     -0.1225
     78  CA        -1.9220   -1.4280    9.3510 C.3   116  ASP116      0.1805
     79  C         -1.8800   -2.0740   10.7290 C.2   116  ASP116      0.2598
     80  O         -2.3970   -3.1860   10.8860 O.2   116  ASP116     -0.2718
     81  CB        -1.2170   -2.3390    8.3370 C.3   116  ASP116      0.1424
     82  CG        -1.5020   -1.9430    6.9000 C.2   116  ASP116      0.3668
     83  OD1       -2.0950   -0.8650    6.6870 O.co2 116  ASP116     -0.2456
     84  OD2       -1.1430   -2.7120    5.9830 O.co2 116  ASP116     -0.2456
     85  N         -1.2930   -1.4220   11.7300 N.am  117  THR117     -0.1953
     86  CA        -1.1710   -1.9960   13.0690 C.3   117  THR117      0.1897
     87  C         -2.0180   -1.1760   14.0340 C.2   117  THR117      0.2313
     88  O         -1.6830   -0.0270   14.3420 O.2   117  THR117     -0.2863
     89  CB         0.2900   -2.0430   13.5200 C.3   117  THR117      0.1794
     90  OG1        1.0310   -2.9320   12.6730 O.3   117  THR117     -0.2208
     91  CG2        0.3900   -2.5410   14.9540 C.3   117  THR117      0.0378
@<TRIPOS>BOND
     1    38    39    1
     2    42    39    1
     3    42    43    1
     4    39    40    1
     5    63    62   ar
     6    59    58    2
     7    84    82   ar
     8    62    64   ar
     9    62    61    1
    10    40    41    2
    11    40    44   am
    12    60    61    1
    13    60    57    1
    14    66    65    1
    15    66    67    1
    16    58    65   am
    17    58    57    1
    18    83    82   ar
    19    44    45    1
    20    82    81    1
    21    57    56    1
    22    67    68    2
    23    67    69   am
    24    56    46   am
    25    69    70    1
    26    45    46    1
    27    45    48    1
    28    81    78    1
    29    46    47    2
    30    48    49    1
    31    77    78    1
    32    50    49   ar
    33    50    52   ar
    34    49    51   ar
    35    78    79    1
    36    70    73    1
    37    70    71    1
    38    52    54   ar
    39    51    53   ar
    40    73    74    1
    41    54    53   ar
    42    54    55    1
    43    71    72    2
    44    79    80    2
    45    79    85   am
    46    74    75    1
    47    85    86    1
    48    75    76    1
    49    90    89    1
    50    37    36   ar
    51    37    35   ar
    52    86    89    1
    53    86    87    1
    54    13    12    1
    55    36    34   ar
    56    89    91    1
    57    35    33   ar
    58    87    88    2
    59    34    31   ar
    60    33    31   ar
    61    33    32   ar
    62    12    14    1
    63    12    11    1
    64    31    29   ar
    65     6     5    1
    66    32    30   ar
    67    11     8    1
    68    29    30   ar
    69    29    28    1
    70     1     2    1
    71     2     5    1
    72     2     3    1
    73    28    25    1
    74     8     9    1
    75     8     7    1
    76    22    21   ar
    77     4     3    2
    78     9    10    2
    79     9    15   am
    80    25    24    1
    81    25    26    1
    82    15    16    1
    83    21    23   ar
    84    21    20    1
    85    16    19    1
    86    16    17    1
    87    26    27    2
    88    19    20    1
    89    17    18    2
