@<TRIPOS>MOLECULE
tmp/6bu7B03.pdb
 101 99 0 0 0
SMALL
GASTEIGER

@<TRIPOS>ATOM
      1  N         38.3220   14.5330   13.1920 N.3   195  GLY195     -0.1210
      2  CA        37.9860   13.5760   14.2230 C.3   195  GLY195      0.1956
      3  C         38.6170   12.2340   13.9430 C.2   195  GLY195      0.2612
      4  O         38.6900   11.8140   12.7850 O.2   195  GLY195     -0.2717
      5  N         39.0850   11.5550   14.9840 N.am  196  GLY196     -0.1942
      6  CA        39.6660   10.2370   14.8450 C.3   196  GLY196      0.2014
      7  C         38.7000    9.0860   15.0230 C.2   196  GLY196      0.2639
      8  O         39.1390    7.9370   15.1420 O.2   196  GLY196     -0.2714
      9  N         37.3950    9.3540   15.0410 N.am  197  GLY197     -0.1939
     10  CA        36.4110    8.3250   15.2830 C.3   197  GLY197      0.2014
     11  C         36.0060    7.5910   14.0220 C.2   197  GLY197      0.2639
     12  O         36.5440    7.7950   12.9330 O.2   197  GLY197     -0.2714
     13  N         35.0110    6.7150   14.1830 N.am  198  PHE198     -0.1959
     14  CA        34.6300    5.8470   13.0780 C.3   198  PHE198      0.1771
     15  C         33.8980    6.6120   11.9820 C.2   198  PHE198      0.2619
     16  O         33.9400    6.2070   10.8140 O.2   198  PHE198     -0.2715
     17  CB        33.7820    4.6860   13.5970 C.3   198  PHE198      0.0574
     18  CG        32.3540    5.0390   13.8360 C.ar  198  PHE198     -0.0200
     19  CD1       31.9700    5.6710   15.0020 C.ar  198  PHE198     -0.0042
     20  CD2       31.3900    4.7270   12.8980 C.ar  198  PHE198     -0.0042
     21  CE1       30.6510    5.9940   15.2260 C.ar  198  PHE198     -0.0003
     22  CE2       30.0680    5.0480   13.1130 C.ar  198  PHE198     -0.0003
     23  CZ        29.6980    5.6830   14.2800 C.ar  198  PHE198     -0.0000
     24  N         33.2390    7.7200   12.3270 N.am  199  ILE199     -0.1977
     25  CA        32.5280    8.4940   11.3150 C.3   199  ILE199      0.1596
     26  C         33.5120    9.2140   10.4010 C.2   199  ILE199      0.2287
     27  O         33.3650    9.2050    9.1720 O.2   199  ILE199     -0.2864
     28  CB        31.5450    9.4700   11.9870 C.3   199  ILE199      0.0276
     29  CG1       30.5050    8.6890   12.7930 C.3   199  ILE199      0.0022
     30  CG2       30.8540   10.3330   10.9450 C.3   199  ILE199      0.0022
     31  CD1       29.7320    9.5270   13.7540 C.3   199  ILE199      0.0001
     32  N         43.2540   14.6390   13.3460 N.3   221  TYR221     -0.1227
     33  CA        42.8080   14.2270   14.6690 C.3   221  TYR221      0.1736
     34  C         43.7330   14.8540   15.7000 C.2   221  TYR221      0.2595
     35  O         44.9540   14.7130   15.6010 O.2   221  TYR221     -0.2718
     36  CB        42.8020   12.7000   14.7990 C.3   221  TYR221      0.0548
     37  CG        42.5270   12.2150   16.2010 C.ar  221  TYR221     -0.0200
     38  CD1       41.3860   12.6140   16.8790 C.ar  221  TYR221     -0.0009
     39  CD2       43.4040   11.3560   16.8470 C.ar  221  TYR221     -0.0009
     40  CE1       41.1250   12.1760   18.1600 C.ar  221  TYR221      0.0417
     41  CE2       43.1480   10.9100   18.1320 C.ar  221  TYR221      0.0417
     42  CZ        42.0060   11.3240   18.7820 C.ar  221  TYR221      0.1957
     43  OH        41.7380   10.8890   20.0600 O.3   221  TYR221     -0.2866
     44  N         43.1500   15.5350   16.6900 N.am  222  ARG222     -0.1966
     45  CA        43.9490   16.3660   17.5810 C.3   222  ARG222      0.1729
     46  C         44.9520   15.5640   18.3990 C.2   222  ARG222      0.2616
     47  O         45.8890   16.1510   18.9530 O.2   222  ARG222     -0.2715
     48  CB        43.0400   17.1750   18.5070 C.3   222  ARG222      0.0348
     49  CG        42.0990   16.3630   19.3800 C.3   222  ARG222      0.0492
     50  CD        41.1800   17.3080   20.1440 C.3   222  ARG222      0.2205
     51  NE        40.3210   16.6300   21.1120 N.pl3 222  ARG222     -0.0865
     52  CZ        40.6500   16.4150   22.3840 C.cat 222  ARG222      0.5346
     53  NH1       41.8280   16.8140   22.8480 N.pl3 222  ARG222      0.1354
     54  NH2       39.7980   15.8010   23.1940 N.pl3 222  ARG222      0.1354
     55  N         44.7940   14.2470   18.4780 N.am  223  ASN223     -0.1972
     56  CA        45.7180   13.4190   19.2330 C.3   223  ASN223      0.1688
     57  C         46.6400   12.6490   18.2850 C.2   223  ASN223      0.2292
     58  O         46.6390   12.8560   17.0670 O.2   223  ASN223     -0.2864
     59  CB        44.9390   12.5010   20.1730 C.3   223  ASN223      0.1181
     60  CG        44.3010   13.2600   21.3140 C.2   223  ASN223      0.2629
     61  OD1       44.8270   14.2770   21.7630 O.2   223  ASN223     -0.2716
     62  ND2       43.1610   12.7740   21.7880 N.am  223  ASN223     -0.0877
     63  N         40.7770    5.8640   19.0340 N.3   228  ARG228     -0.1245
     64  CA        40.8640    5.5900   20.4600 C.3   228  ARG228      0.1563
     65  C         39.8010    4.5710   20.8640 C.2   228  ARG228      0.2260
     66  O         38.7020    4.5270   20.3010 O.2   228  ARG228     -0.2867
     67  CB        40.6910    6.8910   21.2510 C.3   228  ARG228      0.0307
     68  CG        40.7120    6.7360   22.7640 C.3   228  ARG228      0.0489
     69  CD        40.4850    8.0790   23.4520 C.3   228  ARG228      0.2205
     70  NE        41.6600    8.5320   24.1930 N.pl3 228  ARG228     -0.0865
     71  CZ        42.7270    9.0970   23.6340 C.cat 228  ARG228      0.5346
     72  NH1       42.7760    9.2740   22.3210 N.pl3 228  ARG228      0.1354
     73  NH2       43.7500    9.4810   24.3870 N.pl3 228  ARG228      0.1354
     74  N         33.4200   15.6100   12.5350 N.3   284  ALA284     -0.1231
     75  CA        32.9360   14.3880   13.1510 C.3   284  ALA284      0.1694
     76  C         33.7280   14.1480   14.4360 C.2   284  ALA284      0.2592
     77  O         34.3660   13.1150   14.6300 O.2   284  ALA284     -0.2718
     78  CB        33.0340   13.2120   12.1830 C.3   284  ALA284      0.0304
     79  N         33.6860   15.1340   15.3410 N.am  285  ILE285     -0.1966
     80  CA        34.4470   15.0510   16.5850 C.3   285  ILE285      0.1727
     81  C         33.6520   14.4280   17.7220 C.2   285  ILE285      0.2617
     82  O         34.1810   14.2920   18.8350 O.2   285  ILE285     -0.2715
     83  CB        34.9620   16.4350   17.0310 C.3   285  ILE285      0.0290
     84  CG1       33.8020   17.2980   17.5250 C.3   285  ILE285      0.0022
     85  CG2       35.7160   17.1140   15.8970 C.3   285  ILE285      0.0023
     86  CD1       34.1980   18.7190   17.8800 C.3   285  ILE285      0.0001
     87  N         32.4140   14.0370   17.4830 N.am  286  GLY286     -0.1940
     88  CA        31.6100   13.4110   18.5150 C.3   286  GLY286      0.2014
     89  C         30.1460   13.7320   18.3240 C.2   286  GLY286      0.2638
     90  O         29.7590   14.5140   17.4570 O.2   286  GLY286     -0.2714
     91  N         29.3220   13.1030   19.1600 N.am  287  ARG287     -0.1977
     92  CA        27.8800   13.2900   19.0880 C.3   287  ARG287      0.1597
     93  C         27.3090   13.3870   20.4930 C.2   287  ARG287      0.2287
     94  O         27.5840   12.5320   21.3400 O.2   287  ARG287     -0.2864
     95  CB        27.2220   12.1510   18.3140 C.3   287  ARG287      0.0334
     96  CG        27.7620   12.0030   16.9030 C.3   287  ARG287      0.0492
     97  CD        27.1640   10.7920   16.2110 C.3   287  ARG287      0.2205
     98  NE        25.7060   10.8340   16.1960 N.pl3 287  ARG287     -0.0865
     99  CZ        24.9940   11.5910   15.3700 C.cat 287  ARG287      0.5346
    100  NH1       25.6120   12.3750   14.4960 N.pl3 287  ARG287      0.1354
    101  NH2       23.6670   11.5670   15.4180 N.pl3 287  ARG287      0.1354
@<TRIPOS>BOND
     1    27    26    2
     2    26    25    1
     3    16    15    2
     4    30    28    1
     5    25    28    1
     6    25    24    1
     7    15    24   am
     8    15    14    1
     9    28    29    1
    10    78    75    1
    11    74    75    1
    12     4     3    2
    13    29    31    1
    14    20    22   ar
    15    20    18   ar
    16    12    11    2
    17    14    17    1
    18    14    13    1
    19    22    23   ar
    20    75    76    1
    21     1     2    1
    22    32    33    1
    23    17    18    1
    24    18    19   ar
    25     3     2    1
    26     3     5   am
    27    11    13   am
    28    11    10    1
    29    23    21   ar
    30    76    77    2
    31    76    79   am
    32   100    99    1
    33    33    36    1
    34    33    34    1
    35    36    37    1
    36     6     5    1
    37     6     7    1
    38    19    21   ar
    39     7     9   am
    40     7     8    2
    41     9    10    1
    42    79    80    1
    43    99   101    1
    44    99    98    2
    45    35    34    2
    46    34    44   am
    47    85    83    1
    48    98    97    1
    49    37    39   ar
    50    37    38   ar
    51    97    96    1
    52    80    83    1
    53    80    81    1
    54    44    45    1
    55    39    41   ar
    56    38    40   ar
    57    96    95    1
    58    83    84    1
    59    58    57    2
    60    90    89    2
    61    87    81   am
    62    87    88    1
    63    84    86    1
    64    45    46    1
    65    45    48    1
    66    81    82    2
    67    41    42   ar
    68    40    42   ar
    69    57    56    1
    70    95    92    1
    71    89    88    1
    72    89    91   am
    73    46    55   am
    74    46    47    2
    75    55    56    1
    76    48    49    1
    77    42    43    1
    78    63    64    1
    79    92    91    1
    80    92    93    1
    81    56    59    1
    82    49    50    1
    83    50    51    1
    84    59    60    1
    85    66    65    2
    86    64    65    1
    87    64    67    1
    88    93    94    2
    89    51    52    2
    90    67    68    1
    91    60    61    2
    92    60    62   am
    93    72    71    1
    94    52    53    1
    95    52    54    1
    96    68    69    1
    97    69    70    1
    98    71    70    2
    99    71    73    1
