@<TRIPOS>MOLECULE
tmp/6bulB02.pdb
 73 67 0 0 0
SMALL
GASTEIGER

@<TRIPOS>ATOM
      1  N         10.1180    0.9170   77.0800 N.3   225  GLU225     -0.1245
      2  CA        11.3770    1.5980   76.8060 C.3   225  GLU225      0.1567
      3  C         11.6010    1.8200   75.3090 C.2   225  GLU225      0.2260
      4  O         11.9650    2.9250   74.9050 O.2   225  GLU225     -0.2867
      5  CB        12.5490    0.8170   77.4000 C.3   225  GLU225      0.0388
      6  CG        13.9370    1.4800   77.1630 C.3   225  GLU225      0.1160
      7  CD        14.1320    2.8010   77.9250 C.2   225  GLU225      0.3649
      8  OE1       14.7500    3.7570   77.3680 O.co2 225  GLU225     -0.2457
      9  OE2       13.6830    2.8940   79.0920 O.co2 225  GLU225     -0.2457
     10  N          7.8790    4.7310   74.3230 N.3   229  GLU229     -0.1245
     11  CA         8.6400    5.9640   74.4230 C.3   229  GLU229      0.1567
     12  C          9.0600    6.4970   73.0660 C.2   229  GLU229      0.2260
     13  O          9.2980    7.7060   72.9150 O.2   229  GLU229     -0.2867
     14  CB         9.8760    5.7070   75.2890 C.3   229  GLU229      0.0388
     15  CG        10.6560    6.9580   75.5720 C.3   229  GLU229      0.1160
     16  CD        11.2910    6.9030   76.9410 C.2   229  GLU229      0.3649
     17  OE1       11.7790    7.9360   77.4060 O.co2 229  GLU229     -0.2457
     18  OE2       11.2970    5.8100   77.5560 O.co2 229  GLU229     -0.2457
     19  N          6.7760    9.2430   72.0300 N.3   232  LEU232     -0.1231
     20  CA         7.0100   10.4950   72.7340 C.3   232  LEU232      0.1693
     21  C          8.2030   11.2610   72.1620 C.2   232  LEU232      0.2591
     22  O          8.1320   12.4810   71.9750 O.2   232  LEU232     -0.2718
     23  CB         7.2000   10.2090   74.2480 C.3   232  LEU232      0.0284
     24  CG         6.0470    9.3960   74.8650 C.3   232  LEU232      0.0019
     25  CD1        6.3150    8.9290   76.3630 C.3   232  LEU232      0.0001
     26  CD2        4.7200   10.1460   74.7860 C.3   232  LEU232      0.0001
     27  N          9.3180   10.5790   71.8900 N.am  233  ILE233     -0.1980
     28  CA        10.4840   11.3270   71.4330 C.3   233  ILE233      0.1595
     29  C         10.2850   11.7720   69.9860 C.2   233  ILE233      0.2287
     30  O         10.6840   12.8730   69.6040 O.2   233  ILE233     -0.2864
     31  CB        11.7790   10.5130   71.6070 C.3   233  ILE233      0.0276
     32  CG1       12.9920   11.4010   71.3370 C.3   233  ILE233      0.0022
     33  CG2       11.8650    9.3920   70.6620 C.3   233  ILE233      0.0022
     34  CD1       13.2880   12.3790   72.4800 C.3   233  ILE233      0.0001
     35  N         15.1340   18.0430   70.8610 N.3   245  VAL245     -0.1245
     36  CA        15.4070   16.7980   71.5530 C.3   245  VAL245      0.1561
     37  C         16.4150   17.0260   72.6600 C.2   245  VAL245      0.2260
     38  O         16.1810   16.6240   73.7940 O.2   245  VAL245     -0.2867
     39  CB        15.8600   15.7120   70.5720 C.3   245  VAL245      0.0252
     40  CG1       16.0900   14.3830   71.3080 C.3   245  VAL245      0.0019
     41  CG2       14.7800   15.5250   69.5740 C.3   245  VAL245      0.0019
     42  N         15.2660   18.4620   75.8530 N.3   248  SER248     -0.1202
     43  CA        14.3170   17.6760   76.6340 C.3   248  SER248      0.2020
     44  C         14.9340   16.4230   77.2470 C.2   248  SER248      0.2619
     45  O         14.2810   15.8010   78.0820 O.2   248  SER248     -0.2717
     46  CB        13.1030   17.2660   75.7750 C.3   248  SER248      0.2103
     47  OG        12.5930   18.3650   75.0170 O.3   248  SER248     -0.2182
     48  N         16.1330   16.0220   76.8350 N.am  249  ILE249     -0.1965
     49  CA        16.7570   14.7840   77.3380 C.3   249  ILE249      0.1727
     50  C         17.9220   15.1090   78.2810 C.2   249  ILE249      0.2616
     51  O         18.4080   16.2360   78.3520 O.2   249  ILE249     -0.2715
     52  CB        17.2300   13.8870   76.1770 C.3   249  ILE249      0.0290
     53  CG1       18.4790   14.4900   75.4820 C.3   249  ILE249      0.0022
     54  CG2       16.0460   13.6560   75.2420 C.3   249  ILE249      0.0023
     55  CD1       19.1410   13.5760   74.3550 C.3   249  ILE249      0.0001
     56  N         18.3760   14.0960   79.0200 N.am  250  SER250     -0.1950
     57  CA        19.4450   14.3460   79.9730 C.3   250  SER250      0.1924
     58  C         20.7980   14.4180   79.2590 C.2   250  SER250      0.2314
     59  O         20.9710   13.9530   78.1290 O.2   250  SER250     -0.2863
     60  CB        19.4620   13.2320   81.0460 C.3   250  SER250      0.2116
     61  OG        19.8860   12.0100   80.3720 O.3   250  SER250     -0.2180
     62  N         23.3110   12.6320   80.2260 N.3   252  THR252     -0.1203
     63  CA        23.6710   11.2190   80.1130 C.3   252  THR252      0.1994
     64  C         23.1670   10.6440   78.8030 C.2   252  THR252      0.2617
     65  O         23.9030    9.9350   78.0900 O.2   252  THR252     -0.2717
     66  CB        23.0500   10.4580   81.2930 C.3   252  THR252      0.1784
     67  OG1       23.1570   11.2430   82.5020 O.3   252  THR252     -0.2211
     68  CG2       23.6960    9.0650   81.4470 C.3   252  THR252      0.0376
     69  N         21.9230   10.9720   78.4400 N.am  253  ALA253     -0.1979
     70  CA        21.3490   10.4400   77.2050 C.3   253  ALA253      0.1597
     71  C         21.9880   11.0830   75.9740 C.2   253  ALA253      0.2287
     72  O         22.2260   10.4040   74.9760 O.2   253  ALA253     -0.2864
     73  CB        19.8340   10.6530   77.1850 C.3   253  ALA253      0.0319
@<TRIPOS>BOND
     1    41    39    1
     2    30    29    2
     3    29    28    1
     4    39    40    1
     5    39    36    1
     6    33    31    1
     7    35    36    1
     8    32    31    1
     9    32    34    1
    10    28    31    1
    11    28    27    1
    12    36    37    1
    13    27    21   am
    14    22    21    2
    15    19    20    1
    16    21    20    1
    17    37    38    2
    18    20    23    1
    19    13    12    2
    20    12    11    1
    21    23    24    1
    22    10    11    1
    23    55    53    1
    24    11    14    1
    25    26    24    1
    26    24    25    1
    27     4     3    2
    28    72    71    2
    29    47    46    1
    30    54    52    1
    31    14    15    1
    32     3     2    1
    33    53    52    1
    34    15    16    1
    35    46    43    1
    36    42    43    1
    37    71    70    1
    38    52    49    1
    39    43    44    1
    40     2     1    1
    41     2     5    1
    42    48    44   am
    43    48    49    1
    44    16    17   ar
    45    16    18   ar
    46     6     5    1
    47     6     7    1
    48    73    70    1
    49    70    69    1
    50    44    45    2
    51    49    50    1
    52     8     7   ar
    53     7     9   ar
    54    65    64    2
    55    59    58    2
    56    50    51    2
    57    50    56   am
    58    69    64   am
    59    64    63    1
    60    56    57    1
    61    58    57    1
    62    57    60    1
    63    63    62    1
    64    63    66    1
    65    61    60    1
    66    66    68    1
    67    66    67    1
