@<TRIPOS>MOLECULE
tmp/6bulB04.pdb
 76 73 0 0 0
SMALL
GASTEIGER

@<TRIPOS>ATOM
      1  N         -1.5410   -1.3940   44.2330 N.3    81  ASP81      -0.1239
      2  CA        -0.6250   -1.1930   43.1060 C.3    81  ASP81       0.1674
      3  C         -0.4160   -2.4720   42.2820 C.2    81  ASP81       0.2266
      4  O         -0.1870   -2.3970   41.0630 O.2    81  ASP81      -0.2867
      5  CB         0.7200   -0.6590   43.6380 C.3    81  ASP81       0.1410
      6  CG         0.5790    0.7210   44.2750 C.2    81  ASP81       0.3668
      7  OD1        0.2760    1.6750   43.5360 O.co2  81  ASP81      -0.2456
      8  OD2        0.7350    0.8700   45.5410 O.co2  81  ASP81      -0.2456
      9  N         -0.0290    7.2820   43.7940 N.3   106  HIS106     -0.1241
     10  CA         1.3300    6.7620   43.8760 C.3   106  HIS106      0.1621
     11  C          1.7380    6.5330   42.4200 C.2   106  HIS106      0.2264
     12  O          0.9350    6.0350   41.6310 O.2   106  HIS106     -0.2867
     13  CB         1.3300    5.4840   44.7080 C.3   106  HIS106      0.0745
     14  CG         2.6640    4.8140   44.8830 C.ar  106  HIS106      0.0817
     15  ND1        3.8560    5.4980   45.0140 N.ar  106  HIS106     -0.2268
     16  CD2        2.9750    3.5000   44.9680 C.ar  106  HIS106      0.1154
     17  CE1        4.8460    4.6320   45.1720 C.ar  106  HIS106      0.1986
     18  NE2        4.3310    3.4140   45.1960 N.ar  106  HIS106     -0.2212
     19  N         -0.9310   11.9580   48.8760 N.3   128  PRO128     -0.2102
     20  CA        -0.8570   12.4190   50.2590 C.3   128  PRO128      0.1504
     21  C          0.2310   11.6700   51.0200 C.2   128  PRO128      0.2576
     22  O          0.4180   10.4670   50.8580 O.2   128  PRO128     -0.2718
     23  CB        -2.2410   12.0880   50.8140 C.3   128  PRO128      0.0282
     24  CG        -3.1300   11.9000   49.6160 C.3   128  PRO128      0.0208
     25  CD        -2.1840   11.2500   48.6060 C.3   128  PRO128      0.0893
     26  N          0.9580   12.4060   51.8470 N.am  129  LYS129     -0.1966
     27  CA         2.0500   11.8190   52.6110 C.3   129  LYS129      0.1728
     28  C          1.5170   11.3540   53.9670 C.2   129  LYS129      0.2617
     29  O          1.9030   11.8410   55.0340 O.2   129  LYS129     -0.2715
     30  CB         3.2040   12.8120   52.7640 C.3   129  LYS129      0.0311
     31  CG         3.8700   13.1950   51.4000 C.3   129  LYS129      0.0038
     32  CD         4.6440   11.9970   50.7540 C.3   129  LYS129      0.0206
     33  CE         3.9060   11.4140   49.5610 C.3   129  LYS129      0.1093
     34  NZ         4.6200   10.2710   48.7990 N.3   129  LYS129     -0.1314
     35  N          0.6150   10.3850   53.9000 N.am  130  GLY130     -0.1941
     36  CA        -0.0100    9.8420   55.0860 C.3   130  GLY130      0.1998
     37  C         -1.1560    8.9120   54.7550 C.2   130  GLY130      0.2480
     38  O         -1.6980    8.9140   53.6400 O.2   130  GLY130     -0.2729
     39  N         -1.5770    8.1340   55.7580 N.am  131  PRO131     -0.2726
     40  CA        -2.5850    7.0970   55.5400 C.3   131  PRO131      0.1402
     41  C         -3.9530    7.6970   55.2900 C.2   131  PRO131      0.2269
     42  O         -4.2600    8.8060   55.7350 O.2   131  PRO131     -0.2865
     43  CB        -2.5630    6.2990   56.8540 C.3   131  PRO131      0.0296
     44  CG        -2.1470    7.2930   57.8720 C.3   131  PRO131      0.0237
     45  CD        -1.1900    8.2520   57.1720 C.3   131  PRO131      0.0939
     46  N          8.9050    7.5130   47.9120 N.3   189  ASP189     -0.1239
     47  CA         7.8700    6.8490   48.6800 C.3   189  ASP189      0.1674
     48  C          8.2640    5.4050   48.9690 C.2   189  ASP189      0.2266
     49  O          8.2130    4.9420   50.1230 O.2   189  ASP189     -0.2867
     50  CB         6.5570    6.9210   47.9060 C.3   189  ASP189      0.1410
     51  CG         5.3770    6.3260   48.6920 C.2   189  ASP189      0.3668
     52  OD1        4.7490    7.0910   49.3930 O.co2 189  ASP189     -0.2456
     53  OD2        5.0670    5.1280   48.5680 O.co2 189  ASP189     -0.2456
     54  N          9.3190    3.7440   52.9480 N.3   193  GLU193     -0.1245
     55  CA         8.6700    2.5700   53.5240 C.3   193  GLU193      0.1567
     56  C          9.6230    1.3750   53.6350 C.2   193  GLU193      0.2260
     57  O          9.5170    0.6020   54.5970 O.2   193  GLU193     -0.2867
     58  CB         7.3580    2.2310   52.7520 C.3   193  GLU193      0.0388
     59  CG         7.4430    2.1040   51.3350 C.3   193  GLU193      0.1160
     60  CD         6.1160    2.2860   50.5480 C.2   193  GLU193      0.3649
     61  OE1        5.9600    1.4830   49.6270 O.co2 193  GLU193     -0.2457
     62  OE2        5.2380    3.1890   50.7880 O.co2 193  GLU193     -0.2457
     63  N         10.9410    3.7010   57.4560 N.3   197  LEU197     -0.1231
     64  CA         9.6970    3.5650   58.1970 C.3   197  LEU197      0.1693
     65  C          9.4310    2.1060   58.5830 C.2   197  LEU197      0.2592
     66  O          9.9550    1.6160   59.5940 O.2   197  LEU197     -0.2718
     67  CB         8.5510    4.1650   57.3690 C.3   197  LEU197      0.0284
     68  CG         8.8450    5.6030   56.8820 C.3   197  LEU197      0.0019
     69  CD1        7.8970    6.1290   55.7830 C.3   197  LEU197      0.0001
     70  CD2        8.8210    6.5940   58.0770 C.3   197  LEU197      0.0001
     71  N          8.6320    1.3750   57.8070 N.am  198  CYS198     -0.1970
     72  CA         8.3200    0.0040   58.2050 C.3   198  CYS198      0.1712
     73  C          9.5810   -0.8490   58.2530 C.2   198  CYS198      0.2296
     74  O          9.8510   -1.5440   59.2400 O.2   198  CYS198     -0.2864
     75  CB         7.3110   -0.6190   57.2420 C.3   198  CYS198      0.0983
     76  SG         5.9090    0.4270   56.7960 S.3   198  CYS198     -0.0798
@<TRIPOS>BOND
     1     4     3    2
     2    12    11    2
     3     3     2    1
     4    11    10    1
     5     2     5    1
     6     2     1    1
     7     7     6   ar
     8     5     6    1
     9     9    10    1
    10    10    13    1
    11     6     8   ar
    12    13    14    1
    13    14    16   ar
    14    14    15   ar
    15    16    18   ar
    16    15    17   ar
    17    17    18   ar
    18    50    47    1
    19    50    51    1
    20    46    47    1
    21    53    51   ar
    22    25    19    1
    23    25    24    1
    24    47    48    1
    25    51    52   ar
    26    34    33    1
    27    19    20    1
    28    48    49    2
    29    33    32    1
    30    24    23    1
    31    61    60   ar
    32    20    23    1
    33    20    21    1
    34    60    62   ar
    35    60    59    1
    36    32    31    1
    37    22    21    2
    38    21    26   am
    39    59    58    1
    40    31    30    1
    41    26    27    1
    42    27    30    1
    43    27    28    1
    44    58    55    1
    45    54    55    1
    46    55    56    1
    47    56    57    2
    48    38    37    2
    49    35    28   am
    50    35    36    1
    51    28    29    2
    52    37    36    1
    53    37    39   am
    54    41    40    1
    55    41    42    2
    56    40    39    1
    57    40    43    1
    58    39    45    1
    59    69    68    1
    60    76    75    1
    61    43    44    1
    62    68    67    1
    63    68    70    1
    64    45    44    1
    65    75    72    1
    66    67    64    1
    67    63    64    1
    68    71    72    1
    69    71    65   am
    70    64    65    1
    71    72    73    1
    72    73    74    2
    73    65    66    2
