@<TRIPOS>MOLECULE
tmp/6buvB00.pdb
 122 117 0 0 0
SMALL
GASTEIGER

@<TRIPOS>ATOM
      1  N         -5.2210   53.1470   63.2140 N.3   105  ALA105     -0.1231
      2  CA        -4.2450   54.1530   62.7950 C.3   105  ALA105      0.1694
      3  C         -4.7940   55.0430   61.6860 C.2   105  ALA105      0.2592
      4  O         -4.6000   56.2630   61.6980 O.2   105  ALA105     -0.2718
      5  CB        -2.9540   53.4820   62.3200 C.3   105  ALA105      0.0304
      6  N         -5.4610   54.4380   60.7090 N.am  106  ASP106     -0.1974
      7  CA        -6.0660   55.1940   59.6190 C.3   106  ASP106      0.1709
      8  C         -7.0830   56.1990   60.1460 C.2   106  ASP106      0.2293
      9  O         -7.0800   57.3630   59.7470 O.2   106  ASP106     -0.2864
     10  CB        -6.7170   54.2120   58.6560 C.3   106  ASP106      0.1436
     11  CG        -7.0130   54.8120   57.3150 C.2   106  ASP106      0.3671
     12  OD1       -6.1100   54.7950   56.4550 O.co2 106  ASP106     -0.2456
     13  OD2       -8.1510   55.2890   57.1200 O.co2 106  ASP106     -0.2456
     14  N         -7.1940   57.4770   63.0800 N.3   108  LEU108     -0.1231
     15  CA        -6.4640   58.4880   63.8310 C.3   108  LEU108      0.1693
     16  C         -5.8120   59.4990   62.9050 C.2   108  LEU108      0.2592
     17  O         -5.7950   60.6900   63.2060 O.2   108  LEU108     -0.2718
     18  CB        -5.3980   57.8250   64.6950 C.3   108  LEU108      0.0284
     19  CG        -4.5630   58.7290   65.6020 C.3   108  LEU108      0.0019
     20  CD1       -5.4830   59.5400   66.4880 C.3   108  LEU108      0.0001
     21  CD2       -3.5990   57.8640   66.3860 C.3   108  LEU108      0.0001
     22  N         -5.2680   59.0460   61.7770 N.am  109  ALA109     -0.1966
     23  CA        -4.7320   59.9940   60.8080 C.3   109  ALA109      0.1728
     24  C         -5.8060   60.9670   60.3450 C.2   109  ALA109      0.2616
     25  O         -5.5480   62.1720   60.2150 O.2   109  ALA109     -0.2715
     26  CB        -4.1240   59.2470   59.6160 C.3   109  ALA109      0.0334
     27  N         -7.0260   60.4780   60.1110 N.am  110  SER110     -0.1950
     28  CA        -8.0800   61.3710   59.6270 C.3   110  SER110      0.1924
     29  C         -8.4600   62.3970   60.6840 C.2   110  SER110      0.2314
     30  O         -8.6810   63.5670   60.3750 O.2   110  SER110     -0.2863
     31  CB        -9.2940   60.5530   59.2110 C.3   110  SER110      0.2116
     32  OG        -8.9310   59.7010   58.1400 O.3   110  SER110     -0.2180
     33  N         -6.5010   63.6450   62.9700 N.3   112  MET112     -0.1230
     34  CA        -5.4540   64.6540   63.0750 C.3   112  MET112      0.1702
     35  C         -5.4940   65.6090   61.8890 C.2   112  MET112      0.2593
     36  O         -5.3720   66.8280   62.0600 O.2   112  MET112     -0.2718
     37  CB        -4.1100   63.9580   63.2070 C.3   112  MET112      0.0401
     38  CG        -3.9850   63.3180   64.5800 C.3   112  MET112      0.0596
     39  SD        -2.5390   62.2620   64.6590 S.3   112  MET112     -0.1393
     40  CE        -1.2710   63.5260   64.7440 C.3   112  MET112      0.0692
     41  N         -5.7380   65.0860   60.7010 N.am  113  SER113     -0.1938
     42  CA        -5.7630   65.9640   59.5380 C.3   113  SER113      0.2055
     43  C         -6.9150   66.9470   59.6230 C.2   113  SER113      0.2643
     44  O         -6.7790   68.1200   59.2390 O.2   113  SER113     -0.2714
     45  CB        -5.8930   65.1390   58.2640 C.3   113  SER113      0.2130
     46  OG        -5.9100   66.0660   57.1820 O.3   113  SER113     -0.2179
     47  N         -8.0950   66.4590   60.0330 N.am  114  TRP114     -0.1973
     48  CA        -9.3270   67.2440   59.9740 C.3   114  TRP114      0.1640
     49  C         -9.4830   68.1110   61.2120 C.2   114  TRP114      0.2290
     50  O         -9.9440   69.2470   61.1290 O.2   114  TRP114     -0.2864
     51  CB       -10.5400   66.3040   59.8230 C.3   114  TRP114      0.0576
     52  CG       -10.7230   65.8990   58.3910 C.ar  114  TRP114      0.0006
     53  CD1      -10.1080   64.8740   57.7460 C.ar  114  TRP114      0.0946
     54  CD2      -11.5520   66.5570   57.4220 C.ar  114  TRP114      0.0152
     55  NE1      -10.5000   64.8540   56.4190 N.ar  114  TRP114     -0.2442
     56  CE2      -11.3920   65.8740   56.2050 C.ar  114  TRP114      0.0810
     57  CE3      -12.4200   67.6530   57.4740 C.ar  114  TRP114      0.0012
     58  CZ2      -12.0740   66.2440   55.0410 C.ar  114  TRP114      0.0191
     59  CZ3      -13.0950   68.0300   56.3130 C.ar  114  TRP114      0.0001
     60  CH2      -12.9200   67.3220   55.1170 C.ar  114  TRP114      0.0015
     61  N         -4.5080   68.5760   66.4960 N.3   117  TRP117     -0.1241
     62  CA        -4.1990   67.7440   67.6550 C.3   117  TRP117      0.1605
     63  C         -3.3930   68.4090   68.7600 C.2   117  TRP117      0.2264
     64  O         -3.0500   67.7130   69.7200 O.2   117  TRP117     -0.2867
     65  CB        -3.4460   66.4600   67.2050 C.3   117  TRP117      0.0550
     66  CG        -2.0780   66.7350   66.6190 C.ar  117  TRP117      0.0003
     67  CD1       -0.9060   66.9040   67.3050 C.ar  117  TRP117      0.0946
     68  CD2       -1.7490   66.8660   65.2300 C.ar  117  TRP117      0.0152
     69  NE1        0.1200   67.1450   66.4340 N.ar  117  TRP117     -0.2442
     70  CE2       -0.3640   67.1130   65.1520 C.ar  117  TRP117      0.0810
     71  CE3       -2.4890   66.7890   64.0490 C.ar  117  TRP117      0.0012
     72  CZ2        0.2980   67.2910   63.9360 C.ar  117  TRP117      0.0191
     73  CZ3       -1.8330   66.9790   62.8390 C.ar  117  TRP117      0.0001
     74  CH2       -0.4550   67.2240   62.7910 C.ar  117  TRP117      0.0015
     75  N          7.6840   57.7450   57.7920 N.3   135  ILE135     -0.1245
     76  CA         6.6650   57.9950   58.8100 C.3   135  ILE135      0.1561
     77  C          7.3070   58.1090   60.1890 C.2   135  ILE135      0.2260
     78  O          6.7740   58.7890   61.0750 O.2   135  ILE135     -0.2867
     79  CB         5.5800   56.9030   58.7920 C.3   135  ILE135      0.0252
     80  CG1        4.7660   56.9930   57.5020 C.3   135  ILE135      0.0019
     81  CG2        4.6690   57.0460   60.0120 C.3   135  ILE135      0.0019
     82  CD1        3.7810   55.8550   57.3070 C.3   135  ILE135      0.0001
     83  N          8.3460   61.6260   60.5840 N.3   138  LEU138     -0.1231
     84  CA         7.1260   62.3390   60.9470 C.3   138  LEU138      0.1693
     85  C          6.7870   62.1340   62.4170 C.2   138  LEU138      0.2591
     86  O          6.3980   63.0810   63.1100 O.2   138  LEU138     -0.2718
     87  CB         5.9760   61.8690   60.0560 C.3   138  LEU138      0.0284
     88  CG         4.7350   62.7560   59.9390 C.3   138  LEU138      0.0019
     89  CD1        3.8070   62.1820   58.8570 C.3   138  LEU138      0.0001
     90  CD2        4.0150   62.9000   61.2670 C.3   138  LEU138      0.0001
     91  N          6.9340   60.9030   62.9140 N.am  139  LEU139     -0.1980
     92  CA         6.6450   60.6280   64.3180 C.3   139  LEU139      0.1596
     93  C          7.6410   61.3100   65.2460 C.2   139  LEU139      0.2287
     94  O          7.2930   61.6430   66.3820 O.2   139  LEU139     -0.2864
     95  CB         6.6400   59.1210   64.5570 C.3   139  LEU139      0.0297
     96  CG         5.4890   58.3880   63.8670 C.3   139  LEU139      0.0022
     97  CD1        5.8000   56.9250   63.6390 C.3   139  LEU139      0.0001
     98  CD2        4.2260   58.5440   64.7060 C.3   139  LEU139      0.0001
     99  N          6.6260   64.9090   66.2090 N.3   142  LEU142     -0.1245
    100  CA         5.5540   65.0660   67.1830 C.3   142  LEU142      0.1561
    101  C          6.0910   65.0760   68.6110 C.2   142  LEU142      0.2260
    102  O          7.1570   64.5260   68.8970 O.2   142  LEU142     -0.2867
    103  CB         4.5330   63.9360   67.0270 C.3   142  LEU142      0.0270
    104  CG         3.9510   63.7670   65.6210 C.3   142  LEU142      0.0019
    105  CD1        3.2740   62.4120   65.4310 C.3   142  LEU142      0.0001
    106  CD2        2.9680   64.8970   65.3120 C.3   142  LEU142      0.0001
    107  N          2.4350   60.0900   70.5870 N.3   147  LEU147     -0.1245
    108  CA         1.7680   59.1910   69.6400 C.3   147  LEU147      0.1561
    109  C          2.6370   57.9710   69.3670 C.2   147  LEU147      0.2260
    110  O          3.8020   58.1110   68.9880 O.2   147  LEU147     -0.2867
    111  CB         1.4680   59.8940   68.3070 C.3   147  LEU147      0.0270
    112  CG         0.6000   59.1500   67.2890 C.3   147  LEU147      0.0019
    113  CD1        0.0510   60.1130   66.2400 C.3   147  LEU147      0.0001
    114  CD2        1.3630   58.0800   66.5730 C.3   147  LEU147      0.0001
    115  N          2.5200   54.0650   67.3050 N.3   149  LEU149     -0.1245
    116  CA         1.8480   53.1620   66.3780 C.3   149  LEU149      0.1561
    117  C          2.1920   51.7270   66.7390 C.2   149  LEU149      0.2260
    118  O          3.3580   51.4080   66.9690 O.2   149  LEU149     -0.2867
    119  CB         2.2470   53.4380   64.9340 C.3   149  LEU149      0.0270
    120  CG         1.9040   54.8240   64.4120 C.3   149  LEU149      0.0019
    121  CD1        2.3320   54.8810   62.9530 C.3   149  LEU149      0.0001
    122  CD2        0.4390   55.1310   64.5560 C.3   149  LEU149      0.0001
@<TRIPOS>BOND
     1    58    60   ar
     2    58    56   ar
     3    60    59   ar
     4    56    55   ar
     5    56    54   ar
     6    59    57   ar
     7    55    53   ar
     8    12    11   ar
     9    13    11   ar
    10    46    45    1
    11    82    80    1
    12    11    10    1
    13    54    57   ar
    14    54    52   ar
    15    80    79    1
    16    53    52   ar
    17    75    76    1
    18    32    31    1
    19    45    42    1
    20    52    51    1
    21    10     7    1
    22    79    76    1
    23    79    81    1
    24    76    77    1
    25    89    88    1
    26    31    28    1
    27    44    43    2
    28    42    43    1
    29    42    41    1
    30    26    23    1
    31     7     8    1
    32     7     6    1
    33    43    47   am
    34    28    27    1
    35    28    29    1
    36     9     8    2
    37    51    48    1
    38    88    87    1
    39    88    90    1
    40    48    47    1
    41    48    49    1
    42    87    84    1
    43    27    24   am
    44    77    78    2
    45    25    24    2
    46    24    23    1
    47    30    29    2
    48    83    84    1
    49    41    35   am
    50     6     3   am
    51    23    22    1
    52    84    85    1
    53    50    49    2
    54     3     4    2
    55     3     2    1
    56    22    16   am
    57    35    36    2
    58    35    34    1
    59     5     2    1
    60    85    91   am
    61    85    86    2
    62    74    73   ar
    63    74    72   ar
    64     2     1    1
    65    73    71   ar
    66    16    17    2
    67    16    15    1
    68    91    92    1
    69   121   120    1
    70    33    34    1
    71    34    37    1
    72    14    15    1
    73    37    38    1
    74    97    96    1
    75    15    18    1
    76    96    95    1
    77    96    98    1
    78    72    70   ar
    79    71    68   ar
    80    92    95    1
    81    92    93    1
    82   120   122    1
    83   120   119    1
    84    38    39    1
    85    39    40    1
    86    18    19    1
    87   119   116    1
    88    70    68   ar
    89    70    69   ar
    90    68    66   ar
    91    93    94    2
    92   106   104    1
    93   105   104    1
    94    19    21    1
    95    19    20    1
    96   104   103    1
    97    99   100    1
    98   113   112    1
    99   116   117    1
   100   116   115    1
   101    69    67   ar
   102    61    62    1
   103   114   112    1
   104    66    65    1
   105    66    67   ar
   106   117   118    2
   107   103   100    1
   108   100   101    1
   109    65    62    1
   110   112   111    1
   111    62    63    1
   112   111   108    1
   113   101   102    2
   114    63    64    2
   115   110   109    2
   116   109   108    1
   117   108   107    1
