@<TRIPOS>MOLECULE
tmp/6bv0A08.pdb
 112 107 0 0 0
SMALL
GASTEIGER

@<TRIPOS>ATOM
      1  N         37.0640   12.6790   51.2090 N.3   144  GLN144     -0.1245
      2  CA        36.0920   12.5520   52.2920 C.3   144  GLN144      0.1566
      3  C         36.3450   11.1990   53.0160 C.2   144  GLN144      0.2260
      4  O         36.0280   10.1600   52.4850 O.2   144  GLN144     -0.2867
      5  CB        34.6660   12.6110   51.7670 C.3   144  GLN144      0.0367
      6  CG        33.5800   12.2020   52.7900 C.3   144  GLN144      0.0905
      7  CD        33.2390   13.3010   53.7800 C.2   144  GLN144      0.2608
      8  OE1       33.8170   14.3870   53.7700 O.2   144  GLN144     -0.2717
      9  NE2       32.2290   13.0470   54.5930 N.am  144  GLN144     -0.0878
     10  N         35.5970   10.5170   56.3460 N.3   146  GLN146     -0.1231
     11  CA        34.5070   10.2160   57.3030 C.3   146  GLN146      0.1698
     12  C         33.5280    9.1620   56.7320 C.2   146  GLN146      0.2592
     13  O         33.0040    9.3720   55.6490 O.2   146  GLN146     -0.2718
     14  CB        33.7540   11.5200   57.5400 C.3   146  GLN146      0.0381
     15  CG        32.4200   11.4250   58.2480 C.3   146  GLN146      0.0905
     16  CD        32.6410   11.3900   59.7340 C.2   146  GLN146      0.2608
     17  OE1       32.5720   12.4170   60.4240 O.2   146  GLN146     -0.2717
     18  NE2       33.0260   10.2310   60.2100 N.am  146  GLN146     -0.0878
     19  N         33.2910    8.0240   57.4140 N.am  147  SER147     -0.1952
     20  CA        33.9520    7.6030   58.6580 C.3   147  SER147      0.1924
     21  C         35.1300    6.6450   58.4330 C.2   147  SER147      0.2314
     22  O         36.0980    6.6430   59.1950 O.2   147  SER147     -0.2863
     23  CB        32.9280    6.8850   59.5680 C.3   147  SER147      0.2116
     24  OG        31.8400    7.7280   59.8740 O.3   147  SER147     -0.2180
     25  N         27.7170   15.5200   51.1620 N.3   284  ALA284     -0.1245
     26  CA        27.8950   15.3340   52.5990 C.3   284  ALA284      0.1562
     27  C         27.6700   16.6350   53.4160 C.2   284  ALA284      0.2260
     28  O         27.6110   16.6100   54.6700 O.2   284  ALA284     -0.2867
     29  CB        29.2770   14.7660   52.8520 C.3   284  ALA284      0.0290
     30  N         29.0570   19.2520   54.9160 N.3   286  ALA286     -0.1231
     31  CA        30.3310   19.8100   55.4260 C.3   286  ALA286      0.1694
     32  C         31.0820   18.7700   56.2530 C.2   286  ALA286      0.2592
     33  O         30.4640   17.8950   56.8760 O.2   286  ALA286     -0.2718
     34  CB        30.0950   21.0470   56.2440 C.3   286  ALA286      0.0304
     35  N         32.4050   18.8910   56.3010 N.am  287  MET287     -0.1965
     36  CA        33.2110   17.9180   57.0170 C.3   287  MET287      0.1736
     37  C         34.3910   18.6120   57.7130 C.2   287  MET287      0.2616
     38  O         35.1410   19.3360   57.0690 O.2   287  MET287     -0.2715
     39  CB        33.7270   16.8440   56.0610 C.3   287  MET287      0.0427
     40  CG        34.6180   15.8160   56.7460 C.3   287  MET287      0.0599
     41  SD        33.7470   14.9380   58.0450 S.3   287  MET287     -0.1393
     42  CE        35.1590   14.5570   59.1230 C.3   287  MET287      0.0692
     43  N         34.5810   18.2940   58.9940 N.am  288  GLU288     -0.1977
     44  CA        35.4350   19.0630   59.8690 C.3   288  GLU288      0.1602
     45  C         36.9350   18.6600   59.8010 C.2   288  GLU288      0.2287
     46  O         37.6380   18.7220   60.8040 O.2   288  GLU288     -0.2864
     47  CB        34.9180   18.9610   61.3180 C.3   288  GLU288      0.0415
     48  CG        35.1110   17.5900   61.9400 C.3   288  GLU288      0.1163
     49  CD        33.9150   16.6470   61.7920 C.2   288  GLU288      0.3649
     50  OE1       33.0430   16.8710   60.9010 O.co2 288  GLU288     -0.2457
     51  OE2       33.9220   15.6190   62.4890 O.co2 288  GLU288     -0.2457
     52  N         29.6620   25.3510   63.5320 N.3   321  HIS321     -0.1226
     53  CA        29.5990   23.9230   63.7840 C.3   321  HIS321      0.1752
     54  C         30.9410   23.2110   63.4670 C.2   321  HIS321      0.2595
     55  O         31.5380   22.5250   64.3250 O.2   321  HIS321     -0.2718
     56  CB        28.4770   23.3100   62.9670 C.3   321  HIS321      0.0759
     57  CG        28.3370   21.8260   63.1610 C.ar  321  HIS321      0.0818
     58  ND1       27.2950   21.2630   63.8670 N.ar  321  HIS321     -0.2268
     59  CD2       29.1140   20.7990   62.7520 C.ar  321  HIS321      0.1154
     60  CE1       27.4490   19.9490   63.8920 C.ar  321  HIS321      0.1986
     61  NE2       28.5390   19.6490   63.2160 N.ar  321  HIS321     -0.2212
     62  N         31.4010   23.3640   62.2260 N.am  322  GLU322     -0.1979
     63  CA        32.6350   22.7280   61.8210 C.3   322  GLU322      0.1602
     64  C         33.8300   23.2050   62.6410 C.2   322  GLU322      0.2287
     65  O         34.6920   22.4100   62.9960 O.2   322  GLU322     -0.2864
     66  CB        32.8970   22.8820   60.3330 C.3   322  GLU322      0.0415
     67  CG        31.7380   22.4400   59.4500 C.3   322  GLU322      0.1163
     68  CD        31.2000   21.0420   59.7760 C.2   322  GLU322      0.3649
     69  OE1       30.0190   20.8000   59.5590 O.co2 322  GLU322     -0.2457
     70  OE2       31.9760   20.1880   60.1860 O.co2 322  GLU322     -0.2457
     71  N         34.3900   21.6770   66.1030 N.3   325  HIS325     -0.1241
     72  CA        35.0420   20.3900   66.0640 C.3   325  HIS325      0.1621
     73  C         36.5680   20.4870   66.1340 C.2   325  HIS325      0.2264
     74  O         37.2400   19.5070   66.4550 O.2   325  HIS325     -0.2867
     75  CB        34.6700   19.6500   64.7730 C.3   325  HIS325      0.0745
     76  CG        33.3410   18.9830   64.8120 C.ar  325  HIS325      0.0817
     77  ND1       32.9900   18.0740   65.7950 N.ar  325  HIS325     -0.2268
     78  CD2       32.3010   19.0130   63.9400 C.ar  325  HIS325      0.1154
     79  CE1       31.7870   17.5960   65.5340 C.ar  325  HIS325      0.1986
     80  NE2       31.3520   18.1440   64.4280 N.ar  325  HIS325     -0.2212
     81  N         28.9280   14.9360   67.6750 N.3   344  GLU344     -0.1245
     82  CA        27.9930   15.6660   66.8140 C.3   344  GLU344      0.1567
     83  C         26.9460   16.4480   67.6100 C.2   344  GLU344      0.2260
     84  O         26.5530   17.5390   67.2300 O.2   344  GLU344     -0.2867
     85  CB        27.3280   14.7330   65.7900 C.3   344  GLU344      0.0388
     86  CG        28.2830   14.1740   64.7490 C.3   344  GLU344      0.1160
     87  CD        28.9980   15.2910   63.9650 C.2   344  GLU344      0.3649
     88  OE1       29.9300   15.0360   63.1780 O.co2 344  GLU344     -0.2457
     89  OE2       28.5550   16.4400   64.0760 O.co2 344  GLU344     -0.2457
     90  N         24.9290    8.3220   62.4430 N.3   405  PHE405     -0.1241
     91  CA        24.7870    9.7150   61.9820 C.3   405  PHE405      0.1605
     92  C         23.3090   10.0350   61.7070 C.2   405  PHE405      0.2264
     93  O         22.8840   10.0800   60.5770 O.2   405  PHE405     -0.2867
     94  CB        25.6310    9.9420   60.7190 C.3   405  PHE405      0.0534
     95  CG        27.1070    9.8920   60.9600 C.ar  405  PHE405     -0.0203
     96  CD1       27.7660    8.6830   61.1080 C.ar  405  PHE405     -0.0042
     97  CD2       27.8540   11.0840   61.0650 C.ar  405  PHE405     -0.0042
     98  CE1       29.1340    8.6340   61.3520 C.ar  405  PHE405     -0.0003
     99  CE2       29.2210   11.0340   61.2770 C.ar  405  PHE405     -0.0003
    100  CZ        29.8610    9.8140   61.4280 C.ar  405  PHE405     -0.0000
    101  N         22.5460   13.9170   66.5200 N.3   410  TYR410     -0.1241
    102  CA        22.8330   15.3500   66.3430 C.3   410  TYR410      0.1605
    103  C         21.9360   16.1990   67.2410 C.2   410  TYR410      0.2264
    104  O         22.4180   16.9760   68.0750 O.2   410  TYR410     -0.2867
    105  CB        22.6760   15.7770   64.8880 C.3   410  TYR410      0.0534
    106  CG        23.8240   15.3960   63.9760 C.ar  410  TYR410     -0.0201
    107  CD1       24.0020   14.0880   63.5460 C.ar  410  TYR410     -0.0009
    108  CD2       24.6950   16.3650   63.4790 C.ar  410  TYR410     -0.0009
    109  CE1       25.0150   13.7470   62.6330 C.ar  410  TYR410      0.0417
    110  CE2       25.7120   16.0300   62.6020 C.ar  410  TYR410      0.0417
    111  CZ        25.8750   14.7280   62.1760 C.ar  410  TYR410      0.1957
    112  OH        26.8860   14.4400   61.2920 O.3   410  TYR410     -0.2866
@<TRIPOS>BOND
     1    25    26    1
     2     1     2    1
     3     5     2    1
     4     5     6    1
     5     2     3    1
     6     4     3    2
     7    26    29    1
     8    26    27    1
     9     6     7    1
    10    27    28    2
    11     8     7    2
    12     7     9   am
    13    30    31    1
    14    31    34    1
    15    31    32    1
    16    13    12    2
    17    39    40    1
    18    39    36    1
    19    32    35   am
    20    32    33    2
    21    35    36    1
    22    10    11    1
    23    12    11    1
    24    12    19   am
    25    40    41    1
    26    36    37    1
    27    38    37    2
    28    11    14    1
    29    19    20    1
    30    14    15    1
    31    37    43   am
    32    41    42    1
    33    15    16    1
    34    21    20    1
    35    21    22    2
    36    20    23    1
    37    43    44    1
    38    67    68    1
    39    67    66    1
    40    69    68   ar
    41    23    24    1
    42    16    18   am
    43    16    17    2
    44    68    70   ar
    45    45    44    1
    46    45    46    2
    47    44    47    1
    48    66    63    1
    49    93    92    2
    50    94    95    1
    51    94    91    1
    52    50    49   ar
    53    95    97   ar
    54    95    96   ar
    55    97    99   ar
    56    96    98   ar
    57    99   100   ar
    58   112   111    1
    59    47    48    1
    60    98   100   ar
    61    92    91    1
    62    49    48    1
    63    49    51   ar
    64    63    62    1
    65    63    64    1
    66    91    90    1
    67   111   110   ar
    68   111   109   ar
    69    62    54   am
    70   110   108   ar
    71   109   107   ar
    72    64    65    2
    73    59    57   ar
    74    59    61   ar
    75    56    57    1
    76    56    53    1
    77    57    58   ar
    78    88    87   ar
    79    61    60   ar
    80    54    53    1
    81    54    55    2
    82   108   106   ar
    83    52    53    1
    84   107   106   ar
    85    58    60   ar
    86    78    80   ar
    87    78    76   ar
    88    87    89   ar
    89    87    86    1
    90   106   105    1
    91    80    79   ar
    92    86    85    1
    93    75    76    1
    94    75    72    1
    95    76    77   ar
    96   105   102    1
    97    79    77   ar
    98    85    82    1
    99    72    71    1
   100    72    73    1
   101    73    74    2
   102   102   101    1
   103   102   103    1
   104    82    83    1
   105    82    81    1
   106    84    83    2
   107   103   104    2
