@<TRIPOS>MOLECULE
tmp/6bv1A08.pdb
 96 91 0 0 0
SMALL
GASTEIGER

@<TRIPOS>ATOM
      1  N         37.0130   12.5200   51.2770 N.3   144  GLN144     -0.1245
      2  CA        36.0350   12.4070   52.3410 C.3   144  GLN144      0.1566
      3  C         36.2930   11.0620   53.0450 C.2   144  GLN144      0.2260
      4  O         35.9720   10.0340   52.5020 O.2   144  GLN144     -0.2867
      5  CB        34.6160   12.4620   51.7730 C.3   144  GLN144      0.0367
      6  CG        33.4960   12.1010   52.7940 C.3   144  GLN144      0.0905
      7  CD        33.1090   13.2560   53.7100 C.2   144  GLN144      0.2608
      8  OE1       33.7860   14.2740   53.7730 O.2   144  GLN144     -0.2717
      9  NE2       31.9810   13.1060   54.3850 N.am  144  GLN144     -0.0878
     10  N         35.4980   10.4090   56.3620 N.3   146  GLN146     -0.1245
     11  CA        34.3920   10.1230   57.2910 C.3   146  GLN146      0.1566
     12  C         33.4650    9.0320   56.6920 C.2   146  GLN146      0.2260
     13  O         32.9640    9.2130   55.5850 O.2   146  GLN146     -0.2867
     14  CB        33.6030   11.4200   57.5020 C.3   146  GLN146      0.0367
     15  CG        32.3190   11.3080   58.3170 C.3   146  GLN146      0.0905
     16  CD        32.6340   11.2570   59.8000 C.2   146  GLN146      0.2608
     17  OE1       32.5160   12.2600   60.5190 O.2   146  GLN146     -0.2717
     18  NE2       33.1140   10.1270   60.2290 N.am  146  GLN146     -0.0878
     19  N         27.6820   15.3790   51.1710 N.3   284  ALA284     -0.1245
     20  CA        27.8270   15.1910   52.6120 C.3   284  ALA284      0.1562
     21  C         27.6140   16.4750   53.4270 C.2   284  ALA284      0.2260
     22  O         27.5500   16.4220   54.6760 O.2   284  ALA284     -0.2867
     23  CB        29.1890   14.5840   52.8970 C.3   284  ALA284      0.0290
     24  N         28.9940   19.1270   54.9400 N.3   286  ALA286     -0.1231
     25  CA        30.2730   19.6430   55.4440 C.3   286  ALA286      0.1694
     26  C         31.0510   18.5420   56.1560 C.2   286  ALA286      0.2592
     27  O         30.4550   17.6130   56.7000 O.2   286  ALA286     -0.2718
     28  CB        30.0680   20.8090   56.3830 C.3   286  ALA286      0.0304
     29  N         32.3650   18.6990   56.2360 N.am  287  MET287     -0.1965
     30  CA        33.1930   17.7680   56.9730 C.3   287  MET287      0.1736
     31  C         34.3830   18.4790   57.6480 C.2   287  MET287      0.2616
     32  O         35.1180   19.1990   56.9950 O.2   287  MET287     -0.2715
     33  CB        33.6960   16.6420   56.0330 C.3   287  MET287      0.0427
     34  CG        34.5520   15.6090   56.7430 C.3   287  MET287      0.0599
     35  SD        33.7290   14.8150   58.1390 S.3   287  MET287     -0.1393
     36  CE        35.1930   14.4970   59.1650 C.3   287  MET287      0.0692
     37  N         34.5630   18.1800   58.9290 N.am  288  GLU288     -0.1977
     38  CA        35.4060   18.9350   59.8300 C.3   288  GLU288      0.1602
     39  C         36.9100   18.5400   59.7610 C.2   288  GLU288      0.2287
     40  O         37.6080   18.5660   60.7840 O.2   288  GLU288     -0.2864
     41  CB        34.8760   18.8220   61.2820 C.3   288  GLU288      0.0415
     42  CG        35.0670   17.4660   61.9420 C.3   288  GLU288      0.1163
     43  CD        33.8740   16.5030   61.7640 C.2   288  GLU288      0.3649
     44  OE1       32.9790   16.7720   60.9190 O.co2 288  GLU288     -0.2457
     45  OE2       33.8820   15.4330   62.4130 O.co2 288  GLU288     -0.2457
     46  N         29.6550   25.2600   63.4980 N.3   321  HIS321     -0.1226
     47  CA        29.5780   23.8400   63.7700 C.3   321  HIS321      0.1752
     48  C         30.9180   23.1150   63.4490 C.2   321  HIS321      0.2595
     49  O         31.4940   22.4300   64.2890 O.2   321  HIS321     -0.2718
     50  CB        28.4560   23.2230   62.9570 C.3   321  HIS321      0.0759
     51  CG        28.3110   21.7490   63.1730 C.ar  321  HIS321      0.0818
     52  ND1       27.2930   21.2010   63.9260 N.ar  321  HIS321     -0.2268
     53  CD2       29.0850   20.7090   62.7670 C.ar  321  HIS321      0.1154
     54  CE1       27.4540   19.8900   63.9850 C.ar  321  HIS321      0.1986
     55  NE2       28.5390   19.5750   63.3000 N.ar  321  HIS321     -0.2212
     56  N         31.3970   23.2860   62.2220 N.am  322  GLU322     -0.1979
     57  CA        32.6050   22.6130   61.7880 C.3   322  GLU322      0.1602
     58  C         33.8370   23.0780   62.5790 C.2   322  GLU322      0.2287
     59  O         34.6780   22.2680   62.9580 O.2   322  GLU322     -0.2864
     60  CB        32.8320   22.7820   60.2860 C.3   322  GLU322      0.0415
     61  CG        31.6780   22.3160   59.3990 C.3   322  GLU322      0.1163
     62  CD        31.1030   20.9430   59.7720 C.2   322  GLU322      0.3649
     63  OE1       29.9190   20.7140   59.4950 O.co2 322  GLU322     -0.2457
     64  OE2       31.8320   20.0780   60.3090 O.co2 322  GLU322     -0.2457
     65  N         28.9860   14.8930   67.6760 N.3   344  GLU344     -0.1245
     66  CA        28.0520   15.6060   66.8080 C.3   344  GLU344      0.1567
     67  C         27.0000   16.3750   67.5770 C.2   344  GLU344      0.2260
     68  O         26.6400   17.4740   67.2000 O.2   344  GLU344     -0.2867
     69  CB        27.4400   14.6920   65.7560 C.3   344  GLU344      0.0388
     70  CG        28.4380   14.1800   64.7250 C.3   344  GLU344      0.1160
     71  CD        29.1130   15.2990   63.9300 C.2   344  GLU344      0.3649
     72  OE1       29.9700   15.0210   63.0900 O.co2 344  GLU344     -0.2457
     73  OE2       28.7400   16.4710   64.1140 O.co2 344  GLU344     -0.2457
     74  N         24.9290    8.2440   62.4830 N.3   405  PHE405     -0.1241
     75  CA        24.7840    9.6250   62.0270 C.3   405  PHE405      0.1605
     76  C         23.3180    9.9360   61.7110 C.2   405  PHE405      0.2264
     77  O         22.9060    9.9060   60.5580 O.2   405  PHE405     -0.2867
     78  CB        25.6570    9.8780   60.7840 C.3   405  PHE405      0.0534
     79  CG        27.1250    9.8320   61.0490 C.ar  405  PHE405     -0.0203
     80  CD1       27.7870    8.6280   61.1630 C.ar  405  PHE405     -0.0042
     81  CD2       27.8580   11.0140   61.1820 C.ar  405  PHE405     -0.0042
     82  CE1       29.1540    8.5740   61.4010 C.ar  405  PHE405     -0.0003
     83  CE2       29.2340   10.9770   61.4150 C.ar  405  PHE405     -0.0003
     84  CZ        29.8850    9.7610   61.5130 C.ar  405  PHE405     -0.0000
     85  N         22.6310   13.8910   66.5470 N.3   410  TYR410     -0.1241
     86  CA        22.9190   15.3170   66.3780 C.3   410  TYR410      0.1605
     87  C         21.9940   16.1580   67.2570 C.2   410  TYR410      0.2264
     88  O         22.4500   16.8980   68.1200 O.2   410  TYR410     -0.2867
     89  CB        22.7660   15.7550   64.9150 C.3   410  TYR410      0.0534
     90  CG        23.8870   15.3230   64.0000 C.ar  410  TYR410     -0.0201
     91  CD1       24.0590   13.9810   63.6340 C.ar  410  TYR410     -0.0009
     92  CD2       24.7560   16.2580   63.4660 C.ar  410  TYR410     -0.0009
     93  CE1       25.0530   13.6050   62.7410 C.ar  410  TYR410      0.0417
     94  CE2       25.7520   15.8930   62.5720 C.ar  410  TYR410      0.0417
     95  CZ        25.9090   14.5890   62.2120 C.ar  410  TYR410      0.1957
     96  OH        26.9270   14.2670   61.3470 O.3   410  TYR410     -0.2866
@<TRIPOS>BOND
     1    19    20    1
     2     1     2    1
     3     5     2    1
     4     5     6    1
     5     2     3    1
     6     4     3    2
     7    20    23    1
     8    20    21    1
     9     6     7    1
    10    21    22    2
    11     7     8    2
    12     7     9   am
    13    24    25    1
    14    25    26    1
    15    25    28    1
    16    13    12    2
    17    33    34    1
    18    33    30    1
    19    26    29   am
    20    26    27    2
    21    29    30    1
    22    10    11    1
    23    12    11    1
    24    34    35    1
    25    30    31    1
    26    32    31    2
    27    11    14    1
    28    14    15    1
    29    31    37   am
    30    35    36    1
    31    15    16    1
    32    37    38    1
    33    61    62    1
    34    61    60    1
    35    63    62   ar
    36    39    38    1
    37    39    40    2
    38    62    64   ar
    39    16    18   am
    40    16    17    2
    41    38    41    1
    42    60    57    1
    43    77    76    2
    44    78    79    1
    45    78    75    1
    46    44    43   ar
    47    79    80   ar
    48    79    81   ar
    49    80    82   ar
    50    81    83   ar
    51    41    42    1
    52    96    95    1
    53    82    84   ar
    54    83    84   ar
    55    76    75    1
    56    43    42    1
    57    43    45   ar
    58    57    56    1
    59    57    58    1
    60    75    74    1
    61    95    94   ar
    62    95    93   ar
    63    56    48   am
    64    94    92   ar
    65    58    59    2
    66    93    91   ar
    67    53    51   ar
    68    53    55   ar
    69    50    51    1
    70    50    47    1
    71    72    71   ar
    72    51    52   ar
    73    55    54   ar
    74    48    47    1
    75    48    49    2
    76    92    90   ar
    77    46    47    1
    78    91    90   ar
    79    52    54   ar
    80    71    73   ar
    81    71    70    1
    82    90    89    1
    83    70    69    1
    84    89    86    1
    85    69    66    1
    86    86    85    1
    87    86    87    1
    88    66    67    1
    89    66    65    1
    90    68    67    2
    91    87    88    2
