@<TRIPOS>MOLECULE
tmp/6bv2A09.pdb
 96 91 0 0 0
SMALL
GASTEIGER

@<TRIPOS>ATOM
      1  N         36.9940   12.6660   51.2480 N.3   144  GLN144     -0.1245
      2  CA        36.0350   12.5210   52.3280 C.3   144  GLN144      0.1566
      3  C         36.3230   11.1590   53.0090 C.2   144  GLN144      0.2260
      4  O         36.0090   10.1440   52.4770 O.2   144  GLN144     -0.2867
      5  CB        34.6290   12.5760   51.7520 C.3   144  GLN144      0.0367
      6  CG        33.5060   12.1790   52.7630 C.3   144  GLN144      0.0905
      7  CD        33.2020   13.2860   53.7370 C.2   144  GLN144      0.2608
      8  OE1       33.8520   14.3180   53.8180 O.2   144  GLN144     -0.2717
      9  NE2       32.1540   13.0830   54.4640 N.am  144  GLN144     -0.0878
     10  N         35.4840   10.4810   56.3280 N.3   146  GLN146     -0.1245
     11  CA        34.3980   10.2430   57.2900 C.3   146  GLN146      0.1566
     12  C         33.4530    9.1710   56.7310 C.2   146  GLN146      0.2260
     13  O         32.9160    9.3800   55.6270 O.2   146  GLN146     -0.2867
     14  CB        33.6290   11.5270   57.5150 C.3   146  GLN146      0.0367
     15  CG        32.3200   11.4510   58.3090 C.3   146  GLN146      0.0905
     16  CD        32.6360   11.3700   59.7720 C.2   146  GLN146      0.2608
     17  OE1       32.6020   12.3890   60.5290 O.2   146  GLN146     -0.2717
     18  NE2       33.0260   10.1720   60.1670 N.am  146  GLN146     -0.0878
     19  N         27.6530   15.6220   51.1650 N.3   284  ALA284     -0.1245
     20  CA        27.8310   15.4060   52.5730 C.3   284  ALA284      0.1562
     21  C         27.6460   16.6940   53.4220 C.2   284  ALA284      0.2260
     22  O         27.6000   16.6210   54.6660 O.2   284  ALA284     -0.2867
     23  CB        29.1710   14.7460   52.7700 C.3   284  ALA284      0.0290
     24  N         29.0230   19.3090   54.9970 N.3   286  ALA286     -0.1231
     25  CA        30.2670   19.8650   55.5640 C.3   286  ALA286      0.1694
     26  C         31.0570   18.8090   56.3270 C.2   286  ALA286      0.2592
     27  O         30.4610   17.9110   56.9600 O.2   286  ALA286     -0.2718
     28  CB        29.9780   21.0310   56.4570 C.3   286  ALA286      0.0304
     29  N         32.3810   18.9080   56.3340 N.am  287  MET287     -0.1965
     30  CA        33.2170   17.9570   57.0140 C.3   287  MET287      0.1736
     31  C         34.4030   18.5990   57.7220 C.2   287  MET287      0.2616
     32  O         35.1280   19.3540   57.1350 O.2   287  MET287     -0.2715
     33  CB        33.6180   16.8130   56.0650 C.3   287  MET287      0.0427
     34  CG        34.5150   15.8270   56.7110 C.3   287  MET287      0.0599
     35  SD        33.7410   15.0120   58.1340 S.3   287  MET287     -0.1393
     36  CE        35.1570   14.7090   59.1520 C.3   287  MET287      0.0692
     37  N         34.5750   18.2500   59.0000 N.am  288  GLU288     -0.1977
     38  CA        35.4170   19.0030   59.8900 C.3   288  GLU288      0.1602
     39  C         36.9370   18.6550   59.8150 C.2   288  GLU288      0.2287
     40  O         37.6510   18.7650   60.8180 O.2   288  GLU288     -0.2864
     41  CB        34.9050   18.9020   61.3520 C.3   288  GLU288      0.0415
     42  CG        35.0810   17.5800   62.0320 C.3   288  GLU288      0.1163
     43  CD        33.9350   16.5920   61.8510 C.2   288  GLU288      0.3649
     44  OE1       33.0470   16.8540   60.9980 O.co2 288  GLU288     -0.2457
     45  OE2       33.9280   15.5440   62.5320 O.co2 288  GLU288     -0.2457
     46  N         29.6600   25.3270   63.5490 N.3   321  HIS321     -0.1226
     47  CA        29.6010   23.9030   63.7840 C.3   321  HIS321      0.1752
     48  C         30.9650   23.2290   63.4810 C.2   321  HIS321      0.2595
     49  O         31.5680   22.5490   64.3320 O.2   321  HIS321     -0.2718
     50  CB        28.4940   23.2530   62.9930 C.3   321  HIS321      0.0759
     51  CG        28.3980   21.7610   63.2020 C.ar  321  HIS321      0.0818
     52  ND1       27.3790   21.1550   63.9190 N.ar  321  HIS321     -0.2268
     53  CD2       29.2370   20.7530   62.8140 C.ar  321  HIS321      0.1154
     54  CE1       27.5890   19.8460   63.9420 C.ar  321  HIS321      0.1986
     55  NE2       28.7050   19.5700   63.2460 N.ar  321  HIS321     -0.2212
     56  N         31.4110   23.3740   62.2550 N.am  322  GLU322     -0.1979
     57  CA        32.6380   22.7090   61.8390 C.3   322  GLU322      0.1602
     58  C         33.8310   23.1650   62.6560 C.2   322  GLU322      0.2287
     59  O         34.6580   22.3600   63.0470 O.2   322  GLU322     -0.2864
     60  CB        32.9310   22.9130   60.3480 C.3   322  GLU322      0.0415
     61  CG        31.8520   22.4080   59.4420 C.3   322  GLU322      0.1163
     62  CD        31.2510   21.0620   59.7990 C.2   322  GLU322      0.3649
     63  OE1       30.0570   20.8840   59.6100 O.co2 322  GLU322     -0.2457
     64  OE2       31.9630   20.1460   60.2090 O.co2 322  GLU322     -0.2457
     65  N         28.8930   14.9610   67.7480 N.3   344  GLU344     -0.1245
     66  CA        28.0030   15.7340   66.8600 C.3   344  GLU344      0.1567
     67  C         26.9790   16.5340   67.6840 C.2   344  GLU344      0.2260
     68  O         26.5440   17.6010   67.2810 O.2   344  GLU344     -0.2867
     69  CB        27.3290   14.8590   65.8120 C.3   344  GLU344      0.0388
     70  CG        28.2870   14.2450   64.8020 C.3   344  GLU344      0.1160
     71  CD        29.1090   15.2940   63.9850 C.2   344  GLU344      0.3649
     72  OE1       30.0430   14.8910   63.2850 O.co2 344  GLU344     -0.2457
     73  OE2       28.8630   16.4980   64.0060 O.co2 344  GLU344     -0.2457
     74  N         24.8700    8.2530   62.4040 N.3   405  PHE405     -0.1241
     75  CA        24.7160    9.6460   61.9700 C.3   405  PHE405      0.1605
     76  C         23.2700    9.9470   61.6690 C.2   405  PHE405      0.2264
     77  O         22.8120    9.9040   60.5430 O.2   405  PHE405     -0.2867
     78  CB        25.5860    9.9410   60.7120 C.3   405  PHE405      0.0534
     79  CG        27.0590    9.9020   60.9790 C.ar  405  PHE405     -0.0203
     80  CD1       27.7240    8.7240   61.0620 C.ar  405  PHE405     -0.0042
     81  CD2       27.7910   11.0700   61.0780 C.ar  405  PHE405     -0.0042
     82  CE1       29.1070    8.6790   61.3400 C.ar  405  PHE405     -0.0003
     83  CE2       29.1630   11.0400   61.3210 C.ar  405  PHE405     -0.0003
     84  CZ        29.8310    9.8490   61.4620 C.ar  405  PHE405     -0.0000
     85  N         22.6000   13.8930   66.5480 N.3   410  TYR410     -0.1241
     86  CA        22.8430   15.3310   66.3850 C.3   410  TYR410      0.1605
     87  C         21.9050   16.2010   67.2420 C.2   410  TYR410      0.2264
     88  O         22.3750   16.9650   68.0820 O.2   410  TYR410     -0.2867
     89  CB        22.6850   15.7520   64.9160 C.3   410  TYR410      0.0534
     90  CG        23.8180   15.3610   63.9810 C.ar  410  TYR410     -0.0201
     91  CD1       23.9840   14.0120   63.5610 C.ar  410  TYR410     -0.0009
     92  CD2       24.6980   16.3230   63.4810 C.ar  410  TYR410     -0.0009
     93  CE1       24.9450   13.6540   62.6780 C.ar  410  TYR410      0.0417
     94  CE2       25.6990   15.9740   62.6050 C.ar  410  TYR410      0.0417
     95  CZ        25.8290   14.6680   62.2040 C.ar  410  TYR410      0.1957
     96  OH        26.8260   14.2980   61.3620 O.3   410  TYR410     -0.2866
@<TRIPOS>BOND
     1    19    20    1
     2     1     2    1
     3     5     2    1
     4     5     6    1
     5     2     3    1
     6     4     3    2
     7    20    23    1
     8    20    21    1
     9     6     7    1
    10    21    22    2
    11     7     8    2
    12     7     9   am
    13    24    25    1
    14    25    26    1
    15    25    28    1
    16    13    12    2
    17    33    34    1
    18    33    30    1
    19    26    29   am
    20    26    27    2
    21    10    11    1
    22    29    30    1
    23    34    35    1
    24    12    11    1
    25    30    31    1
    26    32    31    2
    27    11    14    1
    28    14    15    1
    29    31    37   am
    30    35    36    1
    31    15    16    1
    32    37    38    1
    33    61    62    1
    34    61    60    1
    35    63    62   ar
    36    16    18   am
    37    16    17    2
    38    62    64   ar
    39    39    38    1
    40    39    40    2
    41    38    41    1
    42    60    57    1
    43    77    76    2
    44    78    79    1
    45    78    75    1
    46    79    80   ar
    47    79    81   ar
    48    44    43   ar
    49    80    82   ar
    50    81    83   ar
    51    83    84   ar
    52    82    84   ar
    53    41    42    1
    54    96    95    1
    55    76    75    1
    56    57    56    1
    57    57    58    1
    58    43    42    1
    59    43    45   ar
    60    75    74    1
    61    95    94   ar
    62    95    93   ar
    63    56    48   am
    64    94    92   ar
    65    58    59    2
    66    93    91   ar
    67    53    51   ar
    68    53    55   ar
    69    50    51    1
    70    50    47    1
    71    51    52   ar
    72    55    54   ar
    73    72    71   ar
    74    92    90   ar
    75    48    47    1
    76    48    49    2
    77    46    47    1
    78    91    90   ar
    79    52    54   ar
    80    90    89    1
    81    71    73   ar
    82    71    70    1
    83    70    69    1
    84    89    86    1
    85    69    66    1
    86    86    85    1
    87    86    87    1
    88    66    67    1
    89    66    65    1
    90    87    88    2
    91    68    67    2
