@<TRIPOS>MOLECULE
tmp/6bv3A07.pdb
 107 102 0 0 0
SMALL
GASTEIGER

@<TRIPOS>ATOM
      1  N         37.0420   12.8470   51.2390 N.3   144  GLN144     -0.1245
      2  CA        36.0570   12.6830   52.3120 C.3   144  GLN144      0.1566
      3  C         36.3010   11.3080   52.9630 C.2   144  GLN144      0.2260
      4  O         35.9380   10.3070   52.4010 O.2   144  GLN144     -0.2867
      5  CB        34.6660   12.7720   51.7310 C.3   144  GLN144      0.0367
      6  CG        33.5350   12.3760   52.7250 C.3   144  GLN144      0.0905
      7  CD        33.3180   13.4560   53.7870 C.2   144  GLN144      0.2608
      8  OE1       33.8770   14.5640   53.7620 O.2   144  GLN144     -0.2717
      9  NE2       32.5380   13.1040   54.7410 N.am  144  GLN144     -0.0878
     10  N         35.5610   10.5730   56.3860 N.3   146  GLN146     -0.1245
     11  CA        34.4930   10.3360   57.3440 C.3   146  GLN146      0.1566
     12  C         33.4730    9.3280   56.7890 C.2   146  GLN146      0.2260
     13  O         32.9110    9.5790   55.7170 O.2   146  GLN146     -0.2867
     14  CB        33.8180   11.6630   57.6060 C.3   146  GLN146      0.0367
     15  CG        32.4380   11.6320   58.2900 C.3   146  GLN146      0.0905
     16  CD        32.6300   11.6390   59.7810 C.2   146  GLN146      0.2608
     17  OE1       32.5490   12.6870   60.4480 O.2   146  GLN146     -0.2717
     18  NE2       33.0320   10.5050   60.2810 N.am  146  GLN146     -0.0878
     19  N         28.9500   19.2170   46.9570 N.3   282  PHE282     -0.1241
     20  CA        29.3950   18.4000   48.0960 C.3   282  PHE282      0.1605
     21  C         28.1950   17.9400   48.9090 C.2   282  PHE282      0.2264
     22  O         27.8340   18.5430   49.8910 O.2   282  PHE282     -0.2867
     23  CB        30.3430   19.2210   48.9660 C.3   282  PHE282      0.0534
     24  CG        30.9840   18.4450   50.0820 C.ar  282  PHE282     -0.0203
     25  CD1       31.7550   17.3330   49.8240 C.ar  282  PHE282     -0.0042
     26  CD2       30.8810   18.8900   51.3980 C.ar  282  PHE282     -0.0042
     27  CE1       32.4000   16.6590   50.8550 C.ar  282  PHE282     -0.0003
     28  CE2       31.5190   18.2240   52.4280 C.ar  282  PHE282     -0.0003
     29  CZ        32.2950   17.1040   52.1470 C.ar  282  PHE282     -0.0000
     30  N         27.5500   15.7500   51.1250 N.3   284  ALA284     -0.1245
     31  CA        27.7090   15.4890   52.5160 C.3   284  ALA284      0.1562
     32  C         27.6320   16.7400   53.4090 C.2   284  ALA284      0.2260
     33  O         27.6780   16.6330   54.6340 O.2   284  ALA284     -0.2867
     34  CB        29.0170   14.7530   52.7240 C.3   284  ALA284      0.0290
     35  N         29.0060   19.4230   55.1250 N.3   286  ALA286     -0.1231
     36  CA        30.2710   19.9620   55.6060 C.3   286  ALA286      0.1694
     37  C         31.1000   18.9590   56.3880 C.2   286  ALA286      0.2592
     38  O         30.5450   18.1150   57.0920 O.2   286  ALA286     -0.2718
     39  CB        30.0390   21.1620   56.4040 C.3   286  ALA286      0.0304
     40  N         32.4200   19.0450   56.3080 N.am  287  MET287     -0.1965
     41  CA        33.2830   18.1300   57.0260 C.3   287  MET287      0.1736
     42  C         34.4590   18.8090   57.7160 C.2   287  MET287      0.2616
     43  O         35.1870   19.5650   57.1250 O.2   287  MET287     -0.2715
     44  CB        33.7630   16.9970   56.1150 C.3   287  MET287      0.0427
     45  CG        34.6970   16.0220   56.8100 C.3   287  MET287      0.0599
     46  SD        33.8240   15.1100   58.1290 S.3   287  MET287     -0.1393
     47  CE        35.2240   14.7430   59.1820 C.3   287  MET287      0.0692
     48  N         34.6630   18.4450   58.9680 N.am  288  GLU288     -0.1977
     49  CA        35.5240   19.2070   59.8500 C.3   288  GLU288      0.1602
     50  C         37.0180   18.7910   59.7910 C.2   288  GLU288      0.2287
     51  O         37.7160   18.8390   60.8160 O.2   288  GLU288     -0.2864
     52  CB        35.0100   19.1220   61.3070 C.3   288  GLU288      0.0415
     53  CG        35.1500   17.7460   61.9420 C.3   288  GLU288      0.1163
     54  CD        33.9310   16.8640   61.7820 C.2   288  GLU288      0.3649
     55  OE1       32.9940   17.1840   60.9720 O.co2 288  GLU288     -0.2457
     56  OE2       33.9390   15.8110   62.4450 O.co2 288  GLU288     -0.2457
     57  N         29.6470   25.4150   63.5830 N.3   321  HIS321     -0.1226
     58  CA        29.6020   23.9790   63.7920 C.3   321  HIS321      0.1752
     59  C         30.9650   23.2940   63.4680 C.2   321  HIS321      0.2595
     60  O         31.5850   22.6300   64.3170 O.2   321  HIS321     -0.2718
     61  CB        28.5020   23.3590   62.9610 C.3   321  HIS321      0.0759
     62  CG        28.3680   21.8750   63.1660 C.ar  321  HIS321      0.0818
     63  ND1       27.3190   21.2980   63.8590 N.ar  321  HIS321     -0.2268
     64  CD2       29.1760   20.8480   62.7870 C.ar  321  HIS321      0.1154
     65  CE1       27.4950   19.9870   63.9090 C.ar  321  HIS321      0.1986
     66  NE2       28.6110   19.6860   63.2440 N.ar  321  HIS321     -0.2212
     67  N         31.4090   23.4410   62.2330 N.am  322  GLU322     -0.1979
     68  CA        32.6670   22.8220   61.8300 C.3   322  GLU322      0.1602
     69  C         33.8450   23.2970   62.6870 C.2   322  GLU322      0.2287
     70  O         34.6650   22.4950   63.1210 O.2   322  GLU322     -0.2864
     71  CB        32.9440   23.0100   60.3340 C.3   322  GLU322      0.0415
     72  CG        31.8160   22.5480   59.4460 C.3   322  GLU322      0.1163
     73  CD        31.2770   21.1610   59.7720 C.2   322  GLU322      0.3649
     74  OE1       30.1060   20.9020   59.5080 O.co2 322  GLU322     -0.2457
     75  OE2       32.0490   20.3070   60.1850 O.co2 322  GLU322     -0.2457
     76  N         28.9650   15.0990   67.6720 N.3   344  GLU344     -0.1245
     77  CA        28.0720   15.8480   66.7940 C.3   344  GLU344      0.1567
     78  C         27.0110   16.6280   67.5930 C.2   344  GLU344      0.2260
     79  O         26.5500   17.6920   67.1810 O.2   344  GLU344     -0.2867
     80  CB        27.4510   14.9290   65.7660 C.3   344  GLU344      0.0388
     81  CG        28.4770   14.3190   64.7820 C.3   344  GLU344      0.1160
     82  CD        29.1480   15.3550   63.8770 C.2   344  GLU344      0.3649
     83  OE1       30.0450   14.9920   63.1160 O.co2 344  GLU344     -0.2457
     84  OE2       28.7720   16.5310   63.9170 O.co2 344  GLU344     -0.2457
     85  N         24.9190    8.4630   62.3710 N.3   405  PHE405     -0.1241
     86  CA        24.7800    9.8490   61.9280 C.3   405  PHE405      0.1605
     87  C         23.3260   10.1830   61.6610 C.2   405  PHE405      0.2264
     88  O         22.9070   10.2260   60.5310 O.2   405  PHE405     -0.2867
     89  CB        25.6200   10.1150   60.6720 C.3   405  PHE405      0.0534
     90  CG        27.1070   10.0600   60.9100 C.ar  405  PHE405     -0.0203
     91  CD1       27.7420    8.8540   61.0730 C.ar  405  PHE405     -0.0042
     92  CD2       27.8450   11.2220   60.9900 C.ar  405  PHE405     -0.0042
     93  CE1       29.1000    8.7980   61.3330 C.ar  405  PHE405     -0.0003
     94  CE2       29.2260   11.1820   61.2160 C.ar  405  PHE405     -0.0003
     95  CZ        29.8430    9.9730   61.4200 C.ar  405  PHE405     -0.0000
     96  N         22.6230   14.0450   66.5090 N.3   410  TYR410     -0.1241
     97  CA        22.9140   15.4750   66.3490 C.3   410  TYR410      0.1605
     98  C         22.0140   16.3240   67.2490 C.2   410  TYR410      0.2264
     99  O         22.5010   17.0770   68.0760 O.2   410  TYR410     -0.2867
    100  CB        22.7410   15.9270   64.8940 C.3   410  TYR410      0.0534
    101  CG        23.8610   15.5240   63.9550 C.ar  410  TYR410     -0.0201
    102  CD1       24.0330   14.1930   63.5630 C.ar  410  TYR410     -0.0009
    103  CD2       24.7290   16.4950   63.4230 C.ar  410  TYR410     -0.0009
    104  CE1       25.0010   13.8140   62.6820 C.ar  410  TYR410      0.0417
    105  CE2       25.7160   16.1620   62.5460 C.ar  410  TYR410      0.0417
    106  CZ        25.8760   14.8100   62.1550 C.ar  410  TYR410      0.1957
    107  OH        26.8690   14.4600   61.2940 O.3   410  TYR410     -0.2866
@<TRIPOS>BOND
     1    19    20    1
     2    20    21    1
     3    20    23    1
     4    21    22    2
     5    23    24    1
     6    25    24   ar
     7    25    27   ar
     8    24    26   ar
     9    27    29   ar
    10    30    31    1
    11     1     2    1
    12    26    28   ar
    13     5     2    1
    14     5     6    1
    15    29    28   ar
    16     2     3    1
    17     4     3    2
    18    31    34    1
    19    31    32    1
    20     6     7    1
    21    32    33    2
    22     8     7    2
    23     7     9   am
    24    35    36    1
    25    36    37    1
    26    36    39    1
    27    13    12    2
    28    44    45    1
    29    44    41    1
    30    40    37   am
    31    40    41    1
    32    10    11    1
    33    37    38    2
    34    12    11    1
    35    45    46    1
    36    41    42    1
    37    43    42    2
    38    11    14    1
    39    14    15    1
    40    42    48   am
    41    46    47    1
    42    15    16    1
    43    48    49    1
    44    72    73    1
    45    72    71    1
    46    74    73   ar
    47    73    75   ar
    48    16    18   am
    49    16    17    2
    50    50    49    1
    51    50    51    2
    52    49    52    1
    53    71    68    1
    54    88    87    2
    55    89    90    1
    56    89    86    1
    57    90    92   ar
    58    90    91   ar
    59    55    54   ar
    60    92    94   ar
    61    91    93   ar
    62    94    95   ar
    63   107   106    1
    64    52    53    1
    65    93    95   ar
    66    87    86    1
    67    54    53    1
    68    54    56   ar
    69    68    67    1
    70    68    69    1
    71    86    85    1
    72   106   105   ar
    73   106   104   ar
    74    67    59   am
    75   105   103   ar
    76   104   102   ar
    77    69    70    2
    78    64    62   ar
    79    64    66   ar
    80    61    62    1
    81    61    58    1
    82    83    82   ar
    83    62    63   ar
    84    66    65   ar
    85   103   101   ar
    86    59    58    1
    87    59    60    2
    88   102   101   ar
    89    57    58    1
    90    63    65   ar
    91    82    84   ar
    92    82    81    1
    93   101   100    1
    94    81    80    1
    95   100    97    1
    96    80    77    1
    97    97    96    1
    98    97    98    1
    99    77    78    1
   100    77    76    1
   101    79    78    2
   102    98    99    2
