@<TRIPOS>MOLECULE
tmp/6bv4A08.pdb
 96 91 0 0 0
SMALL
GASTEIGER

@<TRIPOS>ATOM
      1  N         37.1850   12.6040   51.1740 N.3   144  GLN144     -0.1245
      2  CA        36.2220   12.4840   52.2670 C.3   144  GLN144      0.1566
      3  C         36.4770   11.1330   52.9630 C.2   144  GLN144      0.2260
      4  O         36.1350   10.0920   52.4290 O.2   144  GLN144     -0.2867
      5  CB        34.7950   12.5470   51.7340 C.3   144  GLN144      0.0367
      6  CG        33.6990   12.1650   52.7500 C.3   144  GLN144      0.0905
      7  CD        33.3120   13.3060   53.6710 C.2   144  GLN144      0.2608
      8  OE1       33.9890   14.3470   53.7380 O.2   144  GLN144     -0.2717
      9  NE2       32.1870   13.1430   54.3650 N.am  144  GLN144     -0.0878
     10  N         35.7000   10.4780   56.2740 N.3   146  GLN146     -0.1245
     11  CA        34.6290   10.1920   57.2450 C.3   146  GLN146      0.1566
     12  C         33.6690    9.1190   56.6550 C.2   146  GLN146      0.2260
     13  O         33.1760    9.3170   55.5490 O.2   146  GLN146     -0.2867
     14  CB        33.8690   11.4920   57.4800 C.3   146  GLN146      0.0367
     15  CG        32.5450   11.4090   58.2420 C.3   146  GLN146      0.0905
     16  CD        32.8190   11.3670   59.7460 C.2   146  GLN146      0.2608
     17  OE1       32.7030   12.3690   60.4440 O.2   146  GLN146     -0.2717
     18  NE2       33.3260   10.2520   60.1730 N.am  146  GLN146     -0.0878
     19  N         27.8680   15.4740   51.1280 N.3   284  ALA284     -0.1245
     20  CA        28.0310   15.2600   52.5530 C.3   284  ALA284      0.1562
     21  C         27.7850   16.5200   53.3940 C.2   284  ALA284      0.2260
     22  O         27.7400   16.4480   54.6420 O.2   284  ALA284     -0.2867
     23  CB        29.4070   14.6740   52.8200 C.3   284  ALA284      0.0290
     24  N         29.1620   19.1800   54.9330 N.3   286  ALA286     -0.1231
     25  CA        30.4220   19.7350   55.4590 C.3   286  ALA286      0.1694
     26  C         31.2130   18.6620   56.2140 C.2   286  ALA286      0.2592
     27  O         30.6330   17.7330   56.7730 O.2   286  ALA286     -0.2718
     28  CB        30.1600   20.9160   56.3520 C.3   286  ALA286      0.0304
     29  N         32.5350   18.8090   56.2460 N.am  287  MET287     -0.1965
     30  CA        33.3650   17.8480   56.9460 C.3   287  MET287      0.1736
     31  C         34.5450   18.5540   57.6390 C.2   287  MET287      0.2616
     32  O         35.2680   19.3150   57.0170 O.2   287  MET287     -0.2715
     33  CB        33.8590   16.7540   55.9950 C.3   287  MET287      0.0427
     34  CG        34.7200   15.7080   56.6730 C.3   287  MET287      0.0599
     35  SD        33.8760   14.9360   58.0790 S.3   287  MET287     -0.1393
     36  CE        35.3110   14.6030   59.1300 C.3   287  MET287      0.0692
     37  N         34.7150   18.2500   58.9220 N.am  288  GLU288     -0.1977
     38  CA        35.5810   19.0090   59.7990 C.3   288  GLU288      0.1602
     39  C         37.0910   18.6190   59.7360 C.2   288  GLU288      0.2287
     40  O         37.7940   18.6800   60.7490 O.2   288  GLU288     -0.2864
     41  CB        35.0580   18.9270   61.2600 C.3   288  GLU288      0.0415
     42  CG        35.2570   17.5900   61.9440 C.3   288  GLU288      0.1163
     43  CD        34.0810   16.6070   61.7430 C.2   288  GLU288      0.3649
     44  OE1       33.1990   16.8600   60.8770 O.co2 288  GLU288     -0.2457
     45  OE2       34.0760   15.5560   62.4190 O.co2 288  GLU288     -0.2457
     46  N         29.8550   25.3530   63.4630 N.3   321  HIS321     -0.1226
     47  CA        29.7760   23.9450   63.7600 C.3   321  HIS321      0.1752
     48  C         31.1170   23.2410   63.4370 C.2   321  HIS321      0.2595
     49  O         31.7220   22.5800   64.2910 O.2   321  HIS321     -0.2718
     50  CB        28.6410   23.3150   62.9660 C.3   321  HIS321      0.0759
     51  CG        28.5150   21.8370   63.1630 C.ar  321  HIS321      0.0818
     52  ND1       27.5120   21.2660   63.9200 N.ar  321  HIS321     -0.2268
     53  CD2       29.2950   20.8120   62.7420 C.ar  321  HIS321      0.1154
     54  CE1       27.6620   19.9510   63.9240 C.ar  321  HIS321      0.1986
     55  NE2       28.7480   19.6540   63.2320 N.ar  321  HIS321     -0.2212
     56  N         31.5600   23.3660   62.1870 N.am  322  GLU322     -0.1979
     57  CA        32.7780   22.7090   61.7720 C.3   322  GLU322      0.1602
     58  C         34.0000   23.1810   62.5750 C.2   322  GLU322      0.2287
     59  O         34.8350   22.3680   62.9550 O.2   322  GLU322     -0.2864
     60  CB        33.0280   22.8750   60.2690 C.3   322  GLU322      0.0415
     61  CG        31.8940   22.3930   59.3720 C.3   322  GLU322      0.1163
     62  CD        31.3090   21.0340   59.7460 C.2   322  GLU322      0.3649
     63  OE1       30.1510   20.7830   59.4390 O.co2 322  GLU322     -0.2457
     64  OE2       32.0330   20.1900   60.2800 O.co2 322  GLU322     -0.2457
     65  N         29.1300   14.9730   67.6430 N.3   344  GLU344     -0.1245
     66  CA        28.2010   15.7080   66.7910 C.3   344  GLU344      0.1567
     67  C         27.1760   16.4910   67.5790 C.2   344  GLU344      0.2260
     68  O         26.8050   17.5860   67.2070 O.2   344  GLU344     -0.2867
     69  CB        27.5530   14.7980   65.7280 C.3   344  GLU344      0.0388
     70  CG        28.5390   14.2380   64.7080 C.3   344  GLU344      0.1160
     71  CD        29.3080   15.3020   63.8920 C.2   344  GLU344      0.3649
     72  OE1       30.2210   14.9650   63.1350 O.co2 344  GLU344     -0.2457
     73  OE2       28.9500   16.4910   63.9300 O.co2 344  GLU344     -0.2457
     74  N         25.0980    8.3210   62.4300 N.3   405  PHE405     -0.1241
     75  CA        24.9590    9.7120   61.9890 C.3   405  PHE405      0.1605
     76  C         23.4990   10.0270   61.7070 C.2   405  PHE405      0.2264
     77  O         23.0780   10.0440   60.5660 O.2   405  PHE405     -0.2867
     78  CB        25.8070    9.9720   60.7220 C.3   405  PHE405      0.0534
     79  CG        27.2750    9.8890   60.9500 C.ar  405  PHE405     -0.0203
     80  CD1       27.9060    8.6720   61.0690 C.ar  405  PHE405     -0.0042
     81  CD2       28.0370   11.0580   61.1140 C.ar  405  PHE405     -0.0042
     82  CE1       29.2900    8.5980   61.3090 C.ar  405  PHE405     -0.0003
     83  CE2       29.4130   10.9930   61.3140 C.ar  405  PHE405     -0.0003
     84  CZ        30.0300    9.7670   61.4320 C.ar  405  PHE405     -0.0000
     85  N         22.7760   13.9290   66.4970 N.3   410  TYR410     -0.1241
     86  CA        23.0620   15.3560   66.3370 C.3   410  TYR410      0.1605
     87  C         22.1410   16.2200   67.2270 C.2   410  TYR410      0.2264
     88  O         22.6180   17.0300   68.0170 O.2   410  TYR410     -0.2867
     89  CB        22.9050   15.7880   64.8770 C.3   410  TYR410      0.0534
     90  CG        24.0310   15.3860   63.9490 C.ar  410  TYR410     -0.0201
     91  CD1       24.2110   14.0660   63.5610 C.ar  410  TYR410     -0.0009
     92  CD2       24.8950   16.3400   63.4240 C.ar  410  TYR410     -0.0009
     93  CE1       25.2180   13.7010   62.6710 C.ar  410  TYR410      0.0417
     94  CE2       25.8790   16.0020   62.5130 C.ar  410  TYR410      0.0417
     95  CZ        26.0640   14.6950   62.1490 C.ar  410  TYR410      0.1957
     96  OH        27.0330   14.3800   61.2490 O.3   410  TYR410     -0.2866
@<TRIPOS>BOND
     1    19    20    1
     2     1     2    1
     3     5     2    1
     4     5     6    1
     5     2     3    1
     6     4     3    2
     7    20    23    1
     8    20    21    1
     9     6     7    1
    10    21    22    2
    11     7     8    2
    12     7     9   am
    13    24    25    1
    14    25    26    1
    15    25    28    1
    16    13    12    2
    17    33    34    1
    18    33    30    1
    19    26    29   am
    20    26    27    2
    21    29    30    1
    22    10    11    1
    23    12    11    1
    24    34    35    1
    25    30    31    1
    26    32    31    2
    27    11    14    1
    28    14    15    1
    29    31    37   am
    30    35    36    1
    31    15    16    1
    32    37    38    1
    33    61    62    1
    34    61    60    1
    35    63    62   ar
    36    39    38    1
    37    39    40    2
    38    62    64   ar
    39    16    18   am
    40    16    17    2
    41    38    41    1
    42    60    57    1
    43    77    76    2
    44    78    79    1
    45    78    75    1
    46    44    43   ar
    47    79    80   ar
    48    79    81   ar
    49    80    82   ar
    50    81    83   ar
    51    96    95    1
    52    41    42    1
    53    82    84   ar
    54    83    84   ar
    55    76    75    1
    56    43    42    1
    57    43    45   ar
    58    57    56    1
    59    57    58    1
    60    75    74    1
    61    95    94   ar
    62    95    93   ar
    63    56    48   am
    64    94    92   ar
    65    58    59    2
    66    93    91   ar
    67    53    51   ar
    68    53    55   ar
    69    50    51    1
    70    50    47    1
    71    72    71   ar
    72    51    52   ar
    73    55    54   ar
    74    92    90   ar
    75    48    47    1
    76    48    49    2
    77    46    47    1
    78    91    90   ar
    79    71    73   ar
    80    71    70    1
    81    52    54   ar
    82    90    89    1
    83    70    69    1
    84    89    86    1
    85    69    66    1
    86    86    85    1
    87    86    87    1
    88    66    67    1
    89    66    65    1
    90    68    67    2
    91    87    88    2
