@<TRIPOS>MOLECULE
tmp/6bvcA00.pdb
 157 154 0 0 0
SMALL
GASTEIGER

@<TRIPOS>ATOM
      1  N         34.6100    9.7150   62.4450 N.3    27  GLU27      -0.1231
      2  CA        33.7030    9.5990   61.3050 C.3    27  GLU27       0.1699
      3  C         33.5840   10.9150   60.5410 C.2    27  GLU27       0.2592
      4  O         33.3500   10.8960   59.3360 O.2    27  GLU27      -0.2718
      5  CB        32.3220    9.1270   61.7700 C.3    27  GLU27       0.0402
      6  CG        32.3610    7.7170   62.3870 C.3    27  GLU27       0.1161
      7  CD        33.0530    6.7020   61.4920 C.2    27  GLU27       0.3649
      8  OE1       32.8300    6.7290   60.2590 O.co2  27  GLU27      -0.2457
      9  OE2       33.8110    5.8620   62.0240 O.co2  27  GLU27      -0.2457
     10  N         33.7490   12.0460   61.2050 N.am   28  PHE28      -0.1976
     11  CA        33.7390   13.3230   60.4960 C.3    28  PHE28       0.1639
     12  C         35.1170   13.7100   59.9610 C.2    28  PHE28       0.2290
     13  O         35.2290   14.7210   59.2530 O.2    28  PHE28      -0.2864
     14  CB        33.2160   14.4380   61.4090 C.3    28  PHE28       0.0560
     15  CG        31.7910   14.2270   61.9230 C.ar   28  PHE28      -0.0200
     16  CD1       30.8660   13.4500   61.2170 C.ar   28  PHE28      -0.0042
     17  CD2       31.3840   14.8180   63.1240 C.ar   28  PHE28      -0.0042
     18  CE1       29.5550   13.2470   61.7140 C.ar   28  PHE28      -0.0003
     19  CE2       30.0740   14.6280   63.6290 C.ar   28  PHE28      -0.0003
     20  CZ        29.1600   13.8380   62.9150 C.ar   28  PHE28      -0.0000
     21  N         25.3880   13.5580   64.4500 N.3    88  LEU88      -0.1231
     22  CA        24.9410   12.1710   64.4120 C.3    88  LEU88       0.1693
     23  C         25.9630   11.4120   63.5830 C.2    88  LEU88       0.2592
     24  O         26.2790   11.8510   62.4710 O.2    88  LEU88      -0.2718
     25  CB        23.5450   12.0570   63.7760 C.3    88  LEU88       0.0284
     26  CG        23.0660   10.6470   63.4120 C.3    88  LEU88       0.0019
     27  CD1       22.9470    9.8310   64.6650 C.3    88  LEU88       0.0001
     28  CD2       21.7210   10.7090   62.6520 C.3    88  LEU88       0.0001
     29  N         26.4910   10.3070   64.1130 N.am   89  ALA89      -0.1966
     30  CA        27.4610    9.5200   63.3560 C.3    89  ALA89       0.1728
     31  C         27.3470    8.0490   63.7330 C.2    89  ALA89       0.2616
     32  O         27.0380    7.7150   64.8740 O.2    89  ALA89      -0.2715
     33  CB        28.9090    9.9580   63.6300 C.3    89  ALA89       0.0334
     34  N         27.6520    7.1780   62.7740 N.am   90  VAL90      -0.1977
     35  CA        27.7240    5.7420   63.0130 C.3    90  VAL90       0.1596
     36  C         29.0900    5.2700   62.5200 C.2    90  VAL90       0.2287
     37  O         29.5260    5.6600   61.4340 O.2    90  VAL90      -0.2864
     38  CB        26.5650    5.0130   62.3030 C.3    90  VAL90       0.0276
     39  CG1       26.7740    3.4790   62.2270 C.3    90  VAL90       0.0022
     40  CG2       25.2140    5.3420   63.0090 C.3    90  VAL90       0.0022
     41  N         27.8300    0.8860   59.4140 N.3    95  ARG95      -0.1231
     42  CA        26.8140    1.6780   58.7260 C.3    95  ARG95       0.1694
     43  C         25.8760    0.7690   57.9300 C.2    95  ARG95       0.2592
     44  O         26.1930   -0.3800   57.6540 O.2    95  ARG95      -0.2718
     45  CB        27.4730    2.6920   57.8010 C.3    95  ARG95       0.0321
     46  CG        27.9700    3.9050   58.5960 C.3    95  ARG95       0.0489
     47  CD        28.5240    4.9630   57.6670 C.3    95  ARG95       0.2205
     48  NE        29.3840    5.8440   58.4300 N.pl3  95  ARG95      -0.0865
     49  CZ        30.1100    6.8080   57.8820 C.cat  95  ARG95       0.5346
     50  NH1       30.0480    7.0250   56.5620 N.pl3  95  ARG95       0.1354
     51  NH2       30.8930    7.5520   58.6480 N.pl3  95  ARG95       0.1354
     52  N         24.6840    1.3000   57.6400 N.am   96  ARG96      -0.1966
     53  CA        23.6560    0.6690   56.8130 C.3    96  ARG96       0.1729
     54  C         23.0400   -0.5500   57.4960 C.2    96  ARG96       0.2616
     55  O         22.6190   -1.5030   56.8480 O.2    96  ARG96      -0.2715
     56  CB        24.2150    0.3320   55.4110 C.3    96  ARG96       0.0348
     57  CG        24.7520    1.6160   54.6980 C.3    96  ARG96       0.0492
     58  CD        23.6650    2.7580   54.5860 C.3    96  ARG96       0.2205
     59  NE        22.4770    2.2820   53.8600 N.pl3  96  ARG96      -0.0865
     60  CZ        22.3500    2.2250   52.5360 C.cat  96  ARG96       0.5346
     61  NH1       23.3180    2.6810   51.7330 N.pl3  96  ARG96       0.1354
     62  NH2       21.2310    1.6970   51.9930 N.pl3  96  ARG96       0.1354
     63  N         22.9610   -0.5180   58.8190 N.am   97  GLN97      -0.1963
     64  CA        22.3080   -1.5820   59.5640 C.3    97  GLN97       0.1733
     65  C         21.1970   -1.0260   60.4360 C.2    97  GLN97       0.2617
     66  O         20.7410   -1.7160   61.3440 O.2    97  GLN97      -0.2715
     67  CB        23.3180   -2.3470   60.4200 C.3    97  GLN97       0.0408
     68  CG        24.4640   -2.9710   59.6240 C.3    97  GLN97       0.0908
     69  CD        23.9890   -3.9970   58.5880 C.2    97  GLN97       0.2608
     70  OE1       22.9370   -4.6310   58.7410 O.2    97  GLN97      -0.2717
     71  NE2       24.7640   -4.1550   57.5230 N.am   97  GLN97      -0.0878
     72  N         20.7790    0.2240   60.1940 N.am   98  GLY98      -0.1940
     73  CA        19.6710    0.7990   60.9420 C.3    98  GLY98       0.2014
     74  C         20.0630    1.4550   62.2480 C.2    98  GLY98       0.2639
     75  O         19.1820    1.7850   63.0540 O.2    98  GLY98      -0.2714
     76  N         21.3610    1.6120   62.5170 N.am   99  ILE99      -0.1963
     77  CA        21.7590    2.1460   63.8190 C.3    99  ILE99       0.1727
     78  C         21.3770    3.6090   63.9280 C.2    99  ILE99       0.2616
     79  O         20.8780    4.0600   64.9790 O.2    99  ILE99      -0.2715
     80  CB        23.2640    1.9320   64.0840 C.3    99  ILE99       0.0290
     81  CG1       23.5620    0.4450   64.3170 C.3    99  ILE99       0.0022
     82  CG2       23.7150    2.7310   65.3600 C.3    99  ILE99       0.0023
     83  CD1       25.0900    0.1320   64.3720 C.3    99  ILE99       0.0001
     84  N         21.6060    4.3980   62.8680 N.am  100  ALA100     -0.1963
     85  CA        21.1620    5.7880   62.9520 C.3   100  ALA100      0.1728
     86  C         19.6530    5.8680   63.0960 C.2   100  ALA100      0.2616
     87  O         19.1380    6.7070   63.8430 O.2   100  ALA100     -0.2715
     88  CB        21.6110    6.6050   61.7210 C.3   100  ALA100      0.0334
     89  N         18.9270    5.0230   62.3710 N.am  101  THR101     -0.1951
     90  CA        17.4750    5.0170   62.5150 C.3   101  THR101      0.1897
     91  C         17.0690    4.6790   63.9420 C.2   101  THR101      0.2313
     92  O         16.1290    5.2780   64.4810 O.2   101  THR101     -0.2863
     93  CB        16.8840    4.0120   61.5170 C.3   101  THR101      0.1794
     94  OG1       17.2310    4.4440   60.1940 O.3   101  THR101     -0.2208
     95  CG2       15.3480    3.8870   61.6510 C.3   101  THR101      0.0378
     96  N         26.7330   15.5570   51.3250 N.3   127  ASP127     -0.1225
     97  CA        26.7150   14.5980   52.4260 C.3   127  ASP127      0.1805
     98  C         25.5970   13.6050   52.1330 C.2   127  ASP127      0.2598
     99  O         24.5420   13.5840   52.7670 O.2   127  ASP127     -0.2718
    100  CB        26.5360   15.2960   53.7670 C.3   127  ASP127      0.1424
    101  CG        26.7590   14.3520   54.9630 C.2   127  ASP127      0.3668
    102  OD1       26.9030   13.1150   54.7790 O.co2 127  ASP127     -0.2456
    103  OD2       26.7790   14.8510   56.1070 O.co2 127  ASP127     -0.2456
    104  N         25.8510   12.7950   51.1130 N.am  128  ASP128     -0.1960
    105  CA        24.8040   11.9310   50.5930 C.3   128  ASP128      0.1825
    106  C         24.2360   11.0020   51.6440 C.2   128  ASP128      0.2464
    107  O         23.0010   10.8670   51.6860 O.2   128  ASP128     -0.2730
    108  CB        25.3220   11.1500   49.3830 C.3   128  ASP128      0.1450
    109  CG        25.7110   12.0610   48.2410 C.2   128  ASP128      0.3671
    110  OD1       25.1440   13.1710   48.1320 O.co2 128  ASP128     -0.2456
    111  OD2       26.5970   11.6800   47.4660 O.co2 128  ASP128     -0.2456
    112  N         25.0310   10.3670   52.5240 N.am  129  PRO129     -0.2715
    113  CA        24.4040    9.4950   53.5370 C.3   129  PRO129      0.1536
    114  C         23.4320   10.2250   54.4400 C.2   129  PRO129      0.2598
    115  O         22.3200    9.7370   54.6790 O.2   129  PRO129     -0.2715
    116  CB        25.6030    8.9360   54.3260 C.3   129  PRO129      0.0310
    117  CG        26.7870    9.0400   53.3510 C.3   129  PRO129      0.0237
    118  CD        26.5130   10.3090   52.5780 C.3   129  PRO129      0.0939
    119  N         23.8330   11.3790   54.9800 N.am  130  ALA130     -0.1978
    120  CA        22.9430   12.1170   55.8660 C.3   130  ALA130      0.1597
    121  C         21.7040   12.5990   55.1200 C.2   130  ALA130      0.2287
    122  O         20.5840   12.5050   55.6330 O.2   130  ALA130     -0.2864
    123  CB        23.6950   13.2890   56.5130 C.3   130  ALA130      0.0319
    124  N         20.3030   11.2060   52.5050 N.3   132  ALA132     -0.1231
    125  CA        19.4270   10.0570   52.2520 C.3   132  ALA132      0.1694
    126  C         18.7120    9.6000   53.5220 C.2   132  ALA132      0.2592
    127  O         17.5060    9.3480   53.4980 O.2   132  ALA132     -0.2718
    128  CB        20.2300    8.8970   51.6440 C.3   132  ALA132      0.0304
    129  N         19.4290    9.5680   54.6530 N.am  133  LEU133     -0.1966
    130  CA        18.8370    9.2150   55.9410 C.3   133  LEU133      0.1728
    131  C         17.7030   10.1670   56.3310 C.2   133  LEU133      0.2616
    132  O         16.6010    9.7310   56.7090 O.2   133  LEU133     -0.2715
    133  CB        19.9110    9.2520   57.0220 C.3   133  LEU133      0.0311
    134  CG        19.3560    9.1820   58.4500 C.3   133  LEU133      0.0022
    135  CD1       18.8530    7.7280   58.7650 C.3   133  LEU133      0.0001
    136  CD2       20.4470    9.5800   59.4220 C.3   133  LEU133      0.0001
    137  N         17.9670   11.4770   56.2990 N.am  134  TYR134     -0.1974
    138  CA        16.9480   12.3950   56.7860 C.3   134  TYR134      0.1639
    139  C         15.8170   12.5770   55.7780 C.2   134  TYR134      0.2290
    140  O         14.6830   12.8840   56.1820 O.2   134  TYR134     -0.2864
    141  CB        17.5880   13.7460   57.1280 C.3   134  TYR134      0.0560
    142  CG        18.6590   13.6920   58.2210 C.ar  134  TYR134     -0.0198
    143  CD1       18.4830   12.9510   59.3660 C.ar  134  TYR134     -0.0009
    144  CD2       19.8360   14.4270   58.0930 C.ar  134  TYR134     -0.0009
    145  CE1       19.4380   12.9350   60.3650 C.ar  134  TYR134      0.0417
    146  CE2       20.8040   14.4100   59.0890 C.ar  134  TYR134      0.0417
    147  CZ        20.6020   13.6690   60.2160 C.ar  134  TYR134      0.1957
    148  OH        21.5750   13.6860   61.1840 O.3   134  TYR134     -0.2866
    149  N         14.5890   10.0290   54.1810 N.3   136  LYS136     -0.1245
    150  CA        13.7340    8.8850   54.4650 C.3   136  LYS136      0.1561
    151  C         12.8950    9.1270   55.7100 C.2   136  LYS136      0.2260
    152  O         11.7110    8.7850   55.7330 O.2   136  LYS136     -0.2867
    153  CB        14.5870    7.6120   54.6160 C.3   136  LYS136      0.0271
    154  CG        13.7890    6.3470   54.7900 C.3   136  LYS136      0.0035
    155  CD        14.6890    5.1620   55.0550 C.3   136  LYS136      0.0206
    156  CE        13.8980    3.8540   55.0380 C.3   136  LYS136      0.1093
    157  NZ        14.4850    2.7880   55.8990 N.3   136  LYS136     -0.1314
@<TRIPOS>BOND
     1   111   109   ar
     2   110   109   ar
     3   109   108    1
     4   108   105    1
     5   105   104    1
     6   105   106    1
     7   104    98   am
     8    96    97    1
     9   128   125    1
    10   106   107    2
    11   106   112   am
    12    61    60    1
    13    62    60    1
    14    98    97    1
    15    98    99    2
    16   125   124    1
    17   125   126    1
    18    97   100    1
    19   112   118    1
    20   112   113    1
    21    60    59    2
    22   118   117    1
    23   117   116    1
    24   127   126    2
    25   126   129   am
    26   113   116    1
    27   113   114    1
    28   100   101    1
    29    59    58    1
    30   149   150    1
    31   114   115    2
    32   114   119   am
    33   150   153    1
    34   150   151    1
    35    58    57    1
    36   153   154    1
    37   129   130    1
    38    57    56    1
    39   102   101   ar
    40   154   155    1
    41   101   103   ar
    42   119   120    1
    43   156   155    1
    44   156   157    1
    45   121   122    2
    46   121   120    1
    47    56    53    1
    48   151   152    2
    49   139   140    2
    50   139   138    1
    51   120   123    1
    52   130   131    1
    53   130   133    1
    54   137   131   am
    55   137   138    1
    56   131   132    2
    57    50    49    1
    58   138   141    1
    59    53    54    1
    60    53    52    1
    61    55    54    2
    62   133   134    1
    63   141   142    1
    64    54    63   am
    65    71    69   am
    66    52    43   am
    67    44    43    2
    68    47    48    1
    69    47    46    1
    70    45    46    1
    71    45    42    1
    72    49    48    2
    73    49    51    1
    74    43    42    1
    75   144   142   ar
    76   144   146   ar
    77   142   143   ar
    78   134   135    1
    79   134   136    1
    80    69    70    2
    81    69    68    1
    82    42    41    1
    83    63    64    1
    84   146   147   ar
    85    13    12    2
    86     4     3    2
    87   143   145   ar
    88    64    67    1
    89    64    65    1
    90    68    67    1
    91    12    11    1
    92    72    65   am
    93    72    73    1
    94    94    93    1
    95   147   145   ar
    96   147   148    1
    97     8     7   ar
    98    65    66    2
    99    11    10    1
   100    11    14    1
   101     3    10   am
   102     3     2    1
   103    73    74    1
   104    16    18   ar
   105    16    15   ar
   106     2     5    1
   107     2     1    1
   108    14    15    1
   109    37    36    2
   110     7     9   ar
   111     7     6    1
   112    93    95    1
   113    93    90    1
   114    18    20   ar
   115    88    85    1
   116     5     6    1
   117    15    17   ar
   118    39    38    1
   119    74    76   am
   120    74    75    2
   121    38    40    1
   122    38    35    1
   123    89    90    1
   124    89    86   am
   125    24    23    2
   126    90    91    1
   127    76    77    1
   128    36    35    1
   129    28    26    1
   130    34    35    1
   131    34    31   am
   132    84    85    1
   133    84    78   am
   134    20    19   ar
   135    85    86    1
   136    86    87    2
   137    17    19   ar
   138    30    33    1
   139    30    31    1
   140    30    29    1
   141    26    25    1
   142    26    27    1
   143    23    29   am
   144    23    22    1
   145    31    32    2
   146    25    22    1
   147    77    78    1
   148    77    80    1
   149    78    79    2
   150    91    92    2
   151    80    81    1
   152    80    82    1
   153    81    83    1
   154    22    21    1
