@<TRIPOS>MOLECULE
tmp/6bvcA01.pdb
 81 80 0 0 0
SMALL
GASTEIGER

@<TRIPOS>ATOM
      1  N         20.1550    6.6190   76.3390 N.3     8  ARG8       -0.1231
      2  CA        20.5090    8.0140   76.5390 C.3     8  ARG8        0.1694
      3  C         21.5520    8.0850   77.6430 C.2     8  ARG8        0.2592
      4  O         21.3830    7.4860   78.7120 O.2     8  ARG8       -0.2718
      5  CB        19.2800    8.8220   76.9100 C.3     8  ARG8        0.0321
      6  CG        19.6310   10.2920   77.1900 C.3     8  ARG8        0.0489
      7  CD        18.3380   11.0620   77.4870 C.3     8  ARG8        0.2205
      8  NE        18.6690   12.4440   77.8660 N.pl3   8  ARG8       -0.0865
      9  CZ        17.7680   13.3660   78.1620 C.cat   8  ARG8        0.5346
     10  NH1       16.4640   13.0870   78.1140 N.pl3   8  ARG8        0.1354
     11  NH2       18.1770   14.5800   78.5080 N.pl3   8  ARG8        0.1354
     12  N         22.6230    8.8050   77.3820 N.am    9  LEU9       -0.1966
     13  CA        23.6880    8.9280   78.3580 C.3     9  LEU9        0.1728
     14  C         23.2950    9.8980   79.4770 C.2     9  LEU9        0.2617
     15  O         22.7130   10.9610   79.2370 O.2     9  LEU9       -0.2715
     16  CB        24.9700    9.3810   77.6620 C.3     9  LEU9        0.0311
     17  CG        25.4850    8.4350   76.5590 C.3     9  LEU9        0.0022
     18  CD1       26.8360    8.9510   76.0550 C.3     9  LEU9        0.0001
     19  CD2       25.6400    6.9720   77.1140 C.3     9  LEU9        0.0001
     20  N         23.6370    9.5250   80.6970 N.am   10  GLY10      -0.1941
     21  CA        23.4980   10.3950   81.8450 C.3    10  GLY10       0.1998
     22  C         24.8370   10.8990   82.3540 C.2    10  GLY10       0.2481
     23  O         25.9120   10.5490   81.8410 O.2    10  GLY10      -0.2729
     24  N         24.8140   11.6970   83.4270 N.am   11  PRO11      -0.2715
     25  CA        26.0860   12.2190   83.9740 C.3    11  PRO11       0.1536
     26  C         26.9790   11.1380   84.5830 C.2    11  PRO11       0.2599
     27  O         28.1590   11.3980   84.8450 O.2    11  PRO11      -0.2715
     28  CB        25.6250   13.2220   85.0440 C.3    11  PRO11       0.0310
     29  CG        24.2790   12.7430   85.4650 C.3    11  PRO11       0.0237
     30  CD        23.6430   12.1320   84.2020 C.3    11  PRO11       0.0939
     31  N         26.4430    9.9450   84.8120 N.am   12  ASP12      -0.1958
     32  CA        27.2030    8.7770   85.2430 C.3    12  ASP12       0.1840
     33  C         27.9230    8.0740   84.0890 C.2    12  ASP12       0.2621
     34  O         28.5020    7.0020   84.3000 O.2    12  ASP12      -0.2715
     35  CB        26.2530    7.7720   85.9210 C.3    12  ASP12       0.1450
     36  CG        25.0580    7.4040   85.0350 C.2    12  ASP12       0.3671
     37  OD1       24.5020    8.2750   84.3050 O.co2  12  ASP12      -0.2456
     38  OD2       24.6500    6.2310   85.0650 O.co2  12  ASP12      -0.2456
     39  N         27.8270    8.5920   82.8740 N.am   13  GLN13      -0.1977
     40  CA        28.3410    7.9280   81.6790 C.3    13  GLN13       0.1601
     41  C         29.2500    8.8550   80.9100 C.2    13  GLN13       0.2287
     42  O         29.2320    8.8880   79.6870 O.2    13  GLN13      -0.2864
     43  CB        27.2010    7.4230   80.7890 C.3    13  GLN13       0.0394
     44  CG        26.4730    6.2730   81.4630 C.3    13  GLN13       0.0908
     45  CD        25.1820    5.9090   80.7860 C.2    13  GLN13       0.2608
     46  OE1       24.2940    6.7470   80.6570 O.2    13  GLN13      -0.2717
     47  NE2       25.0320    4.6280   80.4190 N.am   13  GLN13      -0.0878
     48  N         25.3940   16.6600   80.7880 N.3    48  LEU48      -0.1231
     49  CA        24.5720   15.4520   80.7460 C.3    48  LEU48       0.1693
     50  C         23.4840   15.4640   81.8030 C.2    48  LEU48       0.2592
     51  O         22.4650   14.7610   81.6580 O.2    48  LEU48      -0.2718
     52  CB        25.4670   14.2130   80.8960 C.3    48  LEU48       0.0284
     53  CG        26.3400   13.9440   79.6650 C.3    48  LEU48       0.0019
     54  CD1       27.4690   13.0130   80.1010 C.3    48  LEU48       0.0001
     55  CD2       25.4800   13.3020   78.5340 C.3    48  LEU48       0.0001
     56  N         23.6510   16.2660   82.8480 N.am   49  ARG49      -0.1966
     57  CA        22.6180   16.4440   83.8560 C.3    49  ARG49       0.1729
     58  C         21.5090   17.3740   83.3860 C.2    49  ARG49       0.2617
     59  O         20.4290   17.3930   83.9750 O.2    49  ARG49      -0.2715
     60  CB        23.2340   17.0250   85.1420 C.3    49  ARG49       0.0348
     61  CG        22.5380   16.5960   86.4070 C.3    49  ARG49       0.0492
     62  CD        23.2690   17.0880   87.6800 C.3    49  ARG49       0.2205
     63  NE        24.7220   16.9540   87.5650 N.pl3  49  ARG49      -0.0865
     64  CZ        25.4210   15.8750   87.9220 C.cat  49  ARG49       0.5346
     65  NH1       24.8120   14.7980   88.4360 N.pl3  49  ARG49       0.1354
     66  NH2       26.7460   15.8720   87.7660 N.pl3  49  ARG49       0.1354
     67  N         21.7480   18.1440   82.3360 N.am   50  SER50      -0.1936
     68  CA        20.7850   19.1630   81.9730 C.3    50  SER50       0.2055
     69  C         19.6460   18.5670   81.1560 C.2    50  SER50       0.2642
     70  O         19.8240   17.6270   80.3840 O.2    50  SER50      -0.2714
     71  CB        21.4760   20.2680   81.1840 C.3    50  SER50       0.2130
     72  OG        21.6670   19.8130   79.8770 O.3    50  SER50      -0.2179
     73  N         18.4830   19.1960   81.2700 N.am   51  LYS51      -0.1977
     74  CA        17.2970   18.7390   80.5700 C.3    51  LYS51       0.1596
     75  C         17.2310   19.3040   79.1590 C.2    51  LYS51       0.2287
     76  O         16.3110   18.9840   78.4060 O.2    51  LYS51      -0.2864
     77  CB        16.0370   19.1220   81.3490 C.3    51  LYS51       0.0298
     78  CG        15.9050   18.4290   82.6950 C.3    51  LYS51       0.0038
     79  CD        14.6120   18.8230   83.3900 C.3    51  LYS51       0.0206
     80  CE        14.7210   18.6550   84.8960 C.3    51  LYS51       0.1093
     81  NZ        14.8820   17.2260   85.2830 N.3    51  LYS51      -0.1314
@<TRIPOS>BOND
     1    18    17    1
     2     1     2    1
     3     2     5    1
     4     2     3    1
     5    17    19    1
     6    17    16    1
     7     5     6    1
     8     6     7    1
     9    12     3   am
    10    12    13    1
    11     7     8    1
    12     3     4    2
    13    16    13    1
    14     8     9    2
    15    10     9    1
    16     9    11    1
    17    13    14    1
    18    76    75    2
    19    55    53    1
    20    75    74    1
    21    15    14    2
    22    14    20   am
    23    53    54    1
    24    53    52    1
    25    42    41    2
    26    72    71    1
    27    70    69    2
    28    47    45   am
    29    74    73    1
    30    74    77    1
    31    46    45    2
    32    20    21    1
    33    49    48    1
    34    49    52    1
    35    49    50    1
    36    45    44    1
    37    43    44    1
    38    43    40    1
    39    41    40    1
    40    69    73   am
    41    69    68    1
    42    71    68    1
    43    77    78    1
    44    51    50    2
    45    40    39    1
    46    50    56   am
    47    23    22    2
    48    21    22    1
    49    68    67    1
    50    67    58   am
    51    22    24   am
    52    78    79    1
    53    56    57    1
    54    39    33   am
    55    58    57    1
    56    58    59    2
    57    79    80    1
    58    24    25    1
    59    24    30    1
    60    57    60    1
    61    25    26    1
    62    25    28    1
    63    33    34    2
    64    33    32    1
    65    30    29    1
    66    37    36   ar
    67    26    31   am
    68    26    27    2
    69    31    32    1
    70    80    81    1
    71    36    38   ar
    72    36    35    1
    73    28    29    1
    74    60    61    1
    75    32    35    1
    76    61    62    1
    77    63    62    1
    78    63    64    2
    79    66    64    1
    80    64    65    1
