@<TRIPOS>MOLECULE
tmp/6bveB00.pdb
 88 82 0 0 0
SMALL
GASTEIGER

@<TRIPOS>ATOM
      1  N        -14.3280   32.9370    3.8860 N.3     9  ASN9       -0.1240
      2  CA       -14.0430   31.5220    3.7040 C.3     9  ASN9        0.1653
      3  C        -15.2970   30.9110    3.0910 C.2     9  ASN9        0.2266
      4  O        -16.2820   30.6650    3.7860 O.2     9  ASN9       -0.2867
      5  CB       -13.6560   30.8700    5.0360 C.3     9  ASN9        0.1155
      6  CG       -13.4260   29.3740    4.9070 C.2     9  ASN9        0.2627
      7  OD1      -13.3530   28.8450    3.7990 O.2     9  ASN9       -0.2716
      8  ND2      -13.3160   28.6820    6.0450 N.am    9  ASN9       -0.0877
      9  N        -15.5990   27.9960    2.0780 N.3    11  LYS11      -0.1245
     10  CA       -15.6300   26.5690    2.3670 C.3    11  LYS11       0.1561
     11  C        -15.9620   25.8220    1.0790 C.2    11  LYS11       0.2260
     12  O        -15.4990   26.2130   -0.0010 O.2    11  LYS11      -0.2867
     13  CB       -16.6180   26.2810    3.5150 C.3    11  LYS11       0.0271
     14  CG       -16.3260   27.1580    4.7260 C.3    11  LYS11       0.0035
     15  CD       -17.1900   26.7910    5.9550 C.3    11  LYS11       0.0206
     16  CE       -16.7870   27.6560    7.1370 C.3    11  LYS11       0.1093
     17  NZ       -17.4940   27.2560    8.3960 N.3    11  LYS11      -0.1314
     18  N         -7.9820   25.0320    9.7700 N.3    96  HIS96      -0.1241
     19  CA        -9.3920   25.2860   10.0220 C.3    96  HIS96       0.1621
     20  C        -10.0150   24.1420   10.8210 C.2    96  HIS96       0.2264
     21  O         -9.6740   22.9730   10.6370 O.2    96  HIS96      -0.2867
     22  CB       -10.1440   25.4850    8.7020 C.3    96  HIS96       0.0745
     23  CG       -11.5140   26.0480    8.9080 C.ar   96  HIS96       0.0817
     24  ND1      -12.5800   25.2660    9.2890 N.ar   96  HIS96      -0.2268
     25  CD2      -11.9690   27.3250    8.8790 C.ar   96  HIS96       0.1154
     26  CE1      -13.6480   26.0310    9.4560 C.ar   96  HIS96       0.1986
     27  NE2      -13.3040   27.2840    9.2110 N.ar   96  HIS96      -0.2212
     28  N        -11.2970   31.2200   16.0420 N.3   165  GLU165     -0.1245
     29  CA       -12.6500   30.7740   15.6930 C.3   165  GLU165      0.1567
     30  C        -13.1100   29.7580   16.7260 C.2   165  GLU165      0.2260
     31  O        -12.8960   28.5510   16.5530 O.2   165  GLU165     -0.2867
     32  CB       -12.7040   30.1710   14.2880 C.3   165  GLU165      0.0388
     33  CG       -12.2770   31.1170   13.1820 C.3   165  GLU165      0.1160
     34  CD       -12.6720   30.6270   11.7900 C.2   165  GLU165      0.3649
     35  OE1      -12.2790   29.4940   11.4210 O.co2 165  GLU165     -0.2457
     36  OE2      -13.3570   31.3880   11.0670 O.co2 165  GLU165     -0.2457
     37  N        -18.9180   28.4450   15.0190 N.3   170  ILE170     -0.1231
     38  CA       -18.7580   28.2990   13.5720 C.3   170  ILE170      0.1692
     39  C        -20.0310   27.6950   12.9900 C.2   170  ILE170      0.2592
     40  O        -20.4260   26.5810   13.3550 O.2   170  ILE170     -0.2718
     41  CB       -17.5360   27.4380   13.2260 C.3   170  ILE170      0.0266
     42  CG1      -16.2470   28.1380   13.6560 C.3   170  ILE170      0.0019
     43  CG2      -17.4800   27.1370   11.7100 C.3   170  ILE170      0.0020
     44  CD1      -15.0560   27.2070   13.6540 C.3   170  ILE170      0.0001
     45  N        -20.6790   28.4410   12.0950 N.am  171  GLY171     -0.1957
     46  CA       -21.8370   27.9570   11.3640 C.3   171  GLY171      0.1869
     47  C        -23.0910   27.7870   12.1900 C.2   171  GLY171      0.2309
     48  O        -24.0930   27.2940   11.6630 O.2   171  GLY171     -0.2863
     49  N        -16.4620   33.0950   13.2680 N.3   203  GLY203     -0.1210
     50  CA       -17.5080   32.3120   13.8970 C.3   203  GLY203      0.1956
     51  C        -18.8140   33.0750   13.9220 C.2   203  GLY203      0.2613
     52  O        -19.0910   33.8110   14.8660 O.2   203  GLY203     -0.2717
     53  N        -19.5860   32.9360   12.8500 N.am  204  SER204     -0.1938
     54  CA       -20.8760   33.6080   12.6900 C.3   204  SER204      0.2055
     55  C        -20.7370   35.1280   12.7340 C.2   204  SER204      0.2642
     56  O        -21.5590   35.8300   13.3290 O.2   204  SER204     -0.2714
     57  CB       -21.8890   33.1090   13.7200 C.3   204  SER204      0.2130
     58  OG       -22.1150   31.7050   13.5480 O.3   204  SER204     -0.2179
     59  N        -19.7090   35.6470   12.0630 N.am  205  VAL205     -0.1977
     60  CA       -19.6690   37.0680   11.7330 C.3   205  VAL205      0.1596
     61  C        -20.7060   37.3460   10.6500 C.2   205  VAL205      0.2287
     62  O        -20.8540   36.5810    9.6870 O.2   205  VAL205     -0.2864
     63  CB       -18.2560   37.4760   11.2630 C.3   205  VAL205      0.0276
     64  CG1      -18.2230   38.9590   10.8120 C.3   205  VAL205      0.0022
     65  CG2      -17.1920   37.2120   12.3470 C.3   205  VAL205      0.0022
     66  N        -12.6780   36.3660    9.7470 N.3   223  LEU223     -0.1231
     67  CA       -12.7260   35.2420    8.8160 C.3   223  LEU223      0.1693
     68  C        -14.1850   34.8010    8.7760 C.2   223  LEU223      0.2592
     69  O        -14.7210   34.3170    9.7790 O.2   223  LEU223     -0.2718
     70  CB       -11.7880   34.1170    9.2650 C.3   223  LEU223      0.0284
     71  CG       -11.6790   32.9000    8.3380 C.3   223  LEU223      0.0019
     72  CD1      -11.1870   33.3410    6.9520 C.3   223  LEU223      0.0001
     73  CD2      -10.7270   31.8620    8.9470 C.3   223  LEU223      0.0001
     74  N        -14.8370   35.0070    7.6300 N.am  224  VAL224     -0.1966
     75  CA       -16.2970   35.0190    7.5180 C.3   224  VAL224      0.1727
     76  C        -16.7410   33.8250    6.6870 C.2   224  VAL224      0.2617
     77  O        -16.3410   33.6890    5.5260 O.2   224  VAL224     -0.2715
     78  CB       -16.7990   36.3190    6.8790 C.3   224  VAL224      0.0290
     79  CG1      -18.3520   36.3160    6.8220 C.3   224  VAL224      0.0023
     80  CG2      -16.2200   37.5490    7.6430 C.3   224  VAL224      0.0023
     81  N        -17.5530   32.9600    7.2760 N.am  225  GLY225     -0.1940
     82  CA       -18.0330   31.8020    6.5430 C.3   225  GLY225      0.2014
     83  C        -19.3250   32.0580    5.7860 C.2   225  GLY225      0.2639
     84  O        -19.3130   32.6600    4.7050 O.2   225  GLY225     -0.2714
     85  N        -20.4520   31.6280    6.3540 N.am  226  GLY226     -0.1954
     86  CA       -21.7210   31.7330    5.6380 C.3   226  GLY226      0.1869
     87  C        -22.0160   33.1210    5.0840 C.2   226  GLY226      0.2309
     88  O        -22.5440   33.2590    3.9790 O.2   226  GLY226     -0.2863
@<TRIPOS>BOND
     1    12    11    2
     2    11    10    1
     3     9    10    1
     4    10    13    1
     5     3     2    1
     6     3     4    2
     7    13    14    1
     8     2     1    1
     9     2     5    1
    10     7     6    2
    11    88    87    2
    12    84    83    2
    13    14    15    1
    14     6     5    1
    15     6     8   am
    16    87    86    1
    17    77    76    2
    18    86    85    1
    19    83    85   am
    20    83    82    1
    21    15    16    1
    22    82    81    1
    23    76    81   am
    24    76    75    1
    25    79    78    1
    26    78    75    1
    27    78    80    1
    28    72    71    1
    29    16    17    1
    30    75    74    1
    31    74    68   am
    32    71    73    1
    33    71    70    1
    34    22    23    1
    35    22    19    1
    36    68    67    1
    37    68    69    2
    38    67    70    1
    39    67    66    1
    40    25    23   ar
    41    25    27   ar
    42    23    24   ar
    43    27    26   ar
    44    24    26   ar
    45    62    61    2
    46    18    19    1
    47    19    20    1
    48    21    20    2
    49    61    60    1
    50    64    63    1
    51    36    34   ar
    52    63    60    1
    53    63    65    1
    54    46    45    1
    55    46    47    1
    56    35    34   ar
    57    48    47    2
    58    43    41    1
    59    60    59    1
    60    34    33    1
    61    59    55   am
    62    45    39   am
    63    54    55    1
    64    54    53    1
    65    54    57    1
    66    55    56    2
    67    53    51   am
    68    39    40    2
    69    39    38    1
    70    33    32    1
    71    41    38    1
    72    41    42    1
    73    49    50    1
    74    58    57    1
    75    38    37    1
    76    44    42    1
    77    50    51    1
    78    51    52    2
    79    32    29    1
    80    29    28    1
    81    29    30    1
    82    31    30    2
