@<TRIPOS>MOLECULE
tmp/6bvfC01.pdb
 146 143 0 0 0
SMALL
GASTEIGER

@<TRIPOS>ATOM
      1  N        109.5190  206.1560  298.4220 N.3    23  PHE23      -0.1241
      2  CA       110.9110  206.5520  298.2570 C.3    23  PHE23       0.1605
      3  C        111.0500  208.0340  297.9510 C.2    23  PHE23       0.2264
      4  O        112.0880  208.6330  298.2460 O.2    23  PHE23      -0.2867
      5  CB       111.5460  205.7270  297.1440 C.3    23  PHE23       0.0534
      6  CG       112.9520  206.1130  296.8350 C.ar   23  PHE23      -0.0203
      7  CD1      113.9740  205.7640  297.6800 C.ar   23  PHE23      -0.0042
      8  CD2      113.2510  206.8270  295.6990 C.ar   23  PHE23      -0.0042
      9  CE1      115.2740  206.1100  297.3950 C.ar   23  PHE23      -0.0003
     10  CE2      114.5400  207.1810  295.4110 C.ar   23  PHE23      -0.0003
     11  CZ       115.5580  206.8230  296.2620 C.ar   23  PHE23      -0.0000
     12  N        110.3230  212.0030  298.3230 N.3    25  PRO25      -0.2116
     13  CA       109.8480  212.9570  299.3280 C.3    25  PRO25       0.1372
     14  C        108.5950  213.6770  298.8560 C.2    25  PRO25       0.2244
     15  O        108.1940  213.5990  297.6950 O.2    25  PRO25      -0.2868
     16  CB       111.0290  213.9140  299.4910 C.3    25  PRO25       0.0268
     17  CG       111.7910  213.7930  298.2330 C.3    25  PRO25       0.0207
     18  CD       111.6370  212.3770  297.7840 C.3    25  PRO25       0.0892
     19  N        108.1740  219.6490  299.9550 N.3    29  ASP29      -0.1225
     20  CA       109.5690  219.6750  300.3720 C.3    29  ASP29       0.1805
     21  C        110.4900  219.9670  299.1970 C.2    29  ASP29       0.2597
     22  O        111.4590  220.7220  299.3320 O.2    29  ASP29      -0.2718
     23  CB       109.9400  218.3520  301.0300 C.3    29  ASP29       0.1424
     24  CG       109.2640  218.1630  302.3690 C.2    29  ASP29       0.3668
     25  OD1      108.9840  219.1790  303.0390 O.co2  29  ASP29      -0.2456
     26  OD2      109.0220  217.0010  302.7570 O.co2  29  ASP29      -0.2456
     27  N        110.2050  219.3790  298.0370 N.am   30  LEU30      -0.1979
     28  CA       111.0610  219.5980  296.8790 C.3    30  LEU30       0.1596
     29  C        111.0180  221.0480  296.4240 C.2    30  LEU30       0.2287
     30  O        112.0590  221.6370  296.1120 O.2    30  LEU30      -0.2864
     31  CB       110.6520  218.6680  295.7430 C.3    30  LEU30       0.0297
     32  CG       111.1900  217.2450  295.8410 C.3    30  LEU30       0.0022
     33  CD1      110.5140  216.4940  296.9500 C.3    30  LEU30       0.0001
     34  CD2      110.9840  216.5250  294.5370 C.3    30  LEU30       0.0001
     35  N        112.8530  222.9910  298.9140 N.3    33  THR33      -0.1218
     36  CA       114.2630  222.6320  298.8300 C.3    33  THR33       0.1862
     37  C        114.9190  223.2810  297.6230 C.2    33  THR33       0.2287
     38  O        115.9450  223.9590  297.7500 O.2    33  THR33      -0.2866
     39  CB       114.4170  221.1190  298.7630 C.3    33  THR33       0.1770
     40  OG1      113.8510  220.5310  299.9380 O.3    33  THR33      -0.2211
     41  CG2      115.8820  220.7550  298.6720 C.3    33  THR33       0.0375
     42  N        117.9970  226.5850  297.3980 N.3    37  LEU37      -0.1245
     43  CA       119.3630  226.4130  296.9360 C.3    37  LEU37       0.1561
     44  C        119.6380  227.0170  295.5730 C.2    37  LEU37       0.2260
     45  O        120.7970  227.3360  295.2850 O.2    37  LEU37      -0.2867
     46  CB       119.7200  224.9240  296.8780 C.3    37  LEU37       0.0270
     47  CG       119.7270  224.1700  298.1970 C.3    37  LEU37       0.0019
     48  CD1      119.9770  222.6970  297.9460 C.3    37  LEU37       0.0001
     49  CD2      120.7920  224.7570  299.0870 C.3    37  LEU37       0.0001
     50  N        112.2650  215.5390  291.9050 N.3   102  TRP102     -0.1241
     51  CA       113.3050  214.8940  292.6930 C.3   102  TRP102      0.1605
     52  C        114.5130  214.5550  291.8410 C.2   102  TRP102      0.2264
     53  O        115.6530  214.6820  292.2980 O.2   102  TRP102     -0.2867
     54  CB       112.7870  213.6260  293.3540 C.3   102  TRP102      0.0550
     55  CG       113.8590  212.9860  294.1500 C.ar  102  TRP102      0.0003
     56  CD1      114.3920  213.4440  295.3120 C.ar  102  TRP102      0.0946
     57  CD2      114.5890  211.8080  293.8110 C.ar  102  TRP102      0.0152
     58  NE1      115.3850  212.6040  295.7420 N.ar  102  TRP102     -0.2442
     59  CE2      115.5250  211.5900  294.8340 C.ar  102  TRP102      0.0810
     60  CE3      114.5280  210.9040  292.7520 C.ar  102  TRP102      0.0012
     61  CZ2      116.3970  210.5120  294.8260 C.ar  102  TRP102      0.0191
     62  CZ3      115.3920  209.8330  292.7480 C.ar  102  TRP102      0.0001
     63  CH2      116.3140  209.6460  293.7770 C.ar  102  TRP102      0.0015
     64  N        116.5230  217.9060  290.8860 N.3   105  ILE105     -0.1231
     65  CA       117.1210  218.4100  292.1160 C.3   105  ILE105      0.1692
     66  C        118.2030  217.4620  292.6000 C.2   105  ILE105      0.2592
     67  O        119.2700  217.8890  293.0480 O.2   105  ILE105     -0.2718
     68  CB       116.0420  218.6280  293.1880 C.3   105  ILE105      0.0266
     69  CG1      115.0940  219.7430  292.7630 C.3   105  ILE105      0.0019
     70  CG2      116.6840  218.9410  294.5170 C.3   105  ILE105      0.0020
     71  CD1      113.8890  219.8710  293.6470 C.3   105  ILE105      0.0001
     72  N        117.9530  216.1610  292.5060 N.am  106  SER106     -0.1952
     73  CA       118.9880  215.2060  292.8680 C.3   106  SER106      0.1924
     74  C        120.1260  215.2290  291.8610 C.2   106  SER106      0.2314
     75  O        121.2990  215.1630  292.2430 O.2   106  SER106     -0.2863
     76  CB       118.3910  213.8110  292.9650 C.3   106  SER106      0.2116
     77  OG       117.3380  213.7820  293.9080 O.3   106  SER106     -0.2180
     78  N        122.6890  218.4610  291.7390 N.3   109  THR109     -0.1203
     79  CA       123.4630  218.3730  292.9730 C.3   109  THR109      0.1994
     80  C        124.6260  217.3970  292.8440 C.2   109  THR109      0.2617
     81  O        125.7610  217.7040  293.2280 O.2   109  THR109     -0.2717
     82  CB       122.5610  217.9270  294.1190 C.3   109  THR109      0.1784
     83  OG1      121.9060  216.7030  293.7490 O.3   109  THR109     -0.2211
     84  CG2      121.5590  218.9790  294.4500 C.3   109  THR109      0.0376
     85  N        124.3520  216.1960  292.3360 N.am  110  PHE110     -0.1975
     86  CA       125.3320  215.1170  292.3450 C.3   110  PHE110      0.1639
     87  C        125.6050  214.5850  290.9450 C.2   110  PHE110      0.2290
     88  O        126.0220  213.4330  290.7900 O.2   110  PHE110     -0.2864
     89  CB       124.8660  213.9850  293.2600 C.3   110  PHE110      0.0560
     90  CG       124.7500  214.3800  294.6930 C.ar  110  PHE110     -0.0200
     91  CD1      125.8670  214.4490  295.4950 C.ar  110  PHE110     -0.0042
     92  CD2      123.5200  214.6800  295.2370 C.ar  110  PHE110     -0.0042
     93  CE1      125.7590  214.8090  296.8210 C.ar  110  PHE110     -0.0003
     94  CE2      123.4030  215.0410  296.5540 C.ar  110  PHE110     -0.0003
     95  CZ       124.5230  215.1060  297.3520 C.ar  110  PHE110     -0.0000
     96  N        122.3780  205.6500  292.0110 N.3   118  TYR118     -0.1241
     97  CA       121.6960  205.5020  293.2890 C.3   118  TYR118      0.1605
     98  C        120.3380  204.8430  293.1320 C.2   118  TYR118      0.2264
     99  O        119.8950  204.1260  294.0330 O.2   118  TYR118     -0.2867
    100  CB       121.5230  206.8540  293.9610 C.3   118  TYR118      0.0534
    101  CG       120.9100  206.7490  295.3290 C.ar  118  TYR118     -0.0201
    102  CD1      121.6810  206.4120  296.4240 C.ar  118  TYR118     -0.0009
    103  CD2      119.5580  206.9720  295.5240 C.ar  118  TYR118     -0.0009
    104  CE1      121.1310  206.3150  297.6750 C.ar  118  TYR118      0.0417
    105  CE2      118.9970  206.8720  296.7690 C.ar  118  TYR118      0.0417
    106  CZ       119.7880  206.5430  297.8420 C.ar  118  TYR118      0.1957
    107  OH       119.2340  206.4430  299.0940 O.3   118  TYR118     -0.2866
    108  N        119.9950  201.6250  295.0560 N.3   122  PHE122     -0.1241
    109  CA       118.9920  201.5470  296.1050 C.3   122  PHE122      0.1605
    110  C        117.9190  200.5280  295.7660 C.2   122  PHE122      0.2264
    111  O        117.6050  199.6580  296.5820 O.2   122  PHE122     -0.2867
    112  CB       118.3330  202.9060  296.3320 C.3   122  PHE122      0.0534
    113  CG       117.3330  202.9020  297.4440 C.ar  122  PHE122     -0.0203
    114  CD1      117.7390  203.0450  298.7540 C.ar  122  PHE122     -0.0042
    115  CD2      115.9890  202.7120  297.1850 C.ar  122  PHE122     -0.0042
    116  CE1      116.8230  203.0280  299.7710 C.ar  122  PHE122     -0.0003
    117  CE2      115.0770  202.6800  298.2070 C.ar  122  PHE122     -0.0003
    118  CZ       115.4940  202.8460  299.4960 C.ar  122  PHE122     -0.0000
    119  N        119.9220  202.0350  304.3120 N.3   137  ALA137     -0.1231
    120  CA       120.0440  202.1550  302.8760 C.3   137  ALA137      0.1679
    121  C        121.3680  202.8090  302.5090 C.2   137  ALA137      0.2434
    122  O        122.1040  203.2790  303.3760 O.2   137  ALA137     -0.2733
    123  CB       118.8780  202.9670  302.3240 C.3   137  ALA137      0.0304
    124  N        121.7110  202.8340  301.2290 N.am  138  PRO138     -0.2718
    125  CA       122.8840  203.6030  300.8040 C.3   138  PRO138      0.1535
    126  C        122.6040  205.0930  300.8670 C.2   138  PRO138      0.2598
    127  O        121.4850  205.4990  301.1930 O.2   138  PRO138     -0.2715
    128  CB       123.1110  203.1260  299.3680 C.3   138  PRO138      0.0310
    129  CG       121.7670  202.7190  298.9070 C.3   138  PRO138      0.0237
    130  CD       121.0650  202.1490  300.0990 C.3   138  PRO138      0.0939
    131  N        123.5960  205.9200  300.5570 N.am  139  ILE139     -0.1964
    132  CA       123.4660  207.3640  300.7060 C.3   139  ILE139      0.1727
    133  C        124.1610  208.0560  299.5440 C.2   139  ILE139      0.2616
    134  O        125.2530  207.6560  299.1290 O.2   139  ILE139     -0.2715
    135  CB       124.0310  207.8370  302.0610 C.3   139  ILE139      0.0290
    136  CG1      125.4770  207.3690  302.2460 C.3   139  ILE139      0.0022
    137  CG2      123.1650  207.3310  303.1990 C.3   139  ILE139      0.0023
    138  CD1      126.5320  208.3280  301.7240 C.3   139  ILE139      0.0001
    139  N        123.5170  209.0970  299.0200 N.am  140  LEU140     -0.1977
    140  CA       124.0710  209.8930  297.9350 C.3   140  LEU140      0.1596
    141  C        125.3390  210.6040  298.3770 C.2   140  LEU140      0.2287
    142  O        125.2820  211.5210  299.1990 O.2   140  LEU140     -0.2864
    143  CB       123.0470  210.9190  297.4580 C.3   140  LEU140      0.0297
    144  CG       121.8150  210.3480  296.7760 C.3   140  LEU140      0.0022
    145  CD1      120.8090  211.4460  296.5320 C.3   140  LEU140      0.0001
    146  CD2      122.2440  209.7320  295.4780 C.3   140  LEU140      0.0001
@<TRIPOS>BOND
     1    88    87    2
     2    64    65    1
     3    87    86    1
     4    78    79    1
     5    52    53    2
     6    52    51    1
     7    74    75    2
     8    74    73    1
     9    50    51    1
    10    96    97    1
    11    65    66    1
    12    65    68    1
    13    85    86    1
    14    85    80   am
    15    86    89    1
    16    72    66   am
    17    72    73    1
    18    66    67    2
    19    51    54    1
    20    62    60   ar
    21    62    63   ar
    22    60    57   ar
    23    69    68    1
    24    69    71    1
    25    80    79    1
    26    80    81    2
    27    73    76    1
    28    76    77    1
    29    79    82    1
    30    98    97    1
    31    98    99    2
    32    68    70    1
    33    89    90    1
    34    97   100    1
    35    54    55    1
    36    83    82    1
    37    63    61   ar
    38    57    55   ar
    39    57    59   ar
    40   100   101    1
    41    82    84    1
    42    55    56   ar
    43    34    32    1
    44    90    92   ar
    45    90    91   ar
    46    61    59   ar
    47    59    58   ar
    48   108   109    1
    49    92    94   ar
    50    45    44    2
    51    56    58   ar
    52   101   103   ar
    53   101   102   ar
    54    10     8   ar
    55    10    11   ar
    56   146   144    1
    57    91    93   ar
    58   103   105   ar
    59    44    43    1
    60     8     6   ar
    61    31    32    1
    62    31    28    1
    63   110   109    1
    64   110   111    2
    65    32    33    1
    66   109   112    1
    67    30    29    2
    68    11     9   ar
    69   112   113    1
    70   102   104   ar
    71    29    28    1
    72   145   144    1
    73    94    95   ar
    74   105   106   ar
    75   144   143    1
    76    93    95   ar
    77     6     5    1
    78     6     7   ar
    79    46    43    1
    80    46    47    1
    81    28    27    1
    82    43    42    1
    83     5     2    1
    84   115   113   ar
    85   115   117   ar
    86     9     7   ar
    87   113   114   ar
    88   143   140    1
    89    37    38    2
    90    37    36    1
    91   104   106   ar
    92    15    14    2
    93    18    17    1
    94    18    12    1
    95   106   107    1
    96   140   141    1
    97   140   139    1
    98    48    47    1
    99     3     4    2
   100     3     2    1
   101    27    21   am
   102    47    49    1
   103   117   118   ar
   104    17    16    1
   105     2     1    1
   106    12    13    1
   107   141   142    2
   108    41    39    1
   109   114   116   ar
   110    39    36    1
   111    39    40    1
   112    36    35    1
   113    14    13    1
   114   129   128    1
   115   129   130    1
   116   139   133   am
   117   134   133    2
   118    21    22    2
   119    21    20    1
   120    13    16    1
   121   128   125    1
   122   118   116   ar
   123   133   132    1
   124    19    20    1
   125   130   124    1
   126    20    23    1
   127   131   132    1
   128   131   126   am
   129   132   135    1
   130   125   126    1
   131   125   124    1
   132   126   127    2
   133    23    24    1
   134   124   121   am
   135   138   136    1
   136   135   136    1
   137   135   137    1
   138   123   120    1
   139    24    26   ar
   140    24    25   ar
   141   121   120    1
   142   121   122    2
   143   120   119    1
