@<TRIPOS>MOLECULE
tmp/6bvfC00.pdb
 96 98 0 0 0
SMALL
GASTEIGER

@<TRIPOS>ATOM
      1  N        121.3310  201.2500  292.6880 N.3   121  SER121     -0.1217
      2  CA       121.9970  200.8160  293.9070 C.3   121  SER121      0.1889
      3  C        121.0710  200.8470  295.1100 C.2   121  SER121      0.2288
      4  O        121.3390  200.1610  296.1000 O.2   121  SER121     -0.2866
      5  CB       123.2300  201.6750  294.1710 C.3   121  SER121      0.2089
      6  OG       123.8890  201.2590  295.3520 O.3   121  SER121     -0.2183
      7  N        117.6300  197.8680  294.3380 N.3   124  VAL124     -0.1231
      8  CA       117.8590  196.4660  294.6350 C.3   124  VAL124      0.1692
      9  C        118.0510  196.2400  296.1300 C.2   124  VAL124      0.2592
     10  O        117.7020  195.1710  296.6400 O.2   124  VAL124     -0.2718
     11  CB       119.0570  195.9400  293.8380 C.3   124  VAL124      0.0266
     12  CG1      120.3440  196.5510  294.3550 C.3   124  VAL124      0.0020
     13  CG2      119.0890  194.4350  293.9160 C.3   124  VAL124      0.0020
     14  N        118.5830  197.2320  296.8500 N.am  125  TRP125     -0.1976
     15  CA       118.7100  197.1060  298.2960 C.3   125  TRP125      0.1640
     16  C        117.3580  196.9170  298.9570 C.2   125  TRP125      0.2290
     17  O        117.2630  196.2780  300.0080 O.2   125  TRP125     -0.2864
     18  CB       119.3820  198.3340  298.8900 C.3   125  TRP125      0.0576
     19  CG       119.5370  198.2230  300.3630 C.ar  125  TRP125      0.0006
     20  CD1      120.4670  197.4950  301.0350 C.ar  125  TRP125      0.0946
     21  CD2      118.6770  198.7880  301.3550 C.ar  125  TRP125      0.0152
     22  NE1      120.2720  197.6130  302.3880 N.ar  125  TRP125     -0.2442
     23  CE2      119.1740  198.3990  302.6080 C.ar  125  TRP125      0.0810
     24  CE3      117.5460  199.6030  301.3030 C.ar  125  TRP125      0.0012
     25  CZ2      118.5820  198.7960  303.7980 C.ar  125  TRP125      0.0191
     26  CZ3      116.9600  199.9960  302.4850 C.ar  125  TRP125      0.0001
     27  CH2      117.4770  199.5940  303.7150 C.ar  125  TRP125      0.0015
     28  N        115.1520  195.1990  297.5340 N.3   127  ARG127     -0.1231
     29  CA       114.7450  193.8870  297.0560 C.3   127  ARG127      0.1694
     30  C        115.4910  192.7490  297.7310 C.2   127  ARG127      0.2593
     31  O        114.9320  191.6580  297.8710 O.2   127  ARG127     -0.2718
     32  CB       114.9560  193.7890  295.5440 C.3   127  ARG127      0.0321
     33  CG       114.2700  194.8890  294.7640 C.3   127  ARG127      0.0489
     34  CD       112.7720  194.7870  294.8760 C.3   127  ARG127      0.2205
     35  NE       112.1030  195.8590  294.1520 N.pl3 127  ARG127     -0.0865
     36  CZ       111.7550  195.7850  292.8750 C.cat 127  ARG127      0.5346
     37  NH1      112.0180  194.6890  292.1810 N.pl3 127  ARG127      0.1354
     38  NH2      111.1460  196.8040  292.2920 N.pl3 127  ARG127      0.1354
     39  N        116.7360  192.9810  298.1400 N.am  128  THR128     -0.1940
     40  CA       117.5520  192.0250  298.8740 C.3   128  THR128      0.2013
     41  C        116.7840  191.5100  300.0810 C.2   128  THR128      0.2484
     42  O        115.9890  192.2550  300.6630 O.2   128  THR128     -0.2729
     43  CB       118.8600  192.6810  299.3160 C.3   128  THR128      0.1807
     44  OG1      119.6160  193.0650  298.1640 O.3   128  THR128     -0.2208
     45  CG2      119.6850  191.7400  300.1630 C.3   128  THR128      0.0379
     46  N        116.9640  190.2510  300.4660 N.am  129  PRO129     -0.2726
     47  CA       116.2940  189.7350  301.6600 C.3   129  PRO129      0.1402
     48  C        116.6850  190.5380  302.8850 C.2   129  PRO129      0.2269
     49  O        117.7190  191.2210  302.8850 O.2   129  PRO129     -0.2865
     50  CB       116.8040  188.2920  301.7550 C.3   129  PRO129      0.0296
     51  CG       117.1990  187.9480  300.3750 C.3   129  PRO129      0.0237
     52  CD       117.7400  189.2070  299.7810 C.3   129  PRO129      0.0939
     53  N        120.1330  189.2790  304.9900 N.3   132  TYR132     -0.1227
     54  CA       121.4000  189.2930  304.2650 C.3   132  TYR132      0.1736
     55  C        121.6360  190.6210  303.5570 C.2   132  TYR132      0.2595
     56  O        122.0000  190.6630  302.3860 O.2   132  TYR132     -0.2718
     57  CB       121.4270  188.1330  303.2820 C.3   132  TYR132      0.0548
     58  CG       121.3650  186.7950  303.9650 C.ar  132  TYR132     -0.0200
     59  CD1      122.5040  186.2120  304.4870 C.ar  132  TYR132     -0.0009
     60  CD2      120.1610  186.1250  304.1100 C.ar  132  TYR132     -0.0009
     61  CE1      122.4510  184.9930  305.1180 C.ar  132  TYR132      0.0417
     62  CE2      120.0970  184.9060  304.7400 C.ar  132  TYR132      0.0417
     63  CZ       121.2440  184.3440  305.2420 C.ar  132  TYR132      0.1957
     64  OH       121.1870  183.1260  305.8740 O.3   132  TYR132     -0.2866
     65  N        121.4540  191.7220  304.2770 N.am  133  ARG133     -0.1966
     66  CA       121.6720  193.0460  303.7170 C.3   133  ARG133      0.1714
     67  C        122.0280  193.9890  304.8500 C.2   133  ARG133      0.2458
     68  O        121.7990  193.6690  306.0210 O.2   133  ARG133     -0.2730
     69  CB       120.4270  193.5540  302.9810 C.3   133  ARG133      0.0347
     70  CG       119.2740  193.8600  303.9050 C.3   133  ARG133      0.0492
     71  CD       118.0650  194.3210  303.1280 C.3   133  ARG133      0.2205
     72  NE       116.9430  194.6190  304.0070 N.pl3 133  ARG133     -0.0865
     73  CZ       115.7630  195.0520  303.5830 C.cat 133  ARG133      0.5346
     74  NH1      115.5520  195.2350  302.2890 N.pl3 133  ARG133      0.1354
     75  NH2      114.7950  195.2990  304.4510 N.pl3 133  ARG133      0.1354
     76  N        122.5840  195.1520  304.5400 N.am  134  PRO134     -0.2716
     77  CA       122.9130  196.1180  305.5800 C.3   134  PRO134      0.1521
     78  C        121.6570  196.6250  306.2600 C.2   134  PRO134      0.2440
     79  O        120.5460  196.4670  305.7330 O.2   134  PRO134     -0.2731
     80  CB       123.6140  197.2420  304.8070 C.3   134  PRO134      0.0310
     81  CG       124.0840  196.6020  303.5760 C.3   134  PRO134      0.0237
     82  CD       123.0700  195.5780  303.2230 C.3   134  PRO134      0.0939
     83  N        121.7920  197.2470  307.4300 N.am  135  PRO135     -0.2727
     84  CA       120.5910  197.7280  308.1260 C.3   135  PRO135      0.1402
     85  C        120.0020  198.9700  307.4930 C.2   135  PRO135      0.2269
     86  O        118.7760  199.0910  307.3900 O.2   135  PRO135     -0.2865
     87  CB       121.1100  198.0080  309.5380 C.3   135  PRO135      0.0296
     88  CG       122.5410  198.3800  309.3170 C.3   135  PRO135      0.0237
     89  CD       123.0260  197.5380  308.1760 C.3   135  PRO135      0.0939
     90  N        121.7110  202.8340  301.2290 N.3   138  PRO138     -0.2116
     91  CA       122.8840  203.6030  300.8040 C.3   138  PRO138      0.1372
     92  C        122.6040  205.0930  300.8670 C.2   138  PRO138      0.2244
     93  O        121.4850  205.4990  301.1930 O.2   138  PRO138     -0.2868
     94  CB       123.1110  203.1260  299.3680 C.3   138  PRO138      0.0268
     95  CG       121.7670  202.7190  298.9070 C.3   138  PRO138      0.0207
     96  CD       121.0650  202.1490  300.0990 C.3   138  PRO138      0.0892
@<TRIPOS>BOND
     1    37    36    1
     2    38    36    1
     3     1     2    1
     4    36    35    2
     5    11    13    1
     6    11    12    1
     7    11     8    1
     8     2     5    1
     9     2     3    1
    10    35    34    1
    11     5     6    1
    12     7     8    1
    13     8     9    1
    14    33    34    1
    15    33    32    1
    16     3     4    2
    17    32    29    1
    18     9    10    2
    19     9    14   am
    20    14    15    1
    21    29    28    1
    22    29    30    1
    23    30    31    2
    24    30    39   am
    25    39    40    1
    26    44    43    1
    27    15    18    1
    28    15    16    1
    29    40    43    1
    30    40    41    1
    31    18    19    1
    32    95    94    1
    33    95    96    1
    34    16    17    2
    35    43    45    1
    36    94    91    1
    37    52    51    1
    38    52    46    1
    39    41    46   am
    40    41    42    2
    41    96    90    1
    42    19    20   ar
    43    19    21   ar
    44    51    50    1
    45    46    47    1
    46    91    92    1
    47    91    90    1
    48    92    93    2
    49    20    22   ar
    50    24    21   ar
    51    24    26   ar
    52    21    23   ar
    53    47    50    1
    54    47    48    1
    55    74    73    1
    56    56    55    2
    57    22    23   ar
    58    26    27   ar
    59    23    25   ar
    60    49    48    2
    61    69    66    1
    62    69    70    1
    63    71    70    1
    64    71    72    1
    65    82    81    1
    66    82    76    1
    67    57    58    1
    68    57    54    1
    69    55    54    1
    70    55    65   am
    71    81    80    1
    72    73    72    2
    73    73    75    1
    74    27    25   ar
    75    66    65    1
    76    66    67    1
    77    58    60   ar
    78    58    59   ar
    79    60    62   ar
    80    54    53    1
    81    59    61   ar
    82    76    67   am
    83    76    77    1
    84    62    63   ar
    85    80    77    1
    86    67    68    2
    87    61    63   ar
    88    63    64    1
    89    77    78    1
    90    79    78    2
    91    78    83   am
    92    86    85    2
    93    83    84    1
    94    83    89    1
    95    85    84    1
    96    84    87    1
    97    89    88    1
    98    88    87    1
