@<TRIPOS>MOLECULE
tmp/6bvmB00.pdb
 100 95 0 0 0
SMALL
GASTEIGER

@<TRIPOS>ATOM
      1  N         27.2960   30.8560   25.3130 N.3   301  MET301     -0.1230
      2  CA        28.4640   30.7510   24.4370 C.3   301  MET301      0.1702
      3  C         29.0980   29.3700   24.5060 C.2   301  MET301      0.2592
      4  O         29.7830   28.9560   23.5620 O.2   301  MET301     -0.2718
      5  CB        29.5070   31.8150   24.7950 C.3   301  MET301      0.0401
      6  CG        29.0190   33.2580   24.6650 C.3   301  MET301      0.0596
      7  SD        28.5900   33.6330   22.9480 S.3   301  MET301     -0.1393
      8  CE        27.9510   35.2970   23.0980 C.3   301  MET301      0.0692
      9  N         28.8950   28.6500   25.6040 N.am  302  ASN302     -0.1974
     10  CA        29.4270   27.3040   25.7580 C.3   302  ASN302      0.1688
     11  C         28.4150   26.2160   25.4420 C.2   302  ASN302      0.2292
     12  O         28.7360   25.0330   25.5930 O.2   302  ASN302     -0.2864
     13  CB        29.9620   27.1220   27.1820 C.3   302  ASN302      0.1181
     14  CG        31.3000   27.7910   27.3680 C.2   302  ASN302      0.2629
     15  OD1       32.3170   27.3010   26.8800 O.2   302  ASN302     -0.2716
     16  ND2       31.3070   28.9350   28.0380 N.am  302  ASN302     -0.0877
     17  N         29.0470   26.8900   20.7770 N.3   307  TYR307     -0.1241
     18  CA        30.4620   26.6260   21.0140 C.3   307  TYR307      0.1605
     19  C         31.1980   26.2080   19.7460 C.2   307  TYR307      0.2264
     20  O         32.3780   26.5460   19.5680 O.2   307  TYR307     -0.2867
     21  CB        30.5900   25.5380   22.0770 C.3   307  TYR307      0.0534
     22  CG        32.0110   25.2070   22.4810 C.ar  307  TYR307     -0.0201
     23  CD1       32.6800   25.9730   23.4310 C.ar  307  TYR307     -0.0009
     24  CD2       32.6740   24.1220   21.9220 C.ar  307  TYR307     -0.0009
     25  CE1       33.9830   25.6640   23.8060 C.ar  307  TYR307      0.0417
     26  CE2       33.9680   23.8120   22.2880 C.ar  307  TYR307      0.0417
     27  CZ        34.6140   24.5830   23.2310 C.ar  307  TYR307      0.1957
     28  OH        35.9000   24.2690   23.5920 O.3   307  TYR307     -0.2866
     29  N         33.1630   27.9840   14.9260 N.3   310  ASP310     -0.1239
     30  CA        34.5330   28.4830   14.8120 C.3   310  ASP310      0.1674
     31  C         34.6560   29.6390   13.8180 C.2   310  ASP310      0.2266
     32  O         35.4570   30.5570   14.0340 O.2   310  ASP310     -0.2867
     33  CB        35.4650   27.3470   14.4060 C.3   310  ASP310      0.1410
     34  CG        35.6380   26.3160   15.5000 C.2   310  ASP310      0.3668
     35  OD1       35.2440   26.5780   16.6570 O.co2 310  ASP310     -0.2456
     36  OD2       36.1670   25.2320   15.2010 O.co2 310  ASP310     -0.2456
     37  N         33.4370   32.8510   15.8050 N.3   313  PHE313     -0.1227
     38  CA        34.3260   33.3630   16.8410 C.3   313  PHE313      0.1736
     39  C         35.6680   33.8000   16.2720 C.2   313  PHE313      0.2595
     40  O         36.3360   34.6420   16.8770 O.2   313  PHE313     -0.2718
     41  CB        34.4950   32.3230   17.9510 C.3   313  PHE313      0.0547
     42  CG        33.2980   32.2220   18.8440 C.ar  313  PHE313     -0.0202
     43  CD1       33.0920   33.1560   19.8440 C.ar  313  PHE313     -0.0042
     44  CD2       32.3550   31.2330   18.6550 C.ar  313  PHE313     -0.0042
     45  CE1       31.9830   33.0890   20.6530 C.ar  313  PHE313     -0.0003
     46  CE2       31.2450   31.1600   19.4620 C.ar  313  PHE313     -0.0003
     47  CZ        31.0590   32.0920   20.4630 C.ar  313  PHE313     -0.0000
     48  N         36.0490   33.2860   15.1010 N.am  314  GLU314     -0.1979
     49  CA        37.2840   33.7430   14.4600 C.3   314  GLU314      0.1602
     50  C         37.2500   35.2370   14.1390 C.2   314  GLU314      0.2287
     51  O         38.2980   35.8980   14.1460 O.2   314  GLU314     -0.2864
     52  CB        37.5360   32.9300   13.1870 C.3   314  GLU314      0.0415
     53  CG        38.5580   33.5400   12.2440 C.3   314  GLU314      0.1163
     54  CD        39.7310   32.6220   11.9920 C.2   314  GLU314      0.3649
     55  OE1       39.8840   32.1490   10.8460 O.co2 314  GLU314     -0.2457
     56  OE2       40.4980   32.3680   12.9440 O.co2 314  GLU314     -0.2457
     57  N         35.4650   37.6060   15.8140 N.3   316  ILE316     -0.1245
     58  CA        35.2030   38.4570   16.9850 C.3   316  ILE316      0.1561
     59  C         36.4730   39.2260   17.3360 C.2   316  ILE316      0.2260
     60  O         37.5640   38.6260   17.3630 O.2   316  ILE316     -0.2867
     61  CB        34.7310   37.5920   18.1640 C.3   316  ILE316      0.0252
     62  CG1       33.3560   36.9810   17.8640 C.3   316  ILE316      0.0019
     63  CG2       34.6740   38.3760   19.4510 C.3   316  ILE316      0.0019
     64  CD1       32.2930   38.0150   17.6060 C.3   316  ILE316      0.0001
     65  N         37.1120   38.6910   22.6770 N.3   321  LYS321     -0.1245
     66  CA        37.5350   37.3480   23.0530 C.3   321  LYS321      0.1561
     67  C         38.0840   37.3390   24.4670 C.2   321  LYS321      0.2260
     68  O         37.8620   36.3880   25.2250 O.2   321  LYS321     -0.2867
     69  CB        38.5930   36.8270   22.0820 C.3   321  LYS321      0.0271
     70  CG        38.0580   36.4940   20.7030 C.3   321  LYS321      0.0035
     71  CD        39.1990   36.1820   19.7570 C.3   321  LYS321      0.0206
     72  CE        38.6840   35.5750   18.4800 C.3   321  LYS321      0.1093
     73  NZ        39.6700   35.6400   17.3740 N.3   321  LYS321     -0.1314
     74  N         35.2140   37.6100   27.0640 N.3   324  LEU324     -0.1231
     75  CA        34.4720   36.3640   27.2100 C.3   324  LEU324      0.1693
     76  C         35.3060   35.3160   27.9380 C.2   324  LEU324      0.2591
     77  O         34.7930   34.6020   28.8110 O.2   324  LEU324     -0.2718
     78  CB        34.0250   35.8720   25.8270 C.3   324  LEU324      0.0284
     79  CG        33.3420   34.5070   25.7380 C.3   324  LEU324      0.0019
     80  CD1       32.1310   34.4360   26.6670 C.3   324  LEU324      0.0001
     81  CD2       32.9310   34.2560   24.2910 C.3   324  LEU324      0.0001
     82  N         36.6000   35.2390   27.6150 N.am  325  GLU325     -0.1979
     83  CA        37.4940   34.2950   28.2800 C.3   325  GLU325      0.1602
     84  C         37.5730   34.5570   29.7840 C.2   325  GLU325      0.2287
     85  O         37.5040   33.6230   30.5900 O.2   325  GLU325     -0.2864
     86  CB        38.8890   34.3740   27.6500 C.3   325  GLU325      0.0415
     87  CG        39.9650   33.5910   28.4050 C.3   325  GLU325      0.1163
     88  CD        39.7530   32.0900   28.3510 C.2   325  GLU325      0.3649
     89  OE1       39.1650   31.6080   27.3660 O.co2 325  GLU325     -0.2457
     90  OE2       40.1750   31.3890   29.2920 O.co2 325  GLU325     -0.2457
     91  N         34.3790   33.3720   31.3500 N.3   328  HIS328     -0.1241
     92  CA        34.3840   31.9140   31.4360 C.3   328  HIS328      0.1621
     93  C         35.2730   31.4240   32.5800 C.2   328  HIS328      0.2264
     94  O         34.9460   30.4420   33.2570 O.2   328  HIS328     -0.2867
     95  CB        34.8580   31.3280   30.1000 C.3   328  HIS328      0.0745
     96  CG        34.9830   29.8350   30.1020 C.ar  328  HIS328      0.0817
     97  ND1       33.8940   28.9960   30.2090 N.ar  328  HIS328     -0.2268
     98  CD2       36.0710   29.0320   30.0330 C.ar  328  HIS328      0.1154
     99  CE1       34.3030   27.7400   30.1880 C.ar  328  HIS328      0.1986
    100  NE2       35.6200   27.7340   30.0890 N.ar  328  HIS328     -0.2212
@<TRIPOS>BOND
     1    55    54   ar
     2    54    53    1
     3    54    56   ar
     4    53    52    1
     5    52    49    1
     6    31    32    2
     7    31    30    1
     8    50    51    2
     9    50    49    1
    10    33    30    1
    11    33    34    1
    12    49    48    1
    13    30    29    1
    14    48    39   am
    15    36    34   ar
    16    34    35   ar
    17    37    38    1
    18    57    58    1
    19    39    38    1
    20    39    40    2
    21    38    41    1
    22    58    59    1
    23    58    61    1
    24    59    60    2
    25    73    72    1
    26    64    62    1
    27    62    61    1
    28    41    42    1
    29    61    63    1
    30    72    71    1
    31    44    42   ar
    32    44    46   ar
    33    42    43   ar
    34    46    47   ar
    35    20    19    2
    36    19    18    1
    37    71    70    1
    38    43    45   ar
    39    47    45   ar
    40    70    69    1
    41    17    18    1
    42    18    21    1
    43    24    26   ar
    44    24    22   ar
    45    21    22    1
    46    69    66    1
    47    26    27   ar
    48    22    23   ar
    49    65    66    1
    50     7     8    1
    51     7     6    1
    52    66    67    1
    53    27    28    1
    54    27    25   ar
    55    23    25   ar
    56     4     3    2
    57    81    79    1
    58     2     3    1
    59     2     5    1
    60     2     1    1
    61    67    68    2
    62     3     9   am
    63     6     5    1
    64    11    12    2
    65    11    10    1
    66     9    10    1
    67    79    78    1
    68    79    80    1
    69    10    13    1
    70    78    75    1
    71    15    14    2
    72    74    75    1
    73    13    14    1
    74    75    76    1
    75    89    88   ar
    76    14    16   am
    77    82    76   am
    78    82    83    1
    79    86    83    1
    80    86    87    1
    81    76    77    2
    82    83    84    1
    83    88    87    1
    84    88    90   ar
    85    84    85    2
    86    98   100   ar
    87    98    96   ar
    88   100    99   ar
    89    95    96    1
    90    95    92    1
    91    96    97   ar
    92    99    97   ar
    93    91    92    1
    94    92    93    1
    95    93    94    2
