@<TRIPOS>MOLECULE
tmp/6bw2B00.pdb
 166 155 0 0 0
SMALL
GASTEIGER

@<TRIPOS>ATOM
      1  N         33.7540  -27.5120   12.3540 N.3    52  HIS52      -0.1241
      2  CA        34.6320  -28.2850   11.4830 C.3    52  HIS52       0.1621
      3  C         34.1160  -29.7000   11.2440 C.2    52  HIS52       0.2264
      4  O         34.9060  -30.6160   11.0170 O.2    52  HIS52      -0.2867
      5  CB        36.0430  -28.3310   12.0640 C.3    52  HIS52       0.0745
      6  CG        36.7110  -26.9950   12.1270 C.ar   52  HIS52       0.0817
      7  ND1       37.6050  -26.6510   13.1180 N.ar   52  HIS52      -0.2268
      8  CD2       36.6240  -25.9210   11.3100 C.ar   52  HIS52       0.1154
      9  CE1       38.0360  -25.4200   12.9110 C.ar   52  HIS52       0.1986
     10  NE2       37.4550  -24.9540   11.8200 N.ar   52  HIS52      -0.2212
     11  N         34.9390  -31.5070    7.4300 N.3    55  ALA55      -0.1231
     12  CA        36.3130  -31.9600    7.2470 C.3    55  ALA55       0.1694
     13  C         36.7130  -32.9710    8.3110 C.2    55  ALA55       0.2592
     14  O         37.5790  -33.8190    8.0650 O.2    55  ALA55      -0.2718
     15  CB        37.2680  -30.7700    7.2520 C.3    55  ALA55       0.0304
     16  N         36.1020  -32.9000    9.4950 N.am   56  PHE56      -0.1976
     17  CA        36.3540  -33.9240   10.5010 C.3    56  PHE56       0.1639
     18  C         35.8140  -35.2690   10.0350 C.2    56  PHE56       0.2290
     19  O         36.4870  -36.2970   10.1700 O.2    56  PHE56      -0.2864
     20  CB        35.7190  -33.5290   11.8360 C.3    56  PHE56       0.0560
     21  CG        36.5200  -32.5250   12.6290 C.ar   56  PHE56      -0.0200
     22  CD1       37.6710  -31.9590   12.1050 C.ar   56  PHE56      -0.0042
     23  CD2       36.1180  -32.1500   13.9030 C.ar   56  PHE56      -0.0042
     24  CE1       38.4020  -31.0360   12.8330 C.ar   56  PHE56      -0.0003
     25  CE2       36.8500  -31.2290   14.6370 C.ar   56  PHE56      -0.0003
     26  CZ        37.9940  -30.6740   14.1010 C.ar   56  PHE56      -0.0000
     27  N         38.1640  -36.3920    7.2330 N.3    59  MET59      -0.1245
     28  CA        39.4000  -36.8990    7.8210 C.3    59  MET59       0.1570
     29  C         39.1660  -38.2350    8.5140 C.2    59  MET59       0.2261
     30  O         39.9850  -39.1540    8.4030 O.2    59  MET59      -0.2867
     31  CB        39.9710  -35.8760    8.8040 C.3    59  MET59       0.0387
     32  CG        41.3990  -36.1550    9.2500 C.3    59  MET59       0.0595
     33  SD        42.5990  -35.7400    7.9730 S.3    59  MET59      -0.1393
     34  CE        44.1090  -36.3380    8.7190 C.3    59  MET59       0.0692
     35  N         41.0180  -41.8290    7.5740 N.3    63  LEU63      -0.1245
     36  CA        41.8070  -42.5410    8.5720 C.3    63  LEU63       0.1561
     37  C         41.4310  -44.0160    8.6250 C.2    63  LEU63       0.2260
     38  O         42.3020  -44.8780    8.7930 O.2    63  LEU63      -0.2867
     39  CB        41.6230  -41.8900    9.9390 C.3    63  LEU63       0.0270
     40  CG        42.2610  -40.5040   10.0440 C.3    63  LEU63       0.0019
     41  CD1       42.0900  -39.9210   11.4390 C.3    63  LEU63       0.0001
     42  CD2       43.7280  -40.5470    9.6320 C.3    63  LEU63       0.0001
     43  N         47.5010  -43.4700   14.2280 N.3    74  LEU74      -0.1245
     44  CA        46.9880  -42.1550   13.8680 C.3    74  LEU74       0.1561
     45  C         47.9630  -41.0510   14.2490 C.2    74  LEU74       0.2260
     46  O         47.8320  -39.9260   13.7570 O.2    74  LEU74      -0.2867
     47  CB        45.6500  -41.9120   14.5630 C.3    74  LEU74       0.0270
     48  CG        44.5790  -42.9830   14.3740 C.3    74  LEU74       0.0019
     49  CD1       43.3620  -42.6350   15.2050 C.3    74  LEU74       0.0001
     50  CD2       44.2090  -43.1380   12.9110 C.3    74  LEU74       0.0001
     51  N         49.9780  -38.8180   11.5360 N.3    77  VAL77      -0.1231
     52  CA        49.1800  -37.7780   10.8960 C.3    77  VAL77       0.1692
     53  C         48.8460  -36.6840   11.8990 C.2    77  VAL77       0.2591
     54  O         48.8380  -35.4940   11.5650 O.2    77  VAL77      -0.2718
     55  CB        47.9120  -38.3920   10.2790 C.3    77  VAL77       0.0266
     56  CG1       47.4810  -37.6000    9.0560 C.3    77  VAL77       0.0020
     57  CG2       48.1480  -39.8520    9.9320 C.3    77  VAL77       0.0020
     58  N         48.5530  -37.0750   13.1410 N.am   78  MET78      -0.1979
     59  CA        48.3160  -36.1020   14.2010 C.3    78  MET78       0.1605
     60  C         49.5330  -35.2090   14.4060 C.2    78  MET78       0.2287
     61  O         49.4060  -33.9860   14.5250 O.2    78  MET78      -0.2864
     62  CB        47.9540  -36.8300   15.4980 C.3    78  MET78       0.0413
     63  CG        47.6840  -35.9140   16.6790 C.3    78  MET78       0.0598
     64  SD        46.7320  -36.6740   18.0100 S.3    78  MET78      -0.1393
     65  CE        47.2870  -38.3730   17.9260 C.3    78  MET78       0.0692
     66  N         49.6800  -32.8740   11.0610 N.3    81  VAL81      -0.1231
     67  CA        48.7110  -31.7930   10.9220 C.3    81  VAL81       0.1692
     68  C         48.8870  -30.7580   12.0290 C.2    81  VAL81       0.2592
     69  O         48.6790  -29.5580   11.8130 O.2    81  VAL81      -0.2718
     70  CB        47.2800  -32.3650   10.9070 C.3    81  VAL81       0.0266
     71  CG1       46.2550  -31.2560   10.6810 C.3    81  VAL81       0.0020
     72  CG2       47.1480  -33.4590    9.8570 C.3    81  VAL81       0.0020
     73  N         49.2590  -31.2020   13.2300 N.am   82  PHE82      -0.1976
     74  CA        49.2510  -30.3360   14.4040 C.3    82  PHE82       0.1639
     75  C         50.5350  -29.5390   14.6370 C.2    82  PHE82       0.2290
     76  O         50.4850  -28.3110   14.7520 O.2    82  PHE82      -0.2864
     77  CB        48.9370  -31.1870   15.6410 C.3    82  PHE82       0.0560
     78  CG        49.1200  -30.4660   16.9420 C.ar   82  PHE82      -0.0200
     79  CD1       48.3500  -29.3620   17.2650 C.ar   82  PHE82      -0.0042
     80  CD2       50.0630  -30.9110   17.8550 C.ar   82  PHE82      -0.0042
     81  CE1       48.5270  -28.7100   18.4690 C.ar   82  PHE82      -0.0003
     82  CE2       50.2440  -30.2650   19.0590 C.ar   82  PHE82      -0.0003
     83  CZ        49.4740  -29.1630   19.3670 C.ar   82  PHE82      -0.0000
     84  N         52.2160  -22.6640   13.7520 N.3    86  VAL86      -0.1245
     85  CA        52.2280  -21.7030   14.8470 C.3    86  VAL86       0.1561
     86  C         51.4490  -22.2640   16.0250 C.2    86  VAL86       0.2260
     87  O         50.4360  -22.9560   15.8520 O.2    86  VAL86      -0.2867
     88  CB        51.6250  -20.3630   14.3770 C.3    86  VAL86       0.0252
     89  CG1       50.9760  -20.5290   13.0160 C.3    86  VAL86       0.0019
     90  CG2       50.5900  -19.8490   15.3720 C.3    86  VAL86       0.0019
     91  N         49.1330  -21.9750   19.2700 N.3    88  ASN88      -0.1240
     92  CA        48.1820  -21.2050   20.0550 C.3    88  ASN88       0.1653
     93  C         47.1800  -22.1740   20.6600 C.2    88  ASN88       0.2266
     94  O         47.1980  -23.3750   20.3800 O.2    88  ASN88      -0.2867
     95  CB        47.5070  -20.1080   19.2230 C.3    88  ASN88       0.1155
     96  CG        46.7350  -20.6510   18.0430 C.2    88  ASN88       0.2627
     97  OD1       45.5820  -21.0570   18.1700 O.2    88  ASN88      -0.2716
     98  ND2       47.3690  -20.6490   16.8760 N.am   88  ASN88      -0.0877
     99  N         43.9990  -22.2100   20.1510 N.3    90  GLY90      -0.1210
    100  CA        43.0150  -22.6520   19.1760 C.3    90  GLY90       0.1956
    101  C         43.3920  -23.9630   18.5140 C.2    90  GLY90       0.2611
    102  O         42.5500  -24.8460   18.3400 O.2    90  GLY90      -0.2717
    103  N         44.6650  -24.1080   18.1350 N.am   91  ARG91      -0.1979
    104  CA        45.1280  -25.3790   17.5860 C.3    91  ARG91       0.1597
    105  C         44.9980  -26.5040   18.6040 C.2    91  ARG91       0.2287
    106  O         44.6160  -27.6270   18.2530 O.2    91  ARG91      -0.2864
    107  CB        46.5770  -25.2570   17.1160 C.3    91  ARG91       0.0334
    108  CG        46.8950  -26.1330   15.9170 C.3    91  ARG91       0.0492
    109  CD        48.2590  -25.8290   15.3210 C.3    91  ARG91       0.2205
    110  NE        48.3530  -26.3070   13.9440 N.pl3  91  ARG91      -0.0865
    111  CZ        49.4030  -26.1200   13.1510 C.cat  91  ARG91       0.5346
    112  NH1       50.4660  -25.4630   13.5950 N.pl3  91  ARG91       0.1354
    113  NH2       49.3930  -26.5960   11.9130 N.pl3  91  ARG91       0.1354
    114  N         41.5160  -27.5170   19.1190 N.3    94  THR94      -0.1203
    115  CA        41.1040  -28.2220   17.9100 C.3    94  THR94       0.1994
    116  C         41.6030  -29.6620   17.9240 C.2    94  THR94       0.2617
    117  O         40.8460  -30.5950   17.6280 O.2    94  THR94      -0.2717
    118  CB        41.6090  -27.4810   16.6710 C.3    94  THR94       0.1784
    119  OG1       41.4000  -26.0730   16.8330 O.3    94  THR94      -0.2211
    120  CG2       40.8800  -27.9620   15.4250 C.3    94  THR94       0.0376
    121  N         42.8820  -29.8580   18.2560 N.am   95  LEU95      -0.1979
    122  CA        43.4410  -31.2020   18.3840 C.3    95  LEU95       0.1596
    123  C         42.6090  -32.0690   19.3210 C.2    95  LEU95       0.2287
    124  O         42.2020  -33.1810   18.9650 O.2    95  LEU95      -0.2864
    125  CB        44.8840  -31.1140   18.8820 C.3    95  LEU95       0.0297
    126  CG        45.5760  -32.4430   19.1790 C.3    95  LEU95       0.0022
    127  CD1       46.0950  -33.0380   17.8910 C.3    95  LEU95       0.0001
    128  CD2       46.7030  -32.2600   20.1770 C.3    95  LEU95       0.0001
    129  N         39.0710  -33.0020   18.0450 N.3    98  PHE98      -0.1227
    130  CA        39.0020  -34.1160   17.1090 C.3    98  PHE98       0.1736
    131  C         39.1870  -35.4450   17.8290 C.2    98  PHE98       0.2596
    132  O         38.6400  -36.4660   17.3960 O.2    98  PHE98      -0.2718
    133  CB        40.0440  -33.9440   16.0030 C.3    98  PHE98       0.0547
    134  CG        39.8820  -34.9090   14.8630 C.ar   98  PHE98      -0.0202
    135  CD1       38.7200  -34.9160   14.1100 C.ar   98  PHE98      -0.0042
    136  CD2       40.8890  -35.8010   14.5390 C.ar   98  PHE98      -0.0042
    137  CE1       38.5650  -35.7980   13.0590 C.ar   98  PHE98      -0.0003
    138  CE2       40.7390  -36.6870   13.4900 C.ar   98  PHE98      -0.0003
    139  CZ        39.5760  -36.6850   12.7490 C.ar   98  PHE98      -0.0000
    140  N         39.9550  -35.4550   18.9210 N.am   99  GLY99      -0.1957
    141  CA        39.9980  -36.6340   19.7710 C.3    99  GLY99       0.1869
    142  C         38.6350  -37.0140   20.3160 C.2    99  GLY99       0.2309
    143  O         38.3080  -38.1970   20.4260 O.2    99  GLY99      -0.2863
    144  N         36.6970  -38.5250   17.4540 N.3   102  VAL102     -0.1245
    145  CA        37.1490  -39.9070   17.3130 C.3   102  VAL102      0.1561
    146  C         36.6220  -40.7660   18.4540 C.2   102  VAL102      0.2260
    147  O         36.2590  -41.9330   18.2570 O.2   102  VAL102     -0.2867
    148  CB        38.6880  -39.9490   17.2420 C.3   102  VAL102      0.0252
    149  CG1       39.1940  -41.3810   17.2810 C.3   102  VAL102      0.0019
    150  CG2       39.1790  -39.2490   15.9850 C.3   102  VAL102      0.0019
    151  N         43.9790  -43.5530   22.8850 N.3   118  LEU118     -0.1245
    152  CA        43.8370  -42.3280   22.1020 C.3   118  LEU118      0.1561
    153  C         44.3050  -41.1000   22.8780 C.2   118  LEU118      0.2260
    154  O         45.1730  -40.3510   22.4160 O.2   118  LEU118     -0.2867
    155  CB        42.3810  -42.1680   21.6570 C.3   118  LEU118      0.0270
    156  CG        42.0360  -40.8760   20.9140 C.3   118  LEU118      0.0019
    157  CD1       42.8040  -40.7780   19.6030 C.3   118  LEU118      0.0001
    158  CD2       40.5370  -40.7750   20.6850 C.3   118  LEU118      0.0001
    159  N         47.1860  -38.4510   22.0790 N.3   122  ILE122     -0.1245
    160  CA        46.9390  -37.0120   22.0560 C.3   122  ILE122      0.1561
    161  C         47.8320  -36.2980   23.0640 C.2   122  ILE122      0.2260
    162  O         48.4980  -35.3070   22.7410 O.2   122  ILE122     -0.2867
    163  CB        45.4510  -36.7240   22.3230 C.3   122  ILE122      0.0252
    164  CG1       44.5850  -37.3250   21.2150 C.3   122  ILE122      0.0019
    165  CG2       45.2110  -35.2260   22.4710 C.3   122  ILE122      0.0019
    166  CD1       43.1050  -37.1950   21.4680 C.3   122  ILE122      0.0001
@<TRIPOS>BOND
     1    27    28    1
     2    12    15    1
     3    12    11    1
     4    12    13    1
     5    35    36    1
     6    28    29    1
     7    28    31    1
     8    33    34    1
     9    33    32    1
    10    14    13    2
    11    13    16   am
    12    30    29    2
    13    36    37    1
    14    36    39    1
    15    37    38    2
    16    31    32    1
    17    56    55    1
    18    16    17    1
    19    42    40    1
    20    72    70    1
    21    57    55    1
    22    39    40    1
    23    18    19    2
    24    18    17    1
    25    40    41    1
    26    55    52    1
    27    17    20    1
    28    71    70    1
    29    52    51    1
    30    52    53    1
    31    70    67    1
    32    67    66    1
    33    67    68    1
    34     4     3    2
    35     3     2    1
    36     8    10   ar
    37     8     6   ar
    38     2     5    1
    39     2     1    1
    40    54    53    2
    41    69    68    2
    42    10     9   ar
    43    20    21    1
    44    53    58   am
    45   113   111    1
    46    68    73   am
    47     5     6    1
    48    22    21   ar
    49    22    24   ar
    50     6     7   ar
    51    21    23   ar
    52   139   137   ar
    53   139   138   ar
    54    24    26   ar
    55     9     7   ar
    56    50    48    1
    57    89    88    1
    58   137   135   ar
    59    58    59    1
    60   111   112    1
    61   111   110    2
    62    73    74    1
    63   138   136   ar
    64    84    85    1
    65    46    45    2
    66    44    43    1
    67    44    45    1
    68    44    47    1
    69    23    25   ar
    70   110   109    1
    71    26    25   ar
    72   135   134   ar
    73    59    60    1
    74    59    62    1
    75    48    47    1
    76    48    49    1
    77    88    85    1
    78    88    90    1
    79    74    75    1
    80    74    77    1
    81    60    61    2
    82   136   134   ar
    83    75    76    2
    84    85    86    1
    85   134   133    1
    86   109   108    1
    87   120   118    1
    88    62    63    1
    89    77    78    1
    90    87    86    2
    91   108   107    1
    92   150   148    1
    93   133   130    1
    94   118   119    1
    95   118   115    1
    96    63    64    1
    97    98    96   am
    98    78    79   ar
    99    78    80   ar
   100   130   131    1
   101   130   129    1
   102   107   104    1
   103   148   149    1
   104   148   145    1
   105    79    81   ar
   106   145   144    1
   107   145   146    1
   108   132   131    2
   109   104   103    1
   110   104   105    1
   111   117   116    2
   112   131   140   am
   113    80    82   ar
   114   127   126    1
   115   115   116    1
   116   115   114    1
   117   116   121   am
   118    65    64    1
   119    96    97    2
   120    96    95    1
   121   103   101   am
   122   106   105    2
   123   121   122    1
   124   147   146    2
   125   102   101    2
   126   122   125    1
   127   122   123    1
   128    81    83   ar
   129   101   100    1
   130   125   126    1
   131   140   141    1
   132   124   123    2
   133    82    83   ar
   134   100    99    1
   135   126   128    1
   136    95    92    1
   137    91    92    1
   138   157   156    1
   139   141   142    1
   140    92    93    1
   141   142   143    2
   142    94    93    2
   143   158   156    1
   144   156   155    1
   145   164   166    1
   146   164   163    1
   147   155   152    1
   148   160   159    1
   149   160   163    1
   150   160   161    1
   151   152   153    1
   152   152   151    1
   153   163   165    1
   154   154   153    2
   155   162   161    2
