@<TRIPOS>MOLECULE
tmp/6bw5A01.pdb
 111 105 0 0 0
SMALL
GASTEIGER

@<TRIPOS>ATOM
      1  N         19.7980   10.4260   18.2690 N.3    93  CYS93      -0.1235
      2  CA        19.9200   11.3550   19.3800 C.3    93  CYS93       0.1677
      3  C         20.1690   10.6150   20.6810 C.2    93  CYS93       0.2270
      4  O         20.9350   11.0860   21.5250 O.2    93  CYS93      -0.2867
      5  CB        18.6810   12.2280   19.4760 C.3    93  CYS93       0.0956
      6  SG        18.9320   13.7980   18.6470 S.3    93  CYS93      -0.0801
      7  N         23.8730    9.4490   20.6410 N.3    96  PHE96      -0.1227
      8  CA        24.7140   10.6150   20.8680 C.3    96  PHE96       0.1736
      9  C         24.6410   11.0680   22.3200 C.2    96  PHE96       0.2595
     10  O         25.6640   11.4000   22.9320 O.2    96  PHE96      -0.2718
     11  CB        24.2740   11.7220   19.9140 C.3    96  PHE96       0.0547
     12  CG        24.9120   13.0410   20.1730 C.ar   96  PHE96      -0.0202
     13  CD1       26.2520   13.1300   20.4840 C.ar   96  PHE96      -0.0042
     14  CD2       24.1670   14.2040   20.0860 C.ar   96  PHE96      -0.0042
     15  CE1       26.8340   14.3520   20.7180 C.ar   96  PHE96      -0.0003
     16  CE2       24.7420   15.4250   20.3160 C.ar   96  PHE96      -0.0003
     17  CZ        26.0740   15.5020   20.6310 C.ar   96  PHE96      -0.0000
     18  N         23.4370   11.0660   22.8930 N.am   97  LEU97      -0.1980
     19  CA        23.2600   11.4620   24.2830 C.3    97  LEU97       0.1596
     20  C         23.9570   10.4990   25.2280 C.2    97  LEU97       0.2287
     21  O         24.5780   10.9220   26.2050 O.2    97  LEU97      -0.2864
     22  CB        21.7630   11.5450   24.5980 C.3    97  LEU97       0.0297
     23  CG        21.3390   11.5450   26.0660 C.3    97  LEU97       0.0022
     24  CD1       22.0100   12.6520   26.8610 C.3    97  LEU97       0.0001
     25  CD2       19.8310   11.6790   26.1320 C.3    97  LEU97       0.0001
     26  N         27.7620   11.1180   24.9380 N.3   100  ALA100     -0.1245
     27  CA        28.0900   12.3410   25.6630 C.3   100  ALA100      0.1562
     28  C         27.9820   12.1320   27.1680 C.2   100  ALA100      0.2260
     29  O         28.7850   12.6700   27.9360 O.2   100  ALA100     -0.2867
     30  CB        27.1730   13.4780   25.2140 C.3   100  ALA100      0.0290
     31  N         30.9570   12.7420   29.8090 N.3   104  LEU104     -0.1245
     32  CA        30.7840   13.8290   30.7660 C.3   104  LEU104      0.1561
     33  C         30.2020   13.3820   32.1040 C.2   104  LEU104      0.2260
     34  O         30.4080   14.0700   33.1090 O.2   104  LEU104     -0.2867
     35  CB        29.8720   14.9100   30.1660 C.3   104  LEU104      0.0270
     36  CG        30.1840   15.3330   28.7250 C.3   104  LEU104      0.0019
     37  CD1       29.0420   16.1440   28.1160 C.3   104  LEU104      0.0001
     38  CD2       31.4790   16.1200   28.6740 C.3   104  LEU104      0.0001
     39  N         26.8620   13.2760   33.0510 N.3   106  LEU106     -0.1231
     40  CA        25.8680   14.2770   33.4070 C.3   106  LEU106      0.1693
     41  C         25.1210   13.8650   34.6750 C.2   106  LEU106      0.2591
     42  O         25.0810   12.6920   35.0550 O.2   106  LEU106     -0.2718
     43  CB        24.8650   14.4580   32.2660 C.3   106  LEU106      0.0284
     44  CG        25.4220   14.5500   30.8400 C.3   106  LEU106      0.0019
     45  CD1       24.3240   14.2750   29.8310 C.3   106  LEU106      0.0001
     46  CD2       26.0540   15.9050   30.5830 C.3   106  LEU106      0.0001
     47  N         24.5180   14.8540   35.3310 N.am  107  ARG107     -0.1980
     48  CA        23.7230   14.5920   36.5180 C.3   107  ARG107      0.1597
     49  C         22.3560   14.0420   36.1230 C.2   107  ARG107      0.2287
     50  O         21.9210   14.1530   34.9740 O.2   107  ARG107     -0.2864
     51  CB        23.5640   15.8630   37.3540 C.3   107  ARG107      0.0334
     52  CG        24.8680   16.5720   37.7230 C.3   107  ARG107      0.0492
     53  CD        25.4020   16.1300   39.0800 C.3   107  ARG107      0.2205
     54  NE        25.8490   14.7400   39.0790 N.pl3 107  ARG107     -0.0865
     55  CZ        26.9980   14.3230   38.5690 C.cat 107  ARG107      0.5346
     56  NH1       27.8330   15.1900   38.0170 N.pl3 107  ARG107      0.1354
     57  NH2       27.3320   13.0430   38.6330 N.pl3 107  ARG107      0.1354
     58  N         19.3960   14.9310   36.4820 N.3   109  ARG109     -0.1231
     59  CA        18.4910   15.8670   35.8230 C.3   109  ARG109      0.1694
     60  C         18.6130   15.7580   34.3080 C.2   109  ARG109      0.2592
     61  O         17.6150   15.5730   33.6010 O.2   109  ARG109     -0.2718
     62  CB        18.7890   17.2940   36.2870 C.3   109  ARG109      0.0321
     63  CG        17.8790   18.3600   35.6850 C.3   109  ARG109      0.0489
     64  CD        18.1670   19.7860   36.1400 C.3   109  ARG109      0.2205
     65  NE        19.6030   20.0540   36.2820 N.pl3 109  ARG109     -0.0865
     66  CZ        20.2930   20.6670   35.3430 C.cat 109  ARG109      0.5346
     67  NH1       19.7110   21.0610   34.2330 N.pl3 109  ARG109      0.1354
     68  NH2       21.5860   20.8890   35.4870 N.pl3 109  ARG109      0.1354
     69  N         19.8410   15.8690   33.7950 N.am  110  HIS110     -0.1976
     70  CA        20.0660   15.7420   32.3590 C.3   110  HIS110      0.1656
     71  C         19.6720   14.3550   31.8630 C.2   110  HIS110      0.2291
     72  O         19.0220   14.2200   30.8180 O.2   110  HIS110     -0.2864
     73  CB        21.5340   16.0280   32.0320 C.3   110  HIS110      0.0771
     74  CG        22.0050   17.3750   32.4880 C.ar  110  HIS110      0.0820
     75  ND1       22.5370   17.5900   33.7410 N.ar  110  HIS110     -0.2267
     76  CD2       22.0250   18.5750   31.8620 C.ar  110  HIS110      0.1154
     77  CE1       22.8640   18.8630   33.8670 C.ar  110  HIS110      0.1986
     78  NE2       22.5630   19.4840   32.7420 N.ar  110  HIS110     -0.2212
     79  N         15.8310   14.3560   31.6080 N.3   113  LEU113     -0.1231
     80  CA        15.2710   15.3310   30.6810 C.3   113  LEU113      0.1693
     81  C         15.5760   14.9530   29.2370 C.2   113  LEU113      0.2591
     82  O         14.6650   14.8330   28.4090 O.2   113  LEU113     -0.2718
     83  CB        15.8210   16.7200   31.0080 C.3   113  LEU113      0.0284
     84  CG        15.1290   17.9430   30.3980 C.3   113  LEU113      0.0019
     85  CD1       15.4770   19.1790   31.2130 C.3   113  LEU113      0.0001
     86  CD2       15.5170   18.1510   28.9390 C.3   113  LEU113      0.0001
     87  N         16.8530   14.7430   28.9190 N.am  114  LEU114     -0.1980
     88  CA        17.2580   14.6780   27.5180 C.3   114  LEU114      0.1596
     89  C         16.6180   13.5340   26.7430 C.2   114  LEU114      0.2287
     90  O         16.2760   13.7450   25.5660 O.2   114  LEU114     -0.2864
     91  CB        18.7870   14.6050   27.4380 C.3   114  LEU114      0.0297
     92  CG        19.4880   15.8370   28.0160 C.3   114  LEU114      0.0022
     93  CD1       20.9930   15.6550   27.9970 C.3   114  LEU114      0.0001
     94  CD2       19.0910   17.1000   27.2550 C.3   114  LEU114      0.0001
     95  N         13.3050   14.9650   25.3150 N.3   117  ALA117     -0.1231
     96  CA        13.5640   15.7930   24.1450 C.3   117  ALA117      0.1694
     97  C         13.8510   14.9220   22.9300 C.2   117  ALA117      0.2591
     98  O         13.2480   15.0940   21.8650 O.2   117  ALA117     -0.2718
     99  CB        14.7360   16.7360   24.4220 C.3   117  ALA117      0.0304
    100  N         14.7630   13.9620   23.0830 N.am  118  ALA118     -0.1980
    101  CA        15.1250   13.0930   21.9710 C.3   118  ALA118      0.1597
    102  C         13.9680   12.2040   21.5280 C.2   118  ALA118      0.2287
    103  O         13.9600   11.7470   20.3810 O.2   118  ALA118     -0.2864
    104  CB        16.3250   12.2350   22.3640 C.3   118  ALA118      0.0319
    105  N         10.6090   13.4800   18.4200 N.3   121  PRO121     -0.2116
    106  CA        10.3200   13.0380   17.0410 C.3   121  PRO121      0.1372
    107  C          9.4580   11.7890   16.9800 C.2   121  PRO121      0.2244
    108  O          8.6380   11.6440   16.0600 O.2   121  PRO121     -0.2868
    109  CB        11.7150   12.7900   16.4480 C.3   121  PRO121      0.0268
    110  CG        12.6540   13.5630   17.3030 C.3   121  PRO121      0.0207
    111  CD        12.0530   13.6160   18.6710 C.3   121  PRO121      0.0892
@<TRIPOS>BOND
     1   108   107    2
     2   109   106    1
     3   109   110    1
     4   107   106    1
     5   106   105    1
     6   110   111    1
     7     1     2    1
     8   105   111    1
     9     6     5    1
    10     2     5    1
    11     2     3    1
    12    11    12    1
    13    11     8    1
    14    14    12   ar
    15    14    16   ar
    16    12    13   ar
    17    16    17   ar
    18   103   102    2
    19    13    15   ar
    20    17    15   ar
    21     7     8    1
    22     3     4    2
    23     8     9    1
    24   102   101    1
    25    98    97    2
    26   101   104    1
    27   101   100    1
    28     9    18   am
    29     9    10    2
    30    18    19    1
    31    97   100   am
    32    97    96    1
    33    96    99    1
    34    96    95    1
    35    19    22    1
    36    19    20    1
    37    22    23    1
    38    26    27    1
    39    30    27    1
    40    20    21    2
    41    90    89    2
    42    27    28    1
    43    23    25    1
    44    23    24    1
    45    89    88    1
    46    28    29    2
    47    94    92    1
    48    91    88    1
    49    91    92    1
    50    88    87    1
    51    93    92    1
    52    37    36    1
    53    82    81    2
    54    38    36    1
    55    36    35    1
    56    87    81   am
    57    86    84    1
    58    81    80    1
    59    31    32    1
    60    45    44    1
    61    35    32    1
    62    84    83    1
    63    84    85    1
    64    46    44    1
    65    80    83    1
    66    80    79    1
    67    32    33    1
    68    72    71    2
    69    44    43    1
    70    76    74   ar
    71    76    78   ar
    72    71    70    1
    73    73    70    1
    74    73    74    1
    75    33    34    2
    76    43    40    1
    77    70    69    1
    78    74    75   ar
    79    78    77   ar
    80    39    40    1
    81    40    41    1
    82    61    60    2
    83    75    77   ar
    84    69    60   am
    85    67    66    1
    86    60    59    1
    87    41    42    2
    88    41    47   am
    89    50    49    2
    90    47    48    1
    91    66    68    1
    92    66    65    2
    93    63    64    1
    94    63    62    1
    95    59    62    1
    96    59    58    1
    97    49    48    1
    98    64    65    1
    99    48    51    1
   100    51    52    1
   101    52    53    1
   102    56    55    1
   103    55    57    1
   104    55    54    2
   105    54    53    1
