@<TRIPOS>MOLECULE
tmp/6bw5B00.pdb
 110 107 0 0 0
SMALL
GASTEIGER

@<TRIPOS>ATOM
      1  N         24.8070   27.8800   28.9570 N.3    20  LEU20      -0.1245
      2  CA        25.2070   26.5020   29.2200 C.3    20  LEU20       0.1561
      3  C         26.7010   26.2980   29.0150 C.2    20  LEU20       0.2260
      4  O         27.3280   25.5350   29.7590 O.2    20  LEU20      -0.2867
      5  CB        24.4080   25.5460   28.3300 C.3    20  LEU20       0.0270
      6  CG        22.9260   25.3660   28.6740 C.3    20  LEU20       0.0019
      7  CD1       22.2300   24.4710   27.6500 C.3    20  LEU20       0.0001
      8  CD2       22.7520   24.7980   30.0790 C.3    20  LEU20       0.0001
      9  N         28.3150   26.6290   32.0560 N.3    23  ALA23      -0.1231
     10  CA        27.7270   25.7180   33.0310 C.3    23  ALA23       0.1694
     11  C         28.3600   24.3330   32.9690 C.2    23  ALA23       0.2592
     12  O         28.4950   23.6680   34.0030 O.2    23  ALA23      -0.2718
     13  CB        26.2170   25.6200   32.8120 C.3    23  ALA23       0.0304
     14  N         28.7520   23.8800   31.7780 N.am   24  PHE24      -0.1976
     15  CA        29.3120   22.5470   31.5980 C.3    24  PHE24       0.1639
     16  C         30.8350   22.5250   31.5900 C.2    24  PHE24       0.2290
     17  O         31.4190   21.4640   31.3500 O.2    24  PHE24      -0.2864
     18  CB        28.7980   21.9290   30.2920 C.3    24  PHE24       0.0560
     19  CG        27.3720   21.4650   30.3590 C.ar   24  PHE24      -0.0200
     20  CD1       27.0550   20.2420   30.9250 C.ar   24  PHE24      -0.0042
     21  CD2       26.3520   22.2460   29.8470 C.ar   24  PHE24      -0.0042
     22  CE1       25.7450   19.8100   30.9850 C.ar   24  PHE24      -0.0003
     23  CE2       25.0410   21.8200   29.9030 C.ar   24  PHE24      -0.0003
     24  CZ        24.7360   20.6000   30.4730 C.ar   24  PHE24      -0.0000
     25  N         32.4460   19.7390   33.5030 N.3    27  HIS27      -0.1226
     26  CA        32.3330   18.4190   32.8920 C.3    27  HIS27       0.1752
     27  C         33.4100   18.2070   31.8360 C.2    27  HIS27       0.2596
     28  O         34.0740   17.1630   31.8100 O.2    27  HIS27      -0.2718
     29  CB        30.9400   18.2450   32.2870 C.3    27  HIS27       0.0759
     30  CG        29.8360   18.2780   33.2970 C.ar   27  HIS27       0.0818
     31  ND1       29.1680   17.1450   33.7070 N.ar   27  HIS27      -0.2268
     32  CD2       29.2890   19.3080   33.9850 C.ar   27  HIS27       0.1154
     33  CE1       28.2550   17.4750   34.6020 C.ar   27  HIS27       0.1986
     34  NE2       28.3070   18.7820   34.7880 N.ar   27  HIS27      -0.2212
     35  N         33.6030   19.1920   30.9560 N.am   28  PHE28      -0.1976
     36  CA        34.5610   19.0280   29.8680 C.3    28  PHE28       0.1639
     37  C         35.9870   18.9410   30.3920 C.2    28  PHE28       0.2290
     38  O         36.7770   18.1220   29.9080 O.2    28  PHE28      -0.2864
     39  CB        34.4250   20.1720   28.8660 C.3    28  PHE28       0.0560
     40  CG        33.2380   20.0400   27.9570 C.ar   28  PHE28      -0.0200
     41  CD1       33.3860   19.5420   26.6730 C.ar   28  PHE28      -0.0042
     42  CD2       31.9730   20.4070   28.3860 C.ar   28  PHE28      -0.0042
     43  CE1       32.2960   19.4180   25.8330 C.ar   28  PHE28      -0.0003
     44  CE2       30.8800   20.2860   27.5510 C.ar   28  PHE28      -0.0003
     45  CZ        31.0410   19.7900   26.2720 C.ar   28  PHE28      -0.0000
     46  N         29.3490   20.8990   20.7360 N.3    52  VAL52      -0.1231
     47  CA        28.3900   19.8700   21.1130 C.3    52  VAL52       0.1692
     48  C         27.2440   20.4700   21.9100 C.2    52  VAL52       0.2591
     49  O         26.1110   19.9790   21.8440 O.2    52  VAL52      -0.2718
     50  CB        29.0940   18.7500   21.9010 C.3    52  VAL52       0.0266
     51  CG1       29.2740   19.1330   23.3710 C.3    52  VAL52       0.0020
     52  CG2       28.3230   17.4650   21.7770 C.3    52  VAL52       0.0020
     53  N         27.5090   21.5260   22.6810 N.am   53  ILE53      -0.1980
     54  CA        26.4410   22.1780   23.4320 C.3    53  ILE53       0.1595
     55  C         25.5470   22.9670   22.4830 C.2    53  ILE53       0.2287
     56  O         24.3480   22.6900   22.3630 O.2    53  ILE53      -0.2864
     57  CB        27.0230   23.0680   24.5450 C.3    53  ILE53       0.0276
     58  CG1       27.7580   22.2000   25.5720 C.3    53  ILE53       0.0022
     59  CG2       25.9140   23.8570   25.2330 C.3    53  ILE53       0.0022
     60  CD1       28.5100   22.9810   26.6300 C.3    53  ILE53       0.0001
     61  N         23.7840   20.5880   20.4010 N.3    56  ALA56      -0.1231
     62  CA        22.6970   20.0160   21.1860 C.3    56  ALA56       0.1694
     63  C         21.5230   20.9830   21.2380 C.2    56  ALA56       0.2591
     64  O         20.4120   20.6630   20.7980 O.2    56  ALA56      -0.2718
     65  CB        23.1840   19.6690   22.5930 C.3    56  ALA56       0.0304
     66  N         21.7720   22.1980   21.7350 N.am   57  VAL57      -0.1980
     67  CA        20.7250   23.2160   21.7870 C.3    57  VAL57       0.1595
     68  C         20.0320   23.3120   20.4340 C.2    57  VAL57       0.2287
     69  O         18.8010   23.2220   20.3360 O.2    57  VAL57      -0.2864
     70  CB        21.3150   24.5700   22.2220 C.3    57  VAL57       0.0276
     71  CG1       20.2500   25.6620   22.1950 C.3    57  VAL57       0.0022
     72  CG2       21.9320   24.4620   23.6150 C.3    57  VAL57       0.0022
     73  N         19.6290   21.1770   17.9970 N.3    59  LEU59      -0.1231
     74  CA        18.6840   20.0790   17.8250 C.3    59  LEU59       0.1693
     75  C         17.4290   20.3240   18.6500 C.2    59  LEU59       0.2591
     76  O         16.3160   20.3550   18.1080 O.2    59  LEU59      -0.2718
     77  CB        19.3360   18.7470   18.2070 C.3    59  LEU59       0.0284
     78  CG        20.4600   18.2300   17.2980 C.3    59  LEU59       0.0019
     79  CD1       20.9780   16.8840   17.7920 C.3    59  LEU59       0.0001
     80  CD2       19.9970   18.1120   15.8540 C.3    59  LEU59       0.0001
     81  N         17.5970   20.5640   19.9560 N.am   60  ILE60      -0.1980
     82  CA        16.4430   20.8170   20.8180 C.3    60  ILE60       0.1595
     83  C         15.5060   21.7960   20.1280 C.2    60  ILE60       0.2287
     84  O         14.3470   21.4810   19.8300 O.2    60  ILE60      -0.2864
     85  CB        16.8850   21.3630   22.1890 C.3    60  ILE60       0.0276
     86  CG1       17.8760   20.4240   22.9000 C.3    60  ILE60       0.0022
     87  CG2       15.6590   21.6220   23.0710 C.3    60  ILE60       0.0022
     88  CD1       17.2510   19.2190   23.5920 C.3    60  ILE60       0.0001
     89  N         13.6970   20.3870   17.1520 N.3    63  PHE63      -0.1241
     90  CA        12.7320   19.3950   17.6120 C.3    63  PHE63       0.1605
     91  C         11.4750   20.0710   18.1330 C.2    63  PHE63       0.2264
     92  O         10.3560   19.6170   17.8680 O.2    63  PHE63      -0.2867
     93  CB        13.3470   18.5160   18.7010 C.3    63  PHE63       0.0534
     94  CG        14.2780   17.4630   18.1810 C.ar   63  PHE63      -0.0203
     95  CD1       14.7620   17.5100   16.8820 C.ar   63  PHE63      -0.0042
     96  CD2       14.6580   16.4120   18.9910 C.ar   63  PHE63      -0.0042
     97  CE1       15.6100   16.5350   16.4140 C.ar   63  PHE63      -0.0003
     98  CE2       15.4990   15.4370   18.5220 C.ar   63  PHE63      -0.0003
     99  CZ        15.9770   15.5000   17.2300 C.ar   63  PHE63      -0.0000
    100  N         31.5620   14.9580   17.5400 N.3    98  PHE98      -0.1241
    101  CA        31.9000   14.7980   18.9500 C.3    98  PHE98       0.1605
    102  C         32.7350   13.5370   19.1710 C.2    98  PHE98       0.2264
    103  O         33.7620   13.5660   19.8720 O.2    98  PHE98      -0.2867
    104  CB        30.6020   14.7810   19.7610 C.3    98  PHE98       0.0534
    105  CG        30.7990   14.6440   21.2370 C.ar   98  PHE98      -0.0203
    106  CD1       31.3150   15.6880   21.9830 C.ar   98  PHE98      -0.0042
    107  CD2       30.4380   13.4780   21.8820 C.ar   98  PHE98      -0.0042
    108  CE1       31.4850   15.5610   23.3460 C.ar   98  PHE98      -0.0003
    109  CE2       30.6030   13.3430   23.2410 C.ar   98  PHE98      -0.0003
    110  CZ        31.1280   14.3860   23.9760 C.ar   98  PHE98      -0.0000
@<TRIPOS>BOND
     1    80    78    1
     2    97    95   ar
     3    97    99   ar
     4    95    94   ar
     5    89    90    1
     6    99    98   ar
     7    78    79    1
     8    78    77    1
     9   100   101    1
    10    90    91    1
    11    90    93    1
    12    74    73    1
    13    74    77    1
    14    74    75    1
    15    92    91    2
    16    76    75    2
    17    94    93    1
    18    94    96   ar
    19    98    96   ar
    20    75    81   am
    21   101   102    1
    22   101   104    1
    23   102   103    2
    24   104   105    1
    25    84    83    2
    26    81    82    1
    27    83    82    1
    28    69    68    2
    29    61    62    1
    30    68    67    1
    31    46    47    1
    32    64    63    2
    33    82    85    1
    34    47    50    1
    35    47    48    1
    36    62    63    1
    37    62    65    1
    38   105   107   ar
    39   105   106   ar
    40    63    66   am
    41    66    67    1
    42    52    50    1
    43    67    70    1
    44    49    48    2
    45   107   109   ar
    46    50    51    1
    47    48    53   am
    48   106   108   ar
    49    85    86    1
    50    85    87    1
    51    71    70    1
    52    70    72    1
    53    56    55    2
    54    55    54    1
    55    53    54    1
    56    86    88    1
    57   109   110   ar
    58   108   110   ar
    59    54    57    1
    60    57    59    1
    61    57    58    1
    62    58    60    1
    63    43    45   ar
    64    43    41   ar
    65    45    44   ar
    66    41    40   ar
    67    44    42   ar
    68     7     6    1
    69    40    42   ar
    70    40    39    1
    71     5     6    1
    72     5     2    1
    73     6     8    1
    74    39    36    1
    75     1     2    1
    76     3     2    1
    77     3     4    2
    78    21    23   ar
    79    21    19   ar
    80    36    37    1
    81    36    35    1
    82    23    24   ar
    83    38    37    2
    84    18    19    1
    85    18    15    1
    86    19    20   ar
    87    24    22   ar
    88    20    22   ar
    89    35    27   am
    90    17    16    2
    91    16    15    1
    92    15    14    1
    93    14    11   am
    94    28    27    2
    95    27    26    1
    96     9    10    1
    97    29    26    1
    98    29    30    1
    99    13    10    1
   100    26    25    1
   101    11    10    1
   102    11    12    2
   103    30    31   ar
   104    30    32   ar
   105    31    33   ar
   106    32    34   ar
   107    33    34   ar
