@<TRIPOS>MOLECULE
tmp/6bw6D00.pdb
 123 119 0 0 0
SMALL
GASTEIGER

@<TRIPOS>ATOM
      1  N         68.9580   -2.3530   35.4880 N.3    20  THR20      -0.1203
      2  CA        68.1050   -3.5270   35.3410 C.3    20  THR20       0.1994
      3  C         66.7960   -3.3830   36.1140 C.2    20  THR20       0.2617
      4  O         65.7280   -3.7290   35.5970 O.2    20  THR20      -0.2717
      5  CB        68.8610   -4.7760   35.7980 C.3    20  THR20       0.1784
      6  OG1       70.0770   -4.8980   35.0480 O.3    20  THR20      -0.2211
      7  CG2       68.0230   -6.0320   35.5860 C.3    20  THR20       0.0376
      8  N         66.8520   -2.8690   37.3460 N.am   21  LEU21      -0.1979
      9  CA        65.6820   -2.8630   38.2150 C.3    21  LEU21       0.1596
     10  C         64.6880   -1.7680   37.8550 C.2    21  LEU21       0.2287
     11  O         63.4810   -1.9620   38.0360 O.2    21  LEU21      -0.2864
     12  CB        66.1170   -2.7070   39.6750 C.3    21  LEU21       0.0297
     13  CG        66.8300   -3.9020   40.3090 C.3    21  LEU21       0.0022
     14  CD1       67.2970   -3.5510   41.7080 C.3    21  LEU21       0.0001
     15  CD2       65.9250   -5.1140   40.3500 C.3    21  LEU21       0.0001
     16  N         62.3740   -3.1890   35.5820 N.3    24  ALA24      -0.1231
     17  CA        61.7880   -4.3860   36.1770 C.3    24  ALA24       0.1694
     18  C         60.5700   -4.0470   37.0270 C.2    24  ALA24       0.2592
     19  O         59.5800   -4.7870   37.0290 O.2    24  ALA24      -0.2718
     20  CB        62.8350   -5.1140   37.0180 C.3    24  ALA24       0.0304
     21  N         60.6220   -2.9330   37.7530 N.am   25  PHE25      -0.1976
     22  CA        59.5620   -2.5560   38.6770 C.3    25  PHE25       0.1639
     23  C         58.5200   -1.6380   38.0510 C.2    25  PHE25       0.2290
     24  O         57.6710   -1.1090   38.7750 O.2    25  PHE25      -0.2864
     25  CB        60.1650   -1.8840   39.9120 C.3    25  PHE25       0.0560
     26  CG        60.5920   -2.8510   40.9740 C.ar   25  PHE25      -0.0200
     27  CD1       59.6950   -3.2690   41.9440 C.ar   25  PHE25      -0.0042
     28  CD2       61.8850   -3.3440   41.0040 C.ar   25  PHE25      -0.0042
     29  CE1       60.0790   -4.1570   42.9260 C.ar   25  PHE25      -0.0003
     30  CE2       62.2760   -4.2330   41.9810 C.ar   25  PHE25      -0.0003
     31  CZ        61.3710   -4.6410   42.9470 C.ar   25  PHE25      -0.0000
     32  N         54.8420   -2.3550   39.0860 N.3    28  HIS28      -0.1226
     33  CA        54.4230   -1.8980   40.4070 C.3    28  HIS28       0.1752
     34  C         54.1040   -0.4100   40.3900 C.2    28  HIS28       0.2596
     35  O         53.1010    0.0290   40.9660 O.2    28  HIS28      -0.2718
     36  CB        55.5160   -2.1940   41.4340 C.3    28  HIS28       0.0759
     37  CG        55.9410   -3.6300   41.4790 C.ar   28  HIS28       0.0818
     38  ND1       55.6080   -4.4710   42.5180 N.ar   28  HIS28      -0.2268
     39  CD2       56.6870   -4.3690   40.6230 C.ar   28  HIS28       0.1154
     40  CE1       56.1230   -5.6670   42.2980 C.ar   28  HIS28       0.1986
     41  NE2       56.7830   -5.6330   41.1540 N.ar   28  HIS28      -0.2212
     42  N         54.9420    0.3840   39.7220 N.am   29  PHE29      -0.1976
     43  CA        54.7320    1.8270   39.6970 C.3    29  PHE29       0.1639
     44  C         53.4580    2.1850   38.9430 C.2    29  PHE29       0.2290
     45  O         52.6770    3.0290   39.3980 O.2    29  PHE29      -0.2864
     46  CB        55.9390    2.5180   39.0680 C.3    29  PHE29       0.0560
     47  CG        57.1390    2.5770   39.9710 C.ar   29  PHE29      -0.0200
     48  CD1       57.7160    3.7910   40.2910 C.ar   29  PHE29      -0.0042
     49  CD2       57.6870    1.4210   40.5040 C.ar   29  PHE29      -0.0042
     50  CE1       58.8150    3.8510   41.1150 C.ar   29  PHE29      -0.0003
     51  CE2       58.7880    1.4750   41.3300 C.ar   29  PHE29      -0.0003
     52  CZ        59.3520    2.6880   41.6380 C.ar   29  PHE29      -0.0000
     53  N         63.6030    6.2310   43.8690 N.3    53  VAL53      -0.1231
     54  CA        63.5220    5.3690   45.0450 C.3    53  VAL53       0.1692
     55  C         64.3200    4.0900   44.8220 C.2    53  VAL53       0.2591
     56  O         65.0010    3.6010   45.7310 O.2    53  VAL53      -0.2718
     57  CB        62.0500    5.0690   45.3880 C.3    53  VAL53       0.0266
     58  CG1       61.3980    4.2170   44.3160 C.3    53  VAL53       0.0020
     59  CG2       61.9500    4.4020   46.7350 C.3    53  VAL53       0.0020
     60  N         64.2710    3.5430   43.6050 N.am   54  ILE54      -0.1980
     61  CA        65.0300    2.3360   43.2840 C.3    54  ILE54       0.1595
     62  C         66.5300    2.6120   43.3510 C.2    54  ILE54       0.2287
     63  O         67.2980    1.8440   43.9490 O.2    54  ILE54      -0.2864
     64  CB        64.6160    1.8050   41.9000 C.3    54  ILE54       0.0276
     65  CG1       63.1460    1.3640   41.9270 C.3    54  ILE54       0.0022
     66  CG2       65.5320    0.6580   41.4670 C.3    54  ILE54       0.0022
     67  CD1       62.6140    0.9110   40.5970 C.3    54  ILE54       0.0001
     68  N         67.6140    3.0990   46.9000 N.3    57  ALA57      -0.1231
     69  CA        67.6580    1.8020   47.5620 C.3    57  ALA57       0.1694
     70  C         68.9550    1.0740   47.2390 C.2    57  ALA57       0.2591
     71  O         69.6360    0.5630   48.1360 O.2    57  ALA57      -0.2718
     72  CB        66.4520    0.9640   47.1440 C.3    57  ALA57       0.0304
     73  N         69.3040    1.0050   45.9530 N.am   58  VAL58      -0.1980
     74  CA        70.5460    0.3450   45.5550 C.3    58  VAL58       0.1595
     75  C         71.7390    1.0140   46.2320 C.2    58  VAL58       0.2287
     76  O         72.6710    0.3460   46.6940 O.2    58  VAL58      -0.2864
     77  CB        70.6880    0.3500   44.0220 C.3    58  VAL58       0.0276
     78  CG1       72.0330   -0.2120   43.6000 C.3    58  VAL58       0.0022
     79  CG2       69.5690   -0.4550   43.3860 C.3    58  VAL58       0.0022
     80  N         71.8930    2.6230   49.1110 N.3    60  LEU60      -0.1231
     81  CA        71.9580    2.1970   50.5030 C.3    60  LEU60       0.1693
     82  C         72.4740    0.7690   50.6180 C.2    60  LEU60       0.2591
     83  O         73.2810    0.4650   51.5030 O.2    60  LEU60      -0.2718
     84  CB        70.5830    2.3380   51.1550 C.3    60  LEU60       0.0284
     85  CG        70.0550    3.7680   51.2700 C.3    60  LEU60       0.0019
     86  CD1       68.6380    3.7650   51.8210 C.3    60  LEU60       0.0001
     87  CD2       70.9680    4.6120   52.1470 C.3    60  LEU60       0.0001
     88  N         72.0110   -0.1250   49.7380 N.am   61  ILE61      -0.1980
     89  CA        72.5210   -1.4990   49.7260 C.3    61  ILE61       0.1595
     90  C         74.0400   -1.4900   49.5960 C.2    61  ILE61       0.2287
     91  O         74.7610   -2.1740   50.3370 O.2    61  ILE61      -0.2864
     92  CB        71.8800   -2.3070   48.5800 C.3    61  ILE61       0.0276
     93  CG1       70.3510   -2.3960   48.7290 C.3    61  ILE61       0.0022
     94  CG2       72.4990   -3.7020   48.4920 C.3    61  ILE61       0.0022
     95  CD1       69.8670   -3.2550   49.8560 C.3    61  ILE61       0.0001
     96  N         75.8410   -0.1110   52.7340 N.3    64  PHE64      -0.1241
     97  CA        75.6910   -1.1180   53.7780 C.3    64  PHE64       0.1605
     98  C         76.7120   -2.2320   53.6050 C.2    64  PHE64       0.2264
     99  O         77.3700   -2.6450   54.5670 O.2    64  PHE64      -0.2867
    100  CB        74.2730   -1.6950   53.7530 C.3    64  PHE64       0.0534
    101  CG        73.2190   -0.7860   54.3310 C.ar   64  PHE64      -0.0203
    102  CD1       73.5250    0.4960   54.7590 C.ar   64  PHE64      -0.0042
    103  CD2       71.9110   -1.2280   54.4480 C.ar   64  PHE64      -0.0042
    104  CE1       72.5490    1.3090   55.2840 C.ar   64  PHE64      -0.0003
    105  CE2       70.9350   -0.4160   54.9730 C.ar   64  PHE64      -0.0003
    106  CZ        71.2520    0.8520   55.3920 C.ar   64  PHE64      -0.0000
    107  N         69.4640    7.9790   53.9340 N.3    92  CYS92      -0.1235
    108  CA        68.3090    7.0880   53.9020 C.3    92  CYS92       0.1677
    109  C         67.0440    7.8110   54.3380 C.2    92  CYS92       0.2270
    110  O         65.9810    7.6510   53.7260 O.2    92  CYS92      -0.2867
    111  CB        68.5670    5.8770   54.7970 C.3    92  CYS92       0.0956
    112  SG        67.1120    4.8430   55.0600 S.3    92  CYS92      -0.0801
    113  N         60.4450   10.1210   48.8150 N.3    99  PHE99      -0.1241
    114  CA        59.4390    9.1880   48.3090 C.3    99  PHE99       0.1605
    115  C         58.0820    9.4490   48.9570 C.2    99  PHE99       0.2264
    116  O         57.0410    9.4840   48.2780 O.2    99  PHE99      -0.2867
    117  CB        59.8980    7.7510   48.5660 C.3    99  PHE99       0.0534
    118  CG        58.9680    6.7160   48.0250 C.ar   99  PHE99      -0.0203
    119  CD1       58.9330    6.4360   46.6730 C.ar   99  PHE99      -0.0042
    120  CD2       58.1320    6.0210   48.8720 C.ar   99  PHE99      -0.0042
    121  CE1       58.0730    5.4820   46.1740 C.ar   99  PHE99      -0.0003
    122  CE2       57.2730    5.0680   48.3820 C.ar   99  PHE99      -0.0003
    123  CZ        57.2430    4.7970   47.0290 C.ar   99  PHE99      -0.0000
@<TRIPOS>BOND
     1     6     5    1
     2     2     1    1
     3     2     5    1
     4     2     3    1
     5    16    17    1
     6     7     5    1
     7     4     3    2
     8     3     8   am
     9    17    20    1
    10    17    18    1
    11    18    19    2
    12    18    21   am
    13     8     9    1
    14    21    22    1
    15    10    11    2
    16    10     9    1
    17    23    22    1
    18    23    24    2
    19     9    12    1
    20    22    25    1
    21    44    45    2
    22    44    43    1
    23    46    43    1
    24    46    47    1
    25    32    33    1
    26    12    13    1
    27    43    42    1
    28    42    34   am
    29    25    26    1
    30    47    48   ar
    31    47    49   ar
    32    48    50   ar
    33    13    15    1
    34    13    14    1
    35    34    33    1
    36    34    35    2
    37    33    36    1
    38    49    51   ar
    39    67    65    1
    40    39    41   ar
    41    39    37   ar
    42    26    28   ar
    43    26    27   ar
    44    28    30   ar
    45    50    52   ar
    46    41    40   ar
    47    51    52   ar
    48    36    37    1
    49    66    64    1
    50    37    38   ar
    51    64    65    1
    52    64    61    1
    53    27    29   ar
    54    30    31   ar
    55    40    38   ar
    56    29    31   ar
    57    61    62    1
    58    61    60    1
    59    62    63    2
    60    79    77    1
    61    78    77    1
    62    60    55   am
    63    53    54    1
    64    77    74    1
    65    58    57    1
    66    55    54    1
    67    55    56    2
    68    54    57    1
    69    57    59    1
    70    74    73    1
    71    74    75    1
    72    73    70   am
    73   121   119   ar
    74   121   123   ar
    75    75    76    2
    76   119   118   ar
    77    68    69    1
    78   123   122   ar
    79    72    69    1
    80    70    69    1
    81    70    71    2
    82   118   117    1
    83   118   120   ar
    84   116   115    2
    85   114   117    1
    86   114   113    1
    87   114   115    1
    88   122   120   ar
    89    94    92    1
    90    92    93    1
    91    92    89    1
    92    93    95    1
    93    80    81    1
    94    90    89    1
    95    90    91    2
    96    89    88    1
    97    88    82   am
    98    81    82    1
    99    81    84    1
   100    82    83    2
   101    84    85    1
   102    85    86    1
   103    85    87    1
   104    96    97    1
   105    98    97    1
   106    98    99    2
   107   110   109    2
   108   100    97    1
   109   100   101    1
   110   108   107    1
   111   108   109    1
   112   108   111    1
   113   101   103   ar
   114   101   102   ar
   115   103   105   ar
   116   102   104   ar
   117   111   112    1
   118   105   106   ar
   119   104   106   ar
