@<TRIPOS>MOLECULE
tmp/6bw6D01.pdb
 104 98 0 0 0
SMALL
GASTEIGER

@<TRIPOS>ATOM
      1  N         67.1400    8.6070   55.4030 N.3    93  CYS93      -0.1235
      2  CA        66.0000    9.3830   55.8570 C.3    93  CYS93       0.1677
      3  C         65.5430   10.3590   54.7850 C.2    93  CYS93       0.2270
      4  O         64.3410   10.5900   54.6290 O.2    93  CYS93      -0.2867
      5  CB        66.3670   10.1190   57.1470 C.3    93  CYS93       0.0956
      6  SG        64.9670   10.7450   58.1000 S.3    93  CYS93      -0.0801
      7  N         63.7300    8.4380   51.9920 N.3    96  PHE96      -0.1227
      8  CA        62.4190    8.0950   52.5290 C.3    96  PHE96       0.1736
      9  C         61.4880    9.3030   52.5320 C.2    96  PHE96       0.2595
     10  O         60.3320    9.2140   52.0990 O.2    96  PHE96      -0.2718
     11  CB        62.6100    7.5240   53.9340 C.3    96  PHE96       0.0547
     12  CG        61.3460    7.3770   54.7220 C.ar   96  PHE96      -0.0202
     13  CD1       60.1810    6.9410   54.1260 C.ar   96  PHE96      -0.0042
     14  CD2       61.3390    7.6520   56.0790 C.ar   96  PHE96      -0.0042
     15  CE1       59.0260    6.8040   54.8630 C.ar   96  PHE96      -0.0003
     16  CE2       60.1900    7.5140   56.8200 C.ar   96  PHE96      -0.0003
     17  CZ        59.0320    7.0890   56.2140 C.ar   96  PHE96      -0.0000
     18  N         61.9760   10.4440   53.0260 N.am   97  LEU97      -0.1980
     19  CA        61.1700   11.6590   53.0320 C.3    97  LEU97       0.1596
     20  C         60.7530   12.0520   51.6260 C.2    97  LEU97       0.2287
     21  O         59.6250   12.5000   51.4130 O.2    97  LEU97      -0.2864
     22  CB        61.9410   12.8060   53.6850 C.3    97  LEU97       0.0297
     23  CG        61.3870   14.2090   53.3990 C.3    97  LEU97       0.0022
     24  CD1       59.9500   14.3150   53.8680 C.3    97  LEU97       0.0001
     25  CD2       62.2380   15.2720   54.0630 C.3    97  LEU97       0.0001
     26  N         58.0770    9.6120   50.2830 N.3   100  ALA100     -0.1245
     27  CA        56.8620    9.9880   50.9930 C.3   100  ALA100      0.1562
     28  C         56.2580   11.2620   50.4190 C.2   100  ALA100      0.2260
     29  O         55.0570   11.3270   50.1680 O.2   100  ALA100     -0.2867
     30  CB        57.1660   10.1650   52.4790 C.3   100  ALA100      0.0290
     31  N         52.6460   11.5280   48.7640 N.3   104  LEU104     -0.1245
     32  CA        51.7380   12.2930   49.6110 C.3   104  LEU104      0.1561
     33  C         51.4640   13.6870   49.0530 C.2   104  LEU104      0.2260
     34  O         50.3530   14.2060   49.2040 O.2   104  LEU104     -0.2867
     35  CB        52.3290   12.3990   51.0180 C.3   104  LEU104      0.0270
     36  CG        52.6890   11.0850   51.7170 C.3   104  LEU104      0.0019
     37  CD1       53.3850   11.3540   53.0540 C.3   104  LEU104      0.0001
     38  CD2       51.4570   10.2570   51.9060 C.3   104  LEU104      0.0001
     39  N         53.0920   16.7480   49.9620 N.3   106  LEU106     -0.1231
     40  CA        53.0050   17.5520   51.1710 C.3   106  LEU106      0.1693
     41  C         53.2650   19.0290   50.8730 C.2   106  LEU106      0.2591
     42  O         53.8770   19.3930   49.8650 O.2   106  LEU106     -0.2718
     43  CB        54.0070   17.0550   52.2140 C.3   106  LEU106      0.0284
     44  CG        53.9970   15.5460   52.4830 C.3   106  LEU106      0.0019
     45  CD1       55.2240   15.1370   53.2600 C.3   106  LEU106      0.0001
     46  CD2       52.7370   15.1410   53.2330 C.3   106  LEU106      0.0001
     47  N         52.7990   19.8810   51.7850 N.am  107  ARG107     -0.1980
     48  CA        52.9670   21.3180   51.6450 C.3   107  ARG107      0.1597
     49  C         54.4110   21.7160   51.9490 C.2   107  ARG107      0.2287
     50  O         55.1920   20.9470   52.5170 O.2   107  ARG107     -0.2864
     51  CB        52.0030   22.0620   52.5690 C.3   107  ARG107      0.0334
     52  CG        50.5850   21.8130   52.0400 C.3   107  ARG107      0.0492
     53  CD        49.5350   22.4820   52.8890 C.3   107  ARG107      0.2205
     54  NE        49.5190   21.8610   54.2310 N.pl3 107  ARG107     -0.0865
     55  CZ        50.1340   22.5840   55.1550 C.cat 107  ARG107      0.5346
     56  NH1       50.7210   23.6860   54.7100 N.pl3 107  ARG107      0.1354
     57  NH2       50.3050   22.0900   56.3190 N.pl3 107  ARG107      0.1354
     58  N         55.7790   23.8040   54.0820 N.3   109  ARG109     -0.1231
     59  CA        56.1580   23.7920   55.4920 C.3   109  ARG109      0.1694
     60  C         56.5730   22.3950   55.9390 C.2   109  ARG109      0.2592
     61  O         57.6000   22.2190   56.6090 O.2   109  ARG109     -0.2718
     62  CB        54.9970   24.3060   56.3440 C.3   109  ARG109      0.0321
     63  CG        55.3440   24.5660   57.8100 C.3   109  ARG109      0.0489
     64  CD        54.3890   25.5410   58.4520 C.3   109  ARG109      0.2205
     65  NE        52.9910   25.1300   58.2960 N.pl3 109  ARG109     -0.0865
     66  CZ        52.3950   24.1800   59.0110 C.cat 109  ARG109      0.5346
     67  NH1       53.0700   23.5100   59.9420 N.pl3 109  ARG109      0.1354
     68  NH2       51.0950   23.9550   58.8490 N.pl3 109  ARG109      0.1354
     69  N         55.7620   21.3900   55.6000 N.am  110  HIS110     -0.1976
     70  CA        56.0820   20.0100   55.9460 C.3   110  HIS110      0.1656
     71  C         57.4450   19.6090   55.3910 C.2   110  HIS110      0.2291
     72  O         58.2970   19.0660   56.1120 O.2   110  HIS110     -0.2864
     73  CB        54.9900   19.0820   55.4090 C.3   110  HIS110      0.0771
     74  CG        53.6190   19.3780   55.9380 C.ar  110  HIS110      0.0820
     75  ND1       52.4730   19.0790   55.2330 N.ar  110  HIS110     -0.2267
     76  CD2       53.2080   19.9350   57.1030 C.ar  110  HIS110      0.1154
     77  CE1       51.4160   19.4430   55.9370 C.ar  110  HIS110      0.1986
     78  NE2       51.8350   19.9640   57.0760 N.ar  110  HIS110     -0.2212
     79  N         60.3180   21.3790   57.3470 N.3   113  LEU113     -0.1231
     80  CA        60.4790   20.8590   58.6990 C.3   113  LEU113      0.1693
     81  C         61.1760   19.5060   58.6740 C.2   113  LEU113      0.2591
     82  O         62.1120   19.2570   59.4480 O.2   113  LEU113     -0.2718
     83  CB        59.1180   20.7560   59.3870 C.3   113  LEU113      0.0284
     84  CG        59.1510   20.4590   60.8910 C.3   113  LEU113      0.0019
     85  CD1       57.9020   21.0000   61.5450 C.3   113  LEU113      0.0001
     86  CD2       59.2800   18.9660   61.1890 C.3   113  LEU113      0.0001
     87  N         60.7230   18.6080   57.7950 N.am  114  LEU114     -0.1980
     88  CA        61.3260   17.2810   57.7560 C.3   114  LEU114      0.1596
     89  C         62.7480   17.3260   57.2080 C.2   114  LEU114      0.2287
     90  O         63.5910   16.5280   57.6300 O.2   114  LEU114     -0.2864
     91  CB        60.4380   16.3310   56.9490 C.3   114  LEU114      0.0297
     92  CG        59.0530   16.1110   57.5740 C.3   114  LEU114      0.0022
     93  CD1       58.1680   15.2660   56.6790 C.3   114  LEU114      0.0001
     94  CD2       59.1570   15.4710   58.9520 C.3   114  LEU114      0.0001
     95  N         64.7830   18.3020   60.3440 N.3   117  ALA117     -0.1231
     96  CA        64.8810   17.1570   61.2420 C.3   117  ALA117      0.1694
     97  C         65.8500   16.1140   60.6980 C.2   117  ALA117      0.2591
     98  O         66.7030   15.5990   61.4300 O.2   117  ALA117     -0.2718
     99  CB        63.4980   16.5530   61.4660 C.3   117  ALA117      0.0304
    100  N         65.7420   15.8010   59.4050 N.am  118  ALA118     -0.1980
    101  CA        66.6310   14.8290   58.7840 C.3   118  ALA118      0.1597
    102  C         68.0600   15.3380   58.6690 C.2   118  ALA118      0.2287
    103  O         68.9760   14.5340   58.4630 O.2   118  ALA118     -0.2864
    104  CB        66.0990   14.4590   57.3990 C.3   118  ALA118      0.0319
@<TRIPOS>BOND
     1    31    32    1
     2    33    34    2
     3    33    32    1
     4    32    35    1
     5    42    41    2
     6    39    40    1
     7    29    28    2
     8    26    27    1
     9    28    27    1
    10    41    40    1
    11    41    47   am
    12    27    30    1
    13    35    36    1
    14    40    43    1
    15    21    20    2
    16    20    19    1
    17    48    47    1
    18    48    49    1
    19    48    51    1
    20    36    38    1
    21    36    37    1
    22    49    50    2
    23     7     8    1
    24    52    51    1
    25    52    53    1
    26    10     9    2
    27    43    44    1
    28    44    46    1
    29    44    45    1
    30     8     9    1
    31     8    11    1
    32     9    18   am
    33    53    54    1
    34    18    19    1
    35    19    22    1
    36    23    22    1
    37    23    24    1
    38    23    25    1
    39    11    12    1
    40    58    59    1
    41    13    12   ar
    42    13    15   ar
    43    54    55    2
    44     4     3    2
    45    56    55    1
    46    12    14   ar
    47     3     2    1
    48    15    17   ar
    49    55    57    1
    50    75    77   ar
    51    75    74   ar
    52    71    70    1
    53    71    72    2
    54     1     2    1
    55    73    74    1
    56    73    70    1
    57    59    60    1
    58    59    62    1
    59    69    60   am
    60    69    70    1
    61     2     5    1
    62    77    78   ar
    63    74    76   ar
    64    60    61    2
    65    14    16   ar
    66    17    16   ar
    67    62    63    1
    68    93    92    1
    69    91    92    1
    70    91    88    1
    71    78    76   ar
    72     5     6    1
    73    89    90    2
    74    89    88    1
    75    79    80    1
    76   104   101    1
    77    92    94    1
    78    88    87    1
    79    87    81   am
    80    63    64    1
    81    65    64    1
    82    65    66    2
    83   103   102    2
    84   102   101    1
    85    81    80    1
    86    81    82    2
    87    80    83    1
    88   101   100    1
    89    68    66    1
    90    66    67    1
    91    83    84    1
    92   100    97   am
    93    95    96    1
    94    97    96    1
    95    97    98    2
    96    84    86    1
    97    84    85    1
    98    96    99    1
