@<TRIPOS>MOLECULE
tmp/6bw8B00.pdb
 166 155 0 0 0
SMALL
GASTEIGER

@<TRIPOS>ATOM
      1  N         19.2760   55.2900   12.3250 N.3    51  HIS51      -0.1241
      2  CA        18.6760   56.0120   11.2050 C.3    51  HIS51       0.1621
      3  C         19.1480   57.4460   11.0240 C.2    51  HIS51       0.2264
      4  O         18.3290   58.3610   10.9040 O.2    51  HIS51      -0.2867
      5  CB        17.1540   55.9560   11.2960 C.3    51  HIS51       0.0745
      6  CG        16.6220   54.5610   11.3570 C.ar   51  HIS51       0.0817
      7  ND1       17.3100   53.4890   10.8330 N.ar   51  HIS51      -0.2268
      8  CD2       15.4620   54.0620   11.8410 C.ar   51  HIS51       0.1154
      9  CE1       16.6090   52.3850   11.0140 C.ar   51  HIS51       0.1986
     10  NE2       15.4810   52.7060   11.6200 N.ar   51  HIS51      -0.2212
     11  N         17.7490   58.9940    7.3410 N.3    54  ALA54      -0.1231
     12  CA        16.3480   59.3960    7.2860 C.3    54  ALA54       0.1694
     13  C         16.0630   60.5570    8.2290 C.2    54  ALA54       0.2592
     14  O         15.3080   61.4730    7.8830 O.2    54  ALA54      -0.2718
     15  CB        15.4480   58.2080    7.6110 C.3    54  ALA54       0.0304
     16  N         16.6430   60.5280    9.4310 N.am   55  PHE55      -0.1976
     17  CA        16.4330   61.6180   10.3790 C.3    55  PHE55       0.1639
     18  C         16.9340   62.9490    9.8270 C.2    55  PHE55       0.2290
     19  O         16.2760   63.9810    9.9960 O.2    55  PHE55      -0.2864
     20  CB        17.1080   61.3050   11.7180 C.3    55  PHE55       0.0560
     21  CG        16.3680   60.3000   12.5650 C.ar   55  PHE55      -0.0200
     22  CD1       15.2570   59.6300   12.0770 C.ar   55  PHE55      -0.0042
     23  CD2       16.7620   60.0640   13.8730 C.ar   55  PHE55      -0.0042
     24  CE1       14.5790   58.7150   12.8620 C.ar   55  PHE55      -0.0003
     25  CE2       16.0840   59.1590   14.6640 C.ar   55  PHE55      -0.0003
     26  CZ        14.9890   58.4830   14.1580 C.ar   55  PHE55      -0.0000
     27  N         14.5600   64.2020    7.1600 N.3    58  MET58      -0.1245
     28  CA        13.3820   64.7910    7.7860 C.3    58  MET58       0.1570
     29  C         13.6850   66.1620    8.3740 C.2    58  MET58       0.2261
     30  O         12.8940   67.0950    8.2270 O.2    58  MET58      -0.2867
     31  CB        12.8570   63.8760    8.8850 C.3    58  MET58       0.0387
     32  CG        11.5000   64.2920    9.3970 C.3    58  MET58       0.0595
     33  SD        10.3690   62.9190    9.5270 S.3    58  MET58      -0.1393
     34  CE         9.7630   62.8020    7.8580 C.3    58  MET58       0.0692
     35  N         12.0050   69.5720    7.1880 N.3    62  LEU62      -0.1245
     36  CA        11.1610   70.2810    8.1430 C.3    62  LEU62       0.1561
     37  C         11.5630   71.7390    8.3070 C.2    62  LEU62       0.2260
     38  O         10.6960   72.5840    8.5500 O.2    62  LEU62      -0.2867
     39  CB        11.2130   69.5760    9.4970 C.3    62  LEU62       0.0270
     40  CG        10.4490   68.2760    9.7750 C.3    62  LEU62       0.0019
     41  CD1       10.6170   67.8790   11.2220 C.3    62  LEU62       0.0001
     42  CD2        8.9650   68.4010    9.4680 C.3    62  LEU62       0.0001
     43  N          4.8080   71.4380   14.0850 N.3    73  LEU73      -0.1245
     44  CA         5.3490   70.0990   13.8680 C.3    73  LEU73       0.1561
     45  C          4.3720   69.0000   14.2360 C.2    73  LEU73       0.2260
     46  O          4.5600   67.8570   13.8100 O.2    73  LEU73      -0.2867
     47  CB         6.6180   69.8740   14.6920 C.3    73  LEU73       0.0270
     48  CG         7.9290   70.5780   14.3760 C.3    73  LEU73       0.0019
     49  CD1        8.9290   70.2870   15.4760 C.3    73  LEU73       0.0001
     50  CD2        8.4560   70.1130   13.0490 C.3    73  LEU73       0.0001
     51  N          2.6320   66.6970   11.2730 N.3    76  VAL76      -0.1231
     52  CA         3.4780   65.7280   10.5830 C.3    76  VAL76       0.1692
     53  C          3.9410   64.6410   11.5470 C.2    76  VAL76       0.2591
     54  O          4.0060   63.4600   11.1860 O.2    76  VAL76      -0.2718
     55  CB         4.6450   66.4470    9.8800 C.3    76  VAL76       0.0266
     56  CG1        5.3210   67.4250   10.8130 C.3    76  VAL76       0.0020
     57  CG2        5.6380   65.4540    9.3050 C.3    76  VAL76       0.0020
     58  N          4.2510   65.0150   12.7900 N.am   77  MET77      -0.1979
     59  CA         4.5990   64.0290   13.8090 C.3    77  MET77       0.1605
     60  C          3.4640   63.0420   14.0420 C.2    77  MET77       0.2287
     61  O          3.6860   61.8260   14.1090 O.2    77  MET77      -0.2864
     62  CB         4.9730   64.7500   15.1010 C.3    77  MET77       0.0413
     63  CG         5.5820   63.8650   16.1630 C.3    77  MET77       0.0598
     64  SD         5.6920   64.6880   17.7590 S.3    77  MET77      -0.1393
     65  CE         6.3510   66.2730   17.2740 C.3    77  MET77       0.0692
     66  N          3.1530   60.6610   10.8370 N.3    80  VAL80      -0.1231
     67  CA         4.1800   59.6310   10.7770 C.3    80  VAL80       0.1692
     68  C          4.0550   58.6520   11.9410 C.2    80  VAL80       0.2592
     69  O          4.4300   57.4810   11.8090 O.2    80  VAL80      -0.2718
     70  CB         5.5730   60.2840   10.7210 C.3    80  VAL80       0.0266
     71  CG1        6.6400   59.2480   10.4550 C.3    80  VAL80       0.0020
     72  CG2        5.6030   61.3410    9.6460 C.3    80  VAL80       0.0020
     73  N          3.5010   59.0810   13.0780 N.am   81  PHE81      -0.1976
     74  CA         3.5150   58.2590   14.2850 C.3    81  PHE81       0.1639
     75  C          2.2530   57.4300   14.5140 C.2    81  PHE81       0.2290
     76  O          2.3510   56.2370   14.8050 O.2    81  PHE81      -0.2864
     77  CB         3.7590   59.1390   15.5130 C.3    81  PHE81       0.0560
     78  CG         3.5940   58.4060   16.8060 C.ar   81  PHE81      -0.0200
     79  CD1        4.4080   57.3320   17.1190 C.ar   81  PHE81      -0.0042
     80  CD2        2.6160   58.7820   17.7050 C.ar   81  PHE81      -0.0042
     81  CE1        4.2500   56.6490   18.3000 C.ar   81  PHE81      -0.0003
     82  CE2        2.4560   58.1050   18.8850 C.ar   81  PHE81      -0.0003
     83  CZ         3.2780   57.0360   19.1830 C.ar   81  PHE81      -0.0000
     84  N          0.5730   50.2060   13.6880 N.3    85  VAL85      -0.1245
     85  CA         0.8400   49.4220   14.8870 C.3    85  VAL85       0.1561
     86  C          1.4140   50.3320   15.9630 C.2    85  VAL85       0.2260
     87  O          2.1560   51.2780   15.6730 O.2    85  VAL85      -0.2867
     88  CB         1.8030   48.2650   14.5560 C.3    85  VAL85       0.0252
     89  CG1        2.9860   48.7790   13.7590 C.3    85  VAL85       0.0019
     90  CG2        2.2630   47.5400   15.8130 C.3    85  VAL85       0.0019
     91  N          3.6840   50.2930   19.5890 N.3    87  ASN87      -0.1240
     92  CA         4.6670   49.4800   20.2970 C.3    87  ASN87       0.1653
     93  C          5.6920   50.4020   20.9430 C.2    87  ASN87       0.2266
     94  O          5.7120   51.6100   20.6960 O.2    87  ASN87      -0.2867
     95  CB         5.3480   48.4700   19.3550 C.3    87  ASN87       0.1155
     96  CG         6.1460   49.1340   18.2260 C.2    87  ASN87       0.2627
     97  OD1        6.9170   50.0660   18.4370 O.2    87  ASN87      -0.2716
     98  ND2        5.9490   48.6430   17.0160 N.am   87  ASN87      -0.0877
     99  N          8.9390   50.2930   20.5170 N.3    89  GLY89      -0.1210
    100  CA         9.9760   50.6860   19.5740 C.3    89  GLY89       0.1956
    101  C          9.6130   51.9300   18.7860 C.2    89  GLY89       0.2611
    102  O         10.4450   52.8160   18.5790 O.2    89  GLY89      -0.2717
    103  N          8.3660   52.0080   18.3200 N.am   90  ARG90      -0.1979
    104  CA         7.9120   53.2160   17.6440 C.3    90  ARG90       0.1597
    105  C          7.9490   54.4120   18.5860 C.2    90  ARG90       0.2287
    106  O          8.2350   55.5320   18.1530 O.2    90  ARG90      -0.2864
    107  CB         6.5040   52.9980   17.0820 C.3    90  ARG90       0.0334
    108  CG         6.2070   53.7070   15.7640 C.3    90  ARG90       0.0492
    109  CD         4.9040   53.1940   15.1400 C.3    90  ARG90       0.2205
    110  NE         4.5850   53.8330   13.8640 N.pl3  90  ARG90      -0.0865
    111  CZ         3.3850   53.8160   13.2940 C.cat  90  ARG90       0.5346
    112  NH1        2.3770   53.1980   13.8840 N.pl3  90  ARG90       0.1354
    113  NH2        3.1900   54.4220   12.1330 N.pl3  90  ARG90       0.1354
    114  N         11.4370   55.5620   18.9470 N.3    93  THR93      -0.1203
    115  CA        11.8120   56.2070   17.6920 C.3    93  THR93       0.1994
    116  C         11.2740   57.6310   17.6330 C.2    93  THR93       0.2617
    117  O         11.9790   58.5600   17.2120 O.2    93  THR93      -0.2717
    118  CB        11.2780   55.3760   16.5300 C.3    93  THR93       0.1784
    119  OG1       11.5820   53.9970   16.7690 O.3    93  THR93      -0.2211
    120  CG2       11.9200   55.8120   15.2270 C.3    93  THR93       0.0376
    121  N         10.0180   57.8020   18.0460 N.am   94  LEU94      -0.1979
    122  CA         9.4220   59.1110   18.2850 C.3    94  LEU94       0.1596
    123  C         10.3430   59.9950   19.1130 C.2    94  LEU94       0.2287
    124  O         10.7760   61.0690   18.6740 O.2    94  LEU94      -0.2864
    125  CB         8.0820   58.9050   19.0040 C.3    94  LEU94       0.0297
    126  CG         7.2290   60.0490   19.5460 C.3    94  LEU94       0.0022
    127  CD1        6.3890   60.7040   18.4400 C.3    94  LEU94       0.0001
    128  CD2        6.3500   59.5340   20.6740 C.3    94  LEU94       0.0001
    129  N         13.8310   60.8440   17.5490 N.3    97  PHE97      -0.1227
    130  CA        13.8670   61.9650   16.6190 C.3    97  PHE97       0.1736
    131  C         13.6020   63.2840   17.3280 C.2    97  PHE97       0.2596
    132  O         14.1160   64.3220   16.9020 O.2    97  PHE97      -0.2718
    133  CB        12.9120   61.7860   15.4410 C.3    97  PHE97       0.0547
    134  CG        13.1210   62.8210   14.3760 C.ar   97  PHE97      -0.0202
    135  CD1       14.3340   62.8840   13.7190 C.ar   97  PHE97      -0.0042
    136  CD2       12.1430   63.7430   14.0570 C.ar   97  PHE97      -0.0042
    137  CE1       14.5690   63.8360   12.7620 C.ar   97  PHE97      -0.0003
    138  CE2       12.3740   64.6990   13.0920 C.ar   97  PHE97      -0.0003
    139  CZ        13.5910   64.7450   12.4490 C.ar   97  PHE97      -0.0000
    140  N         12.7900   63.2780   18.3830 N.am   98  GLY98      -0.1957
    141  CA        12.6920   64.4740   19.2030 C.3    98  GLY98       0.1869
    142  C         14.0470   64.9290   19.7050 C.2    98  GLY98       0.2309
    143  O         14.3590   66.1200   19.6990 O.2    98  GLY98      -0.2863
    144  N         16.0540   66.4410   16.8150 N.3   101  VAL101     -0.1245
    145  CA        15.5810   67.8140   16.6810 C.3   101  VAL101      0.1561
    146  C         16.1280   68.6880   17.8010 C.2   101  VAL101      0.2260
    147  O         16.3870   69.8710   17.5920 O.2   101  VAL101     -0.2867
    148  CB        14.0410   67.8490   16.6330 C.3   101  VAL101      0.0252
    149  CG1       13.5430   69.2760   16.4730 C.3   101  VAL101      0.0019
    150  CG2       13.5360   66.9990   15.4950 C.3   101  VAL101      0.0019
    151  N          8.6780   71.6150   22.1450 N.3   117  LEU117     -0.1245
    152  CA         8.8360   70.3760   21.3880 C.3   117  LEU117      0.1561
    153  C          8.3140   69.1910   22.1770 C.2   117  LEU117      0.2260
    154  O          7.3910   68.4930   21.7390 O.2   117  LEU117     -0.2867
    155  CB        10.3080   70.1700   21.0230 C.3   117  LEU117      0.0270
    156  CG        10.7540   68.7990   20.5120 C.3   117  LEU117      0.0019
    157  CD1       10.1390   68.4910   19.1570 C.3   117  LEU117      0.0001
    158  CD2       12.2630   68.7620   20.4320 C.3   117  LEU117      0.0001
    159  N          5.4560   66.3240   21.3580 N.3   121  ILE121     -0.1245
    160  CA         5.8060   64.9120   21.4290 C.3   121  ILE121      0.1561
    161  C          4.9330   64.2370   22.4780 C.2   121  ILE121      0.2260
    162  O          4.1400   63.3350   22.1740 O.2   121  ILE121     -0.2867
    163  CB         7.3120   64.7360   21.7300 C.3   121  ILE121      0.0252
    164  CG1        8.1800   65.2980   20.6130 C.3   121  ILE121      0.0019
    165  CG2        7.6390   63.2950   21.9350 C.3   121  ILE121      0.0019
    166  CD1        9.6710   65.3200   20.9910 C.3   121  ILE121      0.0001
@<TRIPOS>BOND
     1    27    28    1
     2    35    36    1
     3    12    11    1
     4    12    15    1
     5    12    13    1
     6    28    29    1
     7    28    31    1
     8    34    33    1
     9    14    13    2
    10    36    37    1
    11    36    39    1
    12    30    29    2
    13    13    16   am
    14    37    38    2
    15    31    32    1
    16    57    55    1
    17    32    33    1
    18    16    17    1
    19    42    40    1
    20    39    40    1
    21    72    70    1
    22    40    41    1
    23    18    19    2
    24    18    17    1
    25    55    52    1
    26    55    56    1
    27    17    20    1
    28    71    70    1
    29    52    51    1
    30    52    53    1
    31    70    67    1
    32    67    66    1
    33    67    68    1
    34     7     9   ar
    35     7     6   ar
    36     4     3    2
    37     9    10   ar
    38     3     2    1
    39    54    53    2
    40     2     5    1
    41     2     1    1
    42     5     6    1
    43     6     8   ar
    44    53    58   am
    45    10     8   ar
    46    20    21    1
    47    69    68    2
    48    68    73   am
    49    22    21   ar
    50    22    24   ar
    51   113   111    1
    52   139   137   ar
    53   139   138   ar
    54    21    23   ar
    55   137   135   ar
    56    58    59    1
    57    24    26   ar
    58    50    48    1
    59    73    74    1
    60   138   136   ar
    61   111   110    2
    62   111   112    1
    63    84    85    1
    64   135   134   ar
    65    89    88    1
    66    59    60    1
    67    59    62    1
    68    46    45    2
    69   110   109    1
    70    44    43    1
    71    44    45    1
    72    44    47    1
    73    23    25   ar
    74    60    61    2
    75   136   134   ar
    76    26    25   ar
    77    74    75    1
    78    74    77    1
    79    48    47    1
    80    48    49    1
    81   134   133    1
    82    75    76    2
    83    88    85    1
    84    88    90    1
    85    85    86    1
    86    62    63    1
    87   109   108    1
    88   120   118    1
    89   133   130    1
    90   150   148    1
    91    77    78    1
    92    87    86    2
    93   108   107    1
    94    63    64    1
    95   149   148    1
    96   118   119    1
    97   118   115    1
    98   130   131    1
    99   130   129    1
   100   148   145    1
   101   145   144    1
   102   145   146    1
   103    78    79   ar
   104    78    80   ar
   105   132   131    2
   106    98    96   am
   107   107   104    1
   108    79    81   ar
   109   117   116    2
   110    65    64    1
   111   131   140   am
   112   147   146    2
   113   116   115    1
   114   116   121   am
   115   104   103    1
   116   104   105    1
   117   115   114    1
   118    80    82   ar
   119   121   122    1
   120   106   105    2
   121    96    97    2
   122    96    95    1
   123   122   125    1
   124   122   123    1
   125    81    83   ar
   126   103   101   am
   127   140   141    1
   128   127   126    1
   129   102   101    2
   130   124   123    2
   131   101   100    1
   132    82    83   ar
   133   125   126    1
   134   157   156    1
   135   141   142    1
   136    95    92    1
   137   126   128    1
   138   100    99    1
   139    91    92    1
   140   143   142    2
   141    92    93    1
   142   158   156    1
   143   156   155    1
   144   164   166    1
   145   164   163    1
   146    94    93    2
   147   155   152    1
   148   159   160    1
   149   152   151    1
   150   152   153    1
   151   160   163    1
   152   160   161    1
   153   163   165    1
   154   154   153    2
   155   162   161    2
