@<TRIPOS>MOLECULE
tmp/6bwdA01.pdb
 75 70 0 0 0
SMALL
GASTEIGER

@<TRIPOS>ATOM
      1  N        196.7280  177.9850  183.9440 N.3   261  VAL261     -0.1245
      2  CA       197.2360  177.8620  185.3020 C.3   261  VAL261      0.1561
      3  C        198.7690  177.8480  185.2970 C.2   261  VAL261      0.2260
      4  O        199.3860  178.5990  186.0610 O.2   261  VAL261     -0.2867
      5  CB       196.6150  176.6380  185.9960 C.3   261  VAL261      0.0252
      6  CG1      197.1290  176.5160  187.4200 C.3   261  VAL261      0.0019
      7  CG2      195.1000  176.7350  185.9630 C.3   261  VAL261      0.0019
      8  N        187.0110  180.0650  183.9690 N.3   306  LEU306     -0.1231
      9  CA       187.6580  179.5080  185.1480 C.3   306  LEU306      0.1693
     10  C        187.3970  180.3670  186.3640 C.2   306  LEU306      0.2591
     11  O        186.8670  179.8690  187.3640 O.2   306  LEU306     -0.2718
     12  CB       189.1580  179.3250  184.9390 C.3   306  LEU306      0.0284
     13  CG       189.5020  178.1060  184.0980 C.3   306  LEU306      0.0019
     14  CD1      190.9930  178.0170  183.9020 C.3   306  LEU306      0.0001
     15  CD2      188.9780  176.8670  184.7730 C.3   306  LEU306      0.0001
     16  N        187.7120  181.6600  186.2660 N.am  307  ALA307     -0.1980
     17  CA       187.4940  182.5780  187.3700 C.3   307  ALA307      0.1597
     18  C        186.0280  182.6990  187.7350 C.2   307  ALA307      0.2287
     19  O        185.7240  182.8460  188.9250 O.2   307  ALA307     -0.2864
     20  CB       188.0520  183.9510  187.0350 C.3   307  ALA307      0.0319
     21  N        183.9330  180.1690  187.6200 N.3   309  LEU309     -0.1231
     22  CA       183.7810  179.0280  188.5130 C.3   309  LEU309      0.1693
     23  C        184.4310  179.2980  189.8550 C.2   309  LEU309      0.2592
     24  O        183.8620  178.9320  190.8920 O.2   309  LEU309     -0.2718
     25  CB       184.3710  177.7670  187.8950 C.3   309  LEU309      0.0284
     26  CG       183.6350  177.2150  186.6870 C.3   309  LEU309      0.0019
     27  CD1      184.3640  176.0110  186.1580 C.3   309  LEU309      0.0001
     28  CD2      182.2390  176.8510  187.0740 C.3   309  LEU309      0.0001
     29  N        185.5700  180.0000  189.8480 N.am  310  GLY310     -0.1957
     30  CA       186.1630  180.4430  191.0950 C.3   310  GLY310      0.1869
     31  C        185.2310  181.3480  191.8670 C.2   310  GLY310      0.2309
     32  O        185.0500  181.1740  193.0770 O.2   310  GLY310     -0.2863
     33  N        182.7680  179.2550  193.6900 N.3   313  MET313     -0.1230
     34  CA       183.2440  178.4680  194.8220 C.3   313  MET313      0.1702
     35  C        183.4770  179.3580  196.0310 C.2   313  MET313      0.2592
     36  O        182.8650  179.1610  197.0920 O.2   313  MET313     -0.2718
     37  CB       184.5110  177.7200  194.4210 C.3   313  MET313      0.0401
     38  CG       184.2650  176.7060  193.3260 C.3   313  MET313      0.0596
     39  SD       185.7420  175.9820  192.6040 S.3   313  MET313     -0.1393
     40  CE       186.3060  174.9340  193.9330 C.3   313  MET313      0.0692
     41  N        184.2710  180.4080  195.8550 N.am  314  LEU314     -0.1980
     42  CA       184.2700  181.4800  196.8330 C.3   314  LEU314      0.1596
     43  C        182.8620  181.8090  197.2900 C.2   314  LEU314      0.2287
     44  O        182.5920  181.7740  198.4950 O.2   314  LEU314     -0.2864
     45  CB       184.9380  182.7130  196.2440 C.3   314  LEU314      0.0297
     46  CG       186.4180  182.4590  196.0240 C.3   314  LEU314      0.0022
     47  CD1      187.0230  183.5370  195.1820 C.3   314  LEU314      0.0001
     48  CD2      187.0930  182.4100  197.3640 C.3   314  LEU314      0.0001
     49  N        180.9800  179.4960  199.4030 N.3   317  PHE317     -0.1241
     50  CA       181.6540  179.4800  200.6980 C.3   317  PHE317      0.1605
     51  C        181.3270  180.7180  201.5260 C.2   317  PHE317      0.2264
     52  O        181.3640  180.6590  202.7590 O.2   317  PHE317     -0.2867
     53  CB       183.1640  179.3480  200.5210 C.3   317  PHE317      0.0534
     54  CG       183.9150  179.3540  201.8130 C.ar  317  PHE317     -0.0203
     55  CD1      183.8800  178.2580  202.6440 C.ar  317  PHE317     -0.0042
     56  CD2      184.6190  180.4730  202.2170 C.ar  317  PHE317     -0.0042
     57  CE1      184.5510  178.2610  203.8410 C.ar  317  PHE317     -0.0003
     58  CE2      185.2910  180.4860  203.4160 C.ar  317  PHE317     -0.0003
     59  CZ       185.2550  179.3790  204.2310 C.ar  317  PHE317     -0.0000
     60  N        185.8260  188.1300  205.2270 N.3   329  VAL329     -0.1231
     61  CA       187.1670  187.8310  204.7210 C.3   329  VAL329      0.1692
     62  C        187.1580  187.6420  203.2120 C.2   329  VAL329      0.2591
     63  O        187.8380  188.3610  202.4740 O.2   329  VAL329     -0.2718
     64  CB       187.7760  186.5740  205.3770 C.3   329  VAL329      0.0266
     65  CG1      189.1260  186.2650  204.7430 C.3   329  VAL329      0.0020
     66  CG2      187.9430  186.7340  206.8810 C.3   329  VAL329      0.0020
     67  N        186.3950  186.6530  202.7540 N.am  330  GLN330     -0.1979
     68  CA       186.4040  186.2170  201.3670 C.3   330  GLN330      0.1601
     69  C        185.1350  186.6000  200.6510 C.2   330  GLN330      0.2287
     70  O        184.9130  186.1720  199.5170 O.2   330  GLN330     -0.2864
     71  CB       186.6120  184.7120  201.2900 C.3   330  GLN330      0.0394
     72  CG       187.9710  184.3130  201.7830 C.3   330  GLN330      0.0908
     73  CD       188.1750  182.8320  201.7660 C.2   330  GLN330      0.2608
     74  OE1      187.2650  182.0790  201.4370 O.2   330  GLN330     -0.2717
     75  NE2      189.3780  182.3960  202.1210 N.am  330  GLN330     -0.0878
@<TRIPOS>BOND
     1    14    13    1
     2     1     2    1
     3     8     9    1
     4    13    15    1
     5    13    12    1
     6    12     9    1
     7     9    10    1
     8     3     2    1
     9     3     4    2
    10     2     5    1
    11     7     5    1
    12     5     6    1
    13    27    26    1
    14    16    10   am
    15    16    17    1
    16    10    11    2
    17    26    28    1
    18    26    25    1
    19    20    17    1
    20    17    18    1
    21    21    22    1
    22    18    19    2
    23    25    22    1
    24    22    23    1
    25    29    23   am
    26    29    30    1
    27    23    24    2
    28    30    31    1
    29    31    32    2
    30    39    38    1
    31    39    40    1
    32    38    37    1
    33    33    34    1
    34    37    34    1
    35    34    35    1
    36    47    46    1
    37    41    35   am
    38    41    42    1
    39    46    45    1
    40    46    48    1
    41    35    36    2
    42    45    42    1
    43    42    43    1
    44    43    44    2
    45    49    50    1
    46    70    69    2
    47    53    50    1
    48    53    54    1
    49    69    68    1
    50    50    51    1
    51    71    68    1
    52    71    72    1
    53    68    67    1
    54    74    73    2
    55    51    52    2
    56    73    72    1
    57    73    75   am
    58    54    56   ar
    59    54    55   ar
    60    56    58   ar
    61    63    62    2
    62    55    57   ar
    63    67    62   am
    64    62    61    1
    65    58    59   ar
    66    57    59   ar
    67    61    60    1
    68    61    64    1
    69    65    64    1
    70    64    66    1
