@<TRIPOS>MOLECULE
tmp/6bwhA00.pdb
 101 91 0 0 0
SMALL
GASTEIGER

@<TRIPOS>ATOM
      1  N          0.3240   80.6600   58.6110 N.3    17  LYS17      -0.1245
      2  CA         1.4460   80.1590   57.7550 C.3    17  LYS17       0.1561
      3  C          1.7580   81.1810   56.6640 C.2    17  LYS17       0.2260
      4  O          1.8620   80.8170   55.4990 O.2    17  LYS17      -0.2867
      5  CB         1.1650   78.8070   57.0760 C.3    17  LYS17       0.0271
      6  CG         1.4340   77.5620   57.9050 C.3    17  LYS17       0.0035
      7  CD         0.5430   77.4050   59.1480 C.3    17  LYS17       0.0206
      8  CE         0.8200   76.1470   59.9470 C.3    17  LYS17       0.1093
      9  NZ         2.2610   76.0060   60.3060 N.3    17  LYS17      -0.1314
     10  N          4.6000   82.7700   56.3420 N.3    19  ARG19      -0.1245
     11  CA         5.8880   82.3600   55.7810 C.3    19  ARG19       0.1563
     12  C          5.7330   81.3720   54.6020 C.2    19  ARG19       0.2260
     13  O          6.7080   81.0460   53.9100 O.2    19  ARG19      -0.2867
     14  CB         6.7670   81.8160   56.9150 C.3    19  ARG19       0.0307
     15  CG         7.3310   82.9160   57.8060 C.3    19  ARG19       0.0489
     16  CD         8.0950   82.4190   59.0210 C.3    19  ARG19       0.2205
     17  NE         7.2090   81.9950   60.1030 N.pl3  19  ARG19      -0.0865
     18  CZ         7.4230   80.9400   60.9020 C.cat  19  ARG19       0.5346
     19  NH1        8.5980   80.3240   60.8970 N.pl3  19  ARG19       0.1354
     20  NH2        6.4410   80.4830   61.6700 N.pl3  19  ARG19       0.1354
     21  N         -2.7980   80.8870   71.7580 N.3    85  LEU85      -0.1245
     22  CA        -2.5750   79.4620   71.4910 C.3    85  LEU85       0.1561
     23  C         -2.7120   78.6300   72.7770 C.2    85  LEU85       0.2260
     24  O         -3.4350   77.5870   72.7870 O.2    85  LEU85      -0.2867
     25  CB        -1.1930   79.2340   70.8600 C.3    85  LEU85       0.0270
     26  CG        -0.9220   77.7650   70.5170 C.3    85  LEU85       0.0019
     27  CD1       -2.1480   77.1220   69.8190 C.3    85  LEU85       0.0001
     28  CD2        0.3400   77.6140   69.6780 C.3    85  LEU85       0.0001
     29  N          0.2860   69.3720   67.4510 N.3   107  GLN107     -0.1245
     30  CA         0.2080   70.4720   66.4580 C.3   107  GLN107      0.1566
     31  C         -0.5880   70.0000   65.2000 C.2   107  GLN107      0.2260
     32  O         -0.7280   68.7980   64.9290 O.2   107  GLN107     -0.2867
     33  CB         1.6140   70.9920   66.1420 C.3   107  GLN107      0.0367
     34  CG         2.2120   71.9470   67.1770 C.3   107  GLN107      0.0905
     35  CD         1.3120   73.1330   67.4130 C.2   107  GLN107      0.2608
     36  OE1        0.4180   73.0820   68.2610 O.2   107  GLN107     -0.2717
     37  NE2        1.5520   74.2080   66.6720 N.am  107  GLN107     -0.0878
     38  N         -0.0530   70.7420   61.9480 N.3   109  ASP109     -0.1239
     39  CA         0.7190   71.0530   60.7380 C.3   109  ASP109      0.1674
     40  C          1.8030   70.0020   60.5970 C.2   109  ASP109      0.2266
     41  O          2.8860   70.3210   60.2120 O.2   109  ASP109     -0.2867
     42  CB         1.2720   72.4860   60.6990 C.3   109  ASP109      0.1410
     43  CG         2.1610   72.8620   61.8750 C.2   109  ASP109      0.3668
     44  OD1        1.9950   72.2370   62.9360 O.co2 109  ASP109     -0.2456
     45  OD2        3.0250   73.7540   61.7160 O.co2 109  ASP109     -0.2456
     46  N         10.2600   69.8730   67.9690 N.3   135  ASP135     -0.1239
     47  CA        10.0920   69.9210   66.5470 C.3   135  ASP135      0.1674
     48  C         11.4490   69.6180   65.8940 C.2   135  ASP135      0.2266
     49  O         12.4710   69.4670   66.5740 O.2   135  ASP135     -0.2867
     50  CB         9.4770   71.2680   66.1570 C.3   135  ASP135      0.1410
     51  CG        10.3640   72.4930   66.2920 C.2   135  ASP135      0.3668
     52  OD1       11.5900   72.3540   66.5630 O.co2 135  ASP135     -0.2456
     53  OD2        9.8290   73.5850   66.0390 O.co2 135  ASP135     -0.2456
     54  N         11.0900   74.6030   68.9080 N.3   140  GLY140     -0.1210
     55  CA         9.6660   74.4590   69.2660 C.3   140  GLY140      0.1956
     56  C          9.2620   73.0320   69.6390 C.2   140  GLY140      0.2612
     57  O         10.1210   72.1800   69.8780 O.2   140  GLY140     -0.2717
     58  N          7.9400   72.7820   69.6340 N.am  141  THR141     -0.1952
     59  CA         7.3170   71.6180   70.2280 C.3   141  THR141      0.1897
     60  C          6.2310   71.0670   69.2850 C.2   141  THR141      0.2313
     61  O          5.2970   71.7790   68.9230 O.2   141  THR141     -0.2863
     62  CB         6.6380   71.9600   71.5670 C.3   141  THR141      0.1794
     63  OG1        7.5010   72.5550   72.5410 O.3   141  THR141     -0.2208
     64  CG2        6.0250   70.7370   72.1990 C.3   141  THR141      0.0378
     65  N          3.3520   76.5360   74.7110 N.3   155  PHE155     -0.1227
     66  CA         3.4830   76.5610   73.2320 C.3   155  PHE155      0.1736
     67  C          3.7990   77.9870   72.7920 C.2   155  PHE155      0.2596
     68  O          3.4580   78.9220   73.4930 O.2   155  PHE155     -0.2718
     69  CB         2.2290   76.0320   72.5050 C.3   155  PHE155      0.0547
     70  CG         2.1280   74.5220   72.4490 C.ar  155  PHE155     -0.0202
     71  CD1        2.6810   73.8030   71.4070 C.ar  155  PHE155     -0.0042
     72  CD2        1.4590   73.8130   73.4260 C.ar  155  PHE155     -0.0042
     73  CE1        2.5920   72.4190   71.3510 C.ar  155  PHE155     -0.0003
     74  CE2        1.3910   72.4340   73.3730 C.ar  155  PHE155     -0.0003
     75  CZ         1.9520   71.7290   72.3340 C.ar  155  PHE155     -0.0000
     76  N          4.4510   78.1090   71.6340 N.am  156  GLY156     -0.1957
     77  CA         4.8760   79.3650   71.0610 C.3   156  GLY156      0.1869
     78  C          6.3940   79.3690   70.9550 C.2   156  GLY156      0.2309
     79  O          6.9980   78.3020   70.9610 O.2   156  GLY156     -0.2863
     80  N          9.3960   77.1060   72.7420 N.3   159  SER159     -0.1217
     81  CA         8.5070   76.1880   73.5010 C.3   159  SER159      0.1889
     82  C          9.2380   74.8830   73.8990 C.2   159  SER159      0.2288
     83  O          8.8430   74.2030   74.8790 O.2   159  SER159     -0.2866
     84  CB         7.1880   75.9140   72.7680 C.3   159  SER159      0.2089
     85  OG         7.3480   75.1200   71.6030 O.3   159  SER159     -0.2183
     86  N          7.0670   69.6340   61.5000 N.3   181  ASP181     -0.1239
     87  CA         5.9630   70.5700   61.3040 C.3   181  ASP181      0.1674
     88  C          6.3010   71.5310   60.1440 C.2   181  ASP181      0.2266
     89  O          7.4320   71.5930   59.7300 O.2   181  ASP181     -0.2867
     90  CB         5.7170   71.3590   62.5810 C.3   181  ASP181      0.1410
     91  CG         6.8010   72.3710   62.8950 C.2   181  ASP181      0.3668
     92  OD1        8.0230   71.9840   62.9000 O.co2 181  ASP181     -0.2456
     93  OD2        6.4260   73.5500   63.1030 O.co2 181  ASP181     -0.2456
     94  N          6.0390   75.3850   58.6840 N.3   183  ASP183     -0.1239
     95  CA         5.8490   76.8250   58.8680 C.3   183  ASP183      0.1674
     96  C          6.3840   77.5710   57.6290 C.2   183  ASP183      0.2266
     97  O          5.8130   78.5690   57.2430 O.2   183  ASP183     -0.2867
     98  CB         6.5220   77.2940   60.1550 C.3   183  ASP183      0.1410
     99  CG         6.1960   76.4740   61.3900 C.2   183  ASP183      0.3668
    100  OD1        5.0480   75.9510   61.4890 O.co2 183  ASP183     -0.2456
    101  OD2        7.0950   76.3540   62.2630 O.co2 183  ASP183     -0.2456
@<TRIPOS>BOND
     1    13    12    2
     2    12    11    1
     3     4     3    2
     4    11    10    1
     5    11    14    1
     6     3     2    1
     7    14    15    1
     8     5     2    1
     9     5     6    1
    10    97    96    2
    11    96    95    1
    12     2     1    1
    13    15    16    1
    14     6     7    1
    15    94    95    1
    16    95    98    1
    17    16    17    1
    18     7     8    1
    19    89    88    2
    20     8     9    1
    21    17    18    2
    22    88    87    1
    23    98    99    1
    24    41    40    2
    25    40    39    1
    26    42    39    1
    27    42    43    1
    28    39    38    1
    29    19    18    1
    30    18    20    1
    31    87    86    1
    32    87    90    1
    33    99   100   ar
    34    99   101   ar
    35    45    43   ar
    36    43    44   ar
    37    90    91    1
    38    91    92   ar
    39    91    93   ar
    40    32    31    2
    41    31    30    1
    42    48    47    1
    43    48    49    2
    44    53    51   ar
    45    33    30    1
    46    33    34    1
    47    50    51    1
    48    50    47    1
    49    51    52   ar
    50    30    29    1
    51    47    46    1
    52    37    35   am
    53    34    35    1
    54    35    36    2
    55    54    55    1
    56    61    60    2
    57    55    56    1
    58    60    59    1
    59    58    56   am
    60    58    59    1
    61    56    57    2
    62    28    26    1
    63    27    26    1
    64    59    62    1
    65    26    25    1
    66    25    22    1
    67    78    79    2
    68    78    77    1
    69    77    76    1
    70    73    71   ar
    71    73    75   ar
    72    71    70   ar
    73    22    21    1
    74    22    23    1
    75    62    64    1
    76    62    63    1
    77    85    84    1
    78    76    67   am
    79    75    74   ar
    80    70    69    1
    81    70    72   ar
    82    69    66    1
    83    80    81    1
    84    84    81    1
    85    23    24    2
    86    67    66    1
    87    67    68    2
    88    66    65    1
    89    74    72   ar
    90    81    82    1
    91    82    83    2
