@<TRIPOS>MOLECULE
tmp/6bwiB03.pdb
 92 89 0 0 0
SMALL
GASTEIGER

@<TRIPOS>ATOM
      1  N        168.1150  169.6870  132.0010 N.3   403  LEU403     -0.1245
      2  CA       168.5010  170.5000  130.8620 C.3   403  LEU403      0.1561
      3  C        169.9990  170.7490  130.8470 C.2   403  LEU403      0.2260
      4  O        170.5900  170.9040  129.7750 O.2   403  LEU403     -0.2867
      5  CB       167.7210  171.8040  130.9050 C.3   403  LEU403      0.0270
      6  CG       167.8650  172.7500  129.7370 C.3   403  LEU403      0.0019
      7  CD1      167.4760  172.0240  128.4750 C.3   403  LEU403      0.0001
      8  CD2      166.9600  173.9280  129.9840 C.3   403  LEU403      0.0001
      9  N        174.0470  166.1440  124.7540 N.3   410  LEU410     -0.1245
     10  CA       173.7590  166.5030  123.3690 C.3   410  LEU410      0.1561
     11  C        174.9790  167.0500  122.6550 C.2   410  LEU410      0.2260
     12  O        175.0840  166.9260  121.4350 O.2   410  LEU410     -0.2867
     13  CB       172.6590  167.5500  123.2870 C.3   410  LEU410      0.0270
     14  CG       171.2420  167.1300  123.6010 C.3   410  LEU410      0.0019
     15  CD1      170.3300  168.3250  123.4900 C.3   410  LEU410      0.0001
     16  CD2      170.8480  166.0740  122.6350 C.3   410  LEU410      0.0001
     17  N        174.9110  176.7360  109.9900 N.3   429  PRO429     -0.2102
     18  CA       173.6240  176.2600  110.5200 C.3   429  PRO429      0.1504
     19  C        173.3180  174.8200  110.1650 C.2   429  PRO429      0.2576
     20  O        172.5710  174.1600  110.8930 O.2   429  PRO429     -0.2718
     21  CB       172.6100  177.2230  109.9030 C.3   429  PRO429      0.0282
     22  CG       173.2660  177.7590  108.7270 C.3   429  PRO429      0.0208
     23  CD       174.6890  177.8970  109.1100 C.3   429  PRO429      0.0893
     24  N        173.8580  174.3070  109.0630 N.am  430  SER430     -0.1953
     25  CA       173.6390  172.9040  108.7480 C.3   430  SER430      0.1924
     26  C        174.4600  171.9790  109.6300 C.2   430  SER430      0.2314
     27  O        174.1390  170.7930  109.7290 O.2   430  SER430     -0.2863
     28  CB       173.9580  172.6290  107.2850 C.3   430  SER430      0.2116
     29  OG       173.8180  171.2500  107.0020 O.3   430  SER430     -0.2180
     30  N        175.1610  173.0830  112.8980 N.3   432  LEU432     -0.1231
     31  CA       174.4800  173.3910  114.1450 C.3   432  LEU432      0.1693
     32  C        173.0310  172.9000  114.1440 C.2   432  LEU432      0.2591
     33  O        172.3050  173.0980  115.1190 O.2   432  LEU432     -0.2718
     34  CB       174.5600  174.8980  114.3830 C.3   432  LEU432      0.0284
     35  CG       174.3090  175.5110  115.7520 C.3   432  LEU432      0.0019
     36  CD1      175.3660  175.0260  116.7040 C.3   432  LEU432      0.0001
     37  CD2      174.3250  177.0170  115.6500 C.3   432  LEU432      0.0001
     38  N        172.5970  172.2800  113.0560 N.am  433  ARG433     -0.1980
     39  CA       171.3520  171.5370  112.9580 C.3   433  ARG433      0.1597
     40  C        171.5620  170.0520  113.1500 C.2   433  ARG433      0.2287
     41  O        170.7470  169.3910  113.7880 O.2   433  ARG433     -0.2864
     42  CB       170.7150  171.7740  111.5880 C.3   433  ARG433      0.0334
     43  CG       169.3660  171.1400  111.3710 C.3   433  ARG433      0.0492
     44  CD       168.8650  171.4520  109.9780 C.3   433  ARG433      0.2205
     45  NE       167.5960  170.7970  109.7200 N.pl3 433  ARG433     -0.0865
     46  CZ       166.4170  171.3400  109.9880 C.cat 433  ARG433      0.5346
     47  NH1      165.3050  170.6710  109.7310 N.pl3 433  ARG433      0.1354
     48  NH2      166.3530  172.5570  110.5000 N.pl3 433  ARG433      0.1354
     49  N        172.4490  169.3770  118.1270 N.3   436  PHE436     -0.1227
     50  CA       171.4780  170.0960  118.9500 C.3   436  PHE436      0.1736
     51  C        170.0410  169.9540  118.4720 C.2   436  PHE436      0.2595
     52  O        169.1340  170.3240  119.2100 O.2   436  PHE436     -0.2718
     53  CB       171.7820  171.5980  119.0810 C.3   436  PHE436      0.0547
     54  CG       173.0030  171.9140  119.8570 C.ar  436  PHE436     -0.0202
     55  CD1      172.9860  171.8600  121.2350 C.ar  436  PHE436     -0.0042
     56  CD2      174.1490  172.3320  119.2160 C.ar  436  PHE436     -0.0042
     57  CE1      174.1060  172.1740  121.9600 C.ar  436  PHE436     -0.0003
     58  CE2      175.2740  172.6500  119.9330 C.ar  436  PHE436     -0.0003
     59  CZ       175.2520  172.5740  121.3070 C.ar  436  PHE436     -0.0000
     60  N        169.7900  169.4550  117.2710 N.am  437  TYR437     -0.1976
     61  CA       168.4100  169.3230  116.8330 C.3   437  TYR437      0.1639
     62  C        168.0680  167.9110  116.4060 C.2   437  TYR437      0.2290
     63  O        167.0620  167.3640  116.8610 O.2   437  TYR437     -0.2864
     64  CB       168.1120  170.3120  115.7110 C.3   437  TYR437      0.0560
     65  CG       166.6820  170.2810  115.2760 C.ar  437  TYR437     -0.0198
     66  CD1      165.6790  170.6890  116.1310 C.ar  437  TYR437     -0.0009
     67  CD2      166.3380  169.8810  114.0020 C.ar  437  TYR437     -0.0009
     68  CE1      164.3690  170.6600  115.7430 C.ar  437  TYR437      0.0417
     69  CE2      165.0330  169.8620  113.5990 C.ar  437  TYR437      0.0417
     70  CZ       164.0510  170.2560  114.4720 C.ar  437  TYR437      0.1957
     71  OH       162.7390  170.2350  114.0690 O.3   437  TYR437     -0.2866
     72  N        168.4560  166.1320  119.5860 N.3   440  TYR440     -0.1241
     73  CA       167.4000  166.4620  120.5310 C.3   440  TYR440      0.1605
     74  C        166.1500  165.6610  120.2340 C.2   440  TYR440      0.2264
     75  O        165.4340  165.2550  121.1510 O.2   440  TYR440     -0.2867
     76  CB       167.0940  167.9490  120.4850 C.3   440  TYR440      0.0534
     77  CG       166.1270  168.3950  121.5390 C.ar  440  TYR440     -0.0201
     78  CD1      166.5380  168.5650  122.8430 C.ar  440  TYR440     -0.0009
     79  CD2      164.8060  168.6560  121.2300 C.ar  440  TYR440     -0.0009
     80  CE1      165.6650  168.9790  123.8120 C.ar  440  TYR440      0.0417
     81  CE2      163.9250  169.0690  122.1940 C.ar  440  TYR440      0.0417
     82  CZ       164.3630  169.2270  123.4810 C.ar  440  TYR440      0.1957
     83  OH       163.4940  169.6390  124.4530 O.3   440  TYR440     -0.2866
     84  N        168.8050  168.3850  103.9730 N.3   476  GLN476     -0.1245
     85  CA       169.5140  169.1470  105.0060 C.3   476  GLN476      0.1566
     86  C        169.8810  168.3060  106.2200 C.2   476  GLN476      0.2260
     87  O        170.0160  168.8530  107.3180 O.2   476  GLN476     -0.2867
     88  CB       168.7280  170.3760  105.4730 C.3   476  GLN476      0.0367
     89  CG       168.5550  171.4410  104.4090 C.3   476  GLN476      0.0905
     90  CD       169.8580  172.1170  104.0500 C.2   476  GLN476      0.2608
     91  OE1      170.6820  172.3910  104.9170 O.2   476  GLN476     -0.2717
     92  NE2      170.0500  172.3910  102.7670 N.am  476  GLN476     -0.0878
@<TRIPOS>BOND
     1    92    90   am
     2    84    85    1
     3    90    89    1
     4    90    91    2
     5    89    88    1
     6    85    88    1
     7    85    86    1
     8    86    87    2
     9    29    28    1
    10    28    25    1
    11    22    23    1
    12    22    21    1
    13    25    24    1
    14    25    26    1
    15    24    19   am
    16    23    17    1
    17    26    27    2
    18    45    44    1
    19    45    46    2
    20    47    46    1
    21    21    18    1
    22    44    43    1
    23    46    48    1
    24    17    18    1
    25    19    18    1
    26    19    20    2
    27    43    42    1
    28    42    39    1
    29    30    31    1
    30    39    38    1
    31    39    40    1
    32    38    32   am
    33    40    41    2
    34    69    67   ar
    35    69    70   ar
    36    67    65   ar
    37    71    70    1
    38    32    31    1
    39    32    33    2
    40    31    34    1
    41    34    35    1
    42    70    68   ar
    43    65    64    1
    44    65    66   ar
    45    37    35    1
    46    64    61    1
    47    68    66   ar
    48    35    36    1
    49    62    61    1
    50    62    63    2
    51    61    60    1
    52    60    51   am
    53    49    50    1
    54    51    50    1
    55    51    52    2
    56    50    53    1
    57    53    54    1
    58    56    54   ar
    59    56    58   ar
    60    72    73    1
    61    54    55   ar
    62    58    59   ar
    63    74    73    1
    64    74    75    2
    65    76    73    1
    66    76    77    1
    67    79    77   ar
    68    79    81   ar
    69    55    57   ar
    70    59    57   ar
    71    12    11    2
    72    77    78   ar
    73    81    82   ar
    74    16    14    1
    75    11    10    1
    76    78    80   ar
    77    13    10    1
    78    13    14    1
    79    10     9    1
    80    82    80   ar
    81    82    83    1
    82    15    14    1
    83     7     6    1
    84     6     8    1
    85     6     5    1
    86     4     3    2
    87     3     2    1
    88     2     5    1
    89     2     1    1
