@<TRIPOS>MOLECULE
tmp/6bwiB04.pdb
 150 146 0 0 0
SMALL
GASTEIGER

@<TRIPOS>ATOM
      1  N        135.0310  184.8600  149.7670 N.3   221  TRP221     -0.1227
      2  CA       135.2520  184.8110  148.3300 C.3   221  TRP221      0.1737
      3  C        133.9210  184.8940  147.6110 C.2   221  TRP221      0.2595
      4  O        133.7890  185.5870  146.6000 O.2   221  TRP221     -0.2718
      5  CB       136.0190  183.5460  147.9650 C.3   221  TRP221      0.0564
      6  CG       136.1870  183.2400  146.5030 C.ar  221  TRP221      0.0003
      7  CD1      135.6460  182.1970  145.8380 C.ar  221  TRP221      0.0946
      8  CD2      136.9520  183.9690  145.5360 C.ar  221  TRP221      0.0152
      9  NE1      136.0240  182.2160  144.5290 N.ar  221  TRP221     -0.2442
     10  CE2      136.8250  183.3010  144.3150 C.ar  221  TRP221      0.0810
     11  CE3      137.7190  185.1280  145.5800 C.ar  221  TRP221      0.0012
     12  CZ2      137.4440  183.7440  143.1670 C.ar  221  TRP221      0.0191
     13  CZ3      138.3550  185.5530  144.4430 C.ar  221  TRP221      0.0001
     14  CH2      138.2020  184.8720  143.2500 C.ar  221  TRP221      0.0015
     15  N        132.9090  184.2290  148.1520 N.am  222  TRP222     -0.1976
     16  CA       131.5390  184.4310  147.7130 C.3   222  TRP222      0.1640
     17  C        130.9710  185.6620  148.4020 C.2   222  TRP222      0.2290
     18  O        131.2880  185.9320  149.5620 O.2   222  TRP222     -0.2864
     19  CB       130.6890  183.2110  148.0420 C.3   222  TRP222      0.0576
     20  CG       131.0590  182.0010  147.2720 C.ar  222  TRP222      0.0006
     21  CD1      131.8910  181.0060  147.6710 C.ar  222  TRP222      0.0946
     22  CD2      130.5970  181.6410  145.9710 C.ar  222  TRP222      0.0152
     23  NE1      131.9850  180.0480  146.6980 N.ar  222  TRP222     -0.2442
     24  CE2      131.1960  180.4150  145.6430 C.ar  222  TRP222      0.0810
     25  CE3      129.7310  182.2360  145.0510 C.ar  222  TRP222      0.0012
     26  CZ2      130.9640  179.7760  144.4360 C.ar  222  TRP222      0.0191
     27  CZ3      129.5020  181.5990  143.8540 C.ar  222  TRP222      0.0001
     28  CH2      130.1150  180.3830  143.5560 C.ar  222  TRP222      0.0015
     29  N        129.2190  175.7600  140.7680 N.3   231  ILE231     -0.1245
     30  CA       129.5850  176.5170  139.5830 C.3   231  ILE231      0.1561
     31  C        128.6870  176.1430  138.4080 C.2   231  ILE231      0.2260
     32  O        128.6710  176.8370  137.3900 O.2   231  ILE231     -0.2867
     33  CB       131.0880  176.2960  139.3270 C.3   231  ILE231      0.0252
     34  CG1      131.8460  176.5540  140.6210 C.3   231  ILE231      0.0019
     35  CG2      131.6570  177.3150  138.3700 C.3   231  ILE231      0.0019
     36  CD1      133.2910  176.1380  140.5740 C.3   231  ILE231      0.0001
     37  N        126.3540  178.9900  139.2360 N.3   234  LEU234     -0.1231
     38  CA       127.0680  180.2480  139.0120 C.3   234  LEU234      0.1693
     39  C        127.2820  180.5160  137.5290 C.2   234  LEU234      0.2591
     40  O        127.0450  181.6240  137.0580 O.2   234  LEU234     -0.2718
     41  CB       128.3950  180.2770  139.7640 C.3   234  LEU234      0.0284
     42  CG       129.0330  181.6620  139.8380 C.3   234  LEU234      0.0019
     43  CD1      129.5800  182.0630  138.4810 C.3   234  LEU234      0.0001
     44  CD2      128.0080  182.6730  140.3160 C.3   234  LEU234      0.0001
     45  N        127.7060  179.4980  136.7860 N.am  235  VAL235     -0.1980
     46  CA       127.8640  179.6660  135.3460 C.3   235  VAL235      0.1595
     47  C        126.5110  179.9220  134.6970 C.2   235  VAL235      0.2287
     48  O        126.3710  180.8180  133.8550 O.2   235  VAL235     -0.2864
     49  CB       128.5860  178.4500  134.7330 C.3   235  VAL235      0.0276
     50  CG1      128.4410  178.4300  133.2330 C.3   235  VAL235      0.0022
     51  CG2      130.0510  178.5340  135.0260 C.3   235  VAL235      0.0022
     52  N        133.3070  186.6120  143.5860 N.3   265  VAL265     -0.1245
     53  CA       133.3460  185.5260  142.6130 C.3   265  VAL265      0.1561
     54  C        133.0470  186.0320  141.2160 C.2   265  VAL265      0.2260
     55  O        133.8070  185.7820  140.2830 O.2   265  VAL265     -0.2867
     56  CB       132.3850  184.3840  143.0040 C.3   265  VAL265      0.0252
     57  CG1      132.2580  183.4080  141.8770 C.3   265  VAL265      0.0019
     58  CG2      132.9380  183.6470  144.1430 C.3   265  VAL265      0.0019
     59  N        135.6710  187.7010  139.3990 N.3   268  PHE268     -0.1227
     60  CA       136.6740  186.7720  138.9020 C.3   268  PHE268      0.1736
     61  C        136.1840  186.0440  137.6610 C.2   268  PHE268      0.2595
     62  O        136.9330  185.9070  136.6910 O.2   268  PHE268     -0.2718
     63  CB       137.0520  185.7850  139.9930 C.3   268  PHE268      0.0547
     64  CG       137.9660  184.7140  139.5340 C.ar  268  PHE268     -0.0202
     65  CD1      139.2910  184.9840  139.2760 C.ar  268  PHE268     -0.0042
     66  CD2      137.5030  183.4270  139.3730 C.ar  268  PHE268     -0.0042
     67  CE1      140.1290  183.9920  138.8530 C.ar  268  PHE268     -0.0003
     68  CE2      138.3340  182.4360  138.9530 C.ar  268  PHE268     -0.0003
     69  CZ       139.6490  182.7170  138.6910 C.ar  268  PHE268     -0.0000
     70  N        134.9320  185.5750  137.6690 N.am  269  MET269     -0.1979
     71  CA       134.3810  184.9440  136.4750 C.3   269  MET269      0.1605
     72  C        134.2400  185.9430  135.3370 C.2   269  MET269      0.2287
     73  O        134.4550  185.5900  134.1740 O.2   269  MET269     -0.2864
     74  CB       133.0300  184.2960  136.7740 C.3   269  MET269      0.0413
     75  CG       132.4940  183.5050  135.6010 C.3   269  MET269      0.0598
     76  SD       130.9160  182.6970  135.8430 S.3   269  MET269     -0.1393
     77  CE       130.6270  182.0650  134.1930 C.3   269  MET269      0.0692
     78  N        137.6710  186.1610  133.9030 N.3   272  VAL272     -0.1231
     79  CA       138.0520  184.9580  133.1720 C.3   272  VAL272      0.1692
     80  C        137.3530  184.9080  131.8200 C.2   272  VAL272      0.2591
     81  O        137.9920  184.6780  130.7870 O.2   272  VAL272     -0.2718
     82  CB       137.7520  183.7070  134.0110 C.3   272  VAL272      0.0266
     83  CG1      137.8820  182.4690  133.1810 C.3   272  VAL272      0.0020
     84  CG2      138.7100  183.6220  135.1590 C.3   272  VAL272      0.0020
     85  N        136.0350  185.1210  131.8060 N.am  273  VAL273     -0.1980
     86  CA       135.2770  185.0760  130.5590 C.3   273  VAL273      0.1595
     87  C        135.6850  186.2220  129.6460 C.2   273  VAL273      0.2287
     88  O        135.8180  186.0440  128.4250 O.2   273  VAL273     -0.2864
     89  CB       133.7690  185.0790  130.8650 C.3   273  VAL273      0.0276
     90  CG1      132.9460  185.1720  129.6010 C.3   273  VAL273      0.0022
     91  CG2      133.4040  183.8170  131.6000 C.3   273  VAL273      0.0022
     92  N        139.1670  185.1200  128.1970 N.3   276  LEU276     -0.1231
     93  CA       139.0290  184.1280  127.1410 C.3   276  LEU276      0.1693
     94  C        138.4730  184.7460  125.8670 C.2   276  LEU276      0.2591
     95  O        138.8890  184.3730  124.7620 O.2   276  LEU276     -0.2718
     96  CB       138.1380  182.9880  127.6180 C.3   276  LEU276      0.0284
     97  CG       138.7240  182.0890  128.6950 C.3   276  LEU276      0.0019
     98  CD1      137.6670  181.1500  129.2090 C.3   276  LEU276      0.0001
     99  CD2      139.8510  181.3040  128.0960 C.3   276  LEU276      0.0001
    100  N        137.5440  185.7020  125.9950 N.am  277  LEU277     -0.1980
    101  CA       137.0960  186.4180  124.8040 C.3   277  LEU277      0.1596
    102  C        138.2050  187.2720  124.2170 C.2   277  LEU277      0.2287
    103  O        138.2550  187.4620  122.9970 O.2   277  LEU277     -0.2864
    104  CB       135.8810  187.2800  125.1140 C.3   277  LEU277      0.0297
    105  CG       134.6150  186.4800  125.3920 C.3   277  LEU277      0.0022
    106  CD1      133.4870  187.4070  125.7680 C.3   277  LEU277      0.0001
    107  CD2      134.2350  185.6200  124.2070 C.3   277  LEU277      0.0001
    108  N        140.2460  184.7550  122.1360 N.3   280  LEU280     -0.1245
    109  CA       139.5630  184.5080  120.8670 C.3   280  LEU280      0.1561
    110  C        139.6990  185.6940  119.9310 C.2   280  LEU280      0.2260
    111  O        139.8450  185.5200  118.7160 O.2   280  LEU280     -0.2867
    112  CB       138.0900  184.2100  121.1000 C.3   280  LEU280      0.0270
    113  CG       137.7480  182.8880  121.7580 C.3   280  LEU280      0.0019
    114  CD1      136.2770  182.8580  122.0810 C.3   280  LEU280      0.0001
    115  CD2      138.1000  181.7670  120.8140 C.3   280  LEU280      0.0001
    116  N        144.2010  181.6170  137.3750 N.3   379  PHE379     -0.1241
    117  CA       143.5890  180.4800  138.0450 C.3   379  PHE379      0.1605
    118  C        144.3700  179.9870  139.2480 C.2   379  PHE379      0.2264
    119  O        144.2910  178.8000  139.5710 O.2   379  PHE379     -0.2867
    120  CB       143.3640  179.3400  137.0570 C.3   379  PHE379      0.0534
    121  CG       142.1010  179.4670  136.2780 C.ar  379  PHE379     -0.0203
    122  CD1      140.9100  179.0870  136.8350 C.ar  379  PHE379     -0.0042
    123  CD2      142.1040  179.9790  134.9950 C.ar  379  PHE379     -0.0042
    124  CE1      139.7370  179.1950  136.1430 C.ar  379  PHE379     -0.0003
    125  CE2      140.9270  180.0870  134.2900 C.ar  379  PHE379     -0.0003
    126  CZ       139.7460  179.6990  134.8650 C.ar  379  PHE379     -0.0000
    127  N        143.4960  180.8870  142.1530 N.3   381  VAL381     -0.1231
    128  CA       142.5090  180.9830  143.2220 C.3   381  VAL381      0.1692
    129  C        141.4520  179.9280  142.9180 C.2   381  VAL381      0.2592
    130  O        140.4560  180.2020  142.2460 O.2   381  VAL381     -0.2718
    131  CB       141.8840  182.3720  143.3200 C.3   381  VAL381      0.0266
    132  CG1      141.0130  182.4600  144.5520 C.3   381  VAL381      0.0020
    133  CG2      142.9550  183.4210  143.3090 C.3   381  VAL381      0.0020
    134  N        141.6670  178.7180  143.4160 N.am  382  ASN382     -0.1960
    135  CA       140.7050  177.6270  143.3590 C.3   382  ASN382      0.1819
    136  C        141.0400  176.6580  144.4740 C.2   382  ASN382      0.2621
    137  O        142.1940  176.5270  144.8780 O.2   382  ASN382     -0.2715
    138  CB       140.7220  176.8780  142.0240 C.3   382  ASN382      0.1195
    139  CG       139.9070  177.5510  140.9590 C.2   382  ASN382      0.2630
    140  OD1      138.8040  178.0270  141.2120 O.2   382  ASN382     -0.2716
    141  ND2      140.4450  177.6020  139.7540 N.am  382  ASN382     -0.0877
    142  N        140.0230  175.9650  144.9600 N.am  383  LYS383     -0.1977
    143  CA       140.2960  174.9190  145.9320 C.3   383  LYS383      0.1596
    144  C        140.7910  173.6520  145.2440 C.2   383  LYS383      0.2287
    145  O        141.3940  172.7860  145.8890 O.2   383  LYS383     -0.2864
    146  CB       139.0460  174.6370  146.7650 C.3   383  LYS383      0.0298
    147  CG       138.4820  175.6640  147.7330 C.3   383  LYS383      0.0038
    148  CD       139.6260  176.3060  148.5090 C.3   383  LYS383      0.0206
    149  CE       139.2150  176.4050  149.9750 C.3   383  LYS383      0.1093
    150  NZ       140.4230  176.4120  150.8550 N.3   383  LYS383     -0.1314
@<TRIPOS>BOND
     1   111   110    2
     2   110   109    1
     3   115   113    1
     4   109   112    1
     5   109   108    1
     6   112   113    1
     7   113   114    1
     8   103   102    2
     9   107   105    1
    10   102   101    1
    11    95    94    2
    12   101   104    1
    13   101   100    1
    14   104   105    1
    15   105   106    1
    16    94   100   am
    17    94    93    1
    18    93    96    1
    19    93    92    1
    20    96    97    1
    21    99    97    1
    22    88    87    2
    23    97    98    1
    24    90    89    1
    25    87    86    1
    26    86    89    1
    27    86    85    1
    28    81    80    2
    29    89    91    1
    30    85    80   am
    31    80    79    1
    32    79    78    1
    33    79    82    1
    34    83    82    1
    35    50    49    1
    36    48    47    2
    37    82    84    1
    38    73    72    2
    39    77    76    1
    40   125   126   ar
    41   125   123   ar
    42    47    46    1
    43    49    51    1
    44    49    46    1
    45   126   124   ar
    46   123   121   ar
    47    72    71    1
    48    46    45    1
    49    75    76    1
    50    75    74    1
    51   124   122   ar
    52   121   122   ar
    53   121   120    1
    54    71    74    1
    55    71    70    1
    56    62    61    2
    57    45    39   am
    58   120   117    1
    59    40    39    2
    60   116   117    1
    61    32    31    2
    62    39    38    1
    63    61    70   am
    64    61    60    1
    65   117   118    1
    66    35    33    1
    67    31    30    1
    68    43    42    1
    69    69    67   ar
    70    69    68   ar
    71    67    65   ar
    72    60    59    1
    73    60    63    1
    74    68    66   ar
    75    38    37    1
    76    38    41    1
    77   118   119    2
    78    65    64   ar
    79    33    30    1
    80    33    34    1
    81    66    64   ar
    82    64    63    1
    83    30    29    1
    84   141   139   am
    85    41    42    1
    86    42    44    1
    87    55    54    2
    88    36    34    1
    89   139   140    2
    90   139   138    1
    91    54    53    1
    92    57    56    1
    93   138   135    1
    94   127   128    1
    95   130   129    2
    96    53    56    1
    97    53    52    1
    98   129   128    1
    99   129   134   am
   100    56    58    1
   101    12    14   ar
   102    12    10   ar
   103   128   131    1
   104    14    13   ar
   105   133   131    1
   106   131   132    1
   107   135   134    1
   108   135   136    1
   109    28    27   ar
   110    28    26   ar
   111    27    25   ar
   112    10     9   ar
   113    10     8   ar
   114    26    24   ar
   115    13    11   ar
   116   136   137    2
   117   136   142   am
   118     9     7   ar
   119   142   143    1
   120    25    22   ar
   121   144   145    2
   122   144   143    1
   123     8    11   ar
   124     8     6   ar
   125    24    22   ar
   126    24    23   ar
   127     7     6   ar
   128   143   146    1
   129    22    20   ar
   130     6     5    1
   131     4     3    2
   132    23    21   ar
   133   146   147    1
   134    20    21   ar
   135    20    19    1
   136     3    15   am
   137     3     2    1
   138    16    19    1
   139    16    15    1
   140    16    17    1
   141   147   148    1
   142     5     2    1
   143     2     1    1
   144    17    18    2
   145   148   149    1
   146   149   150    1
