@<TRIPOS>MOLECULE
tmp/6bwiB06.pdb
 120 115 0 0 0
SMALL
GASTEIGER

@<TRIPOS>ATOM
      1  N        156.2630  187.4140  139.1740 N.3   333  TRP333     -0.1241
      2  CA       155.2890  187.1470  138.1330 C.3   333  TRP333      0.1605
      3  C        154.8670  188.4210  137.4210 C.2   333  TRP333      0.2264
      4  O        154.7300  188.4370  136.1980 O.2   333  TRP333     -0.2867
      5  CB       154.0430  186.4640  138.6920 C.3   333  TRP333      0.0550
      6  CG       153.1590  186.0870  137.5760 C.ar  333  TRP333      0.0003
      7  CD1      152.0840  186.7770  137.1090 C.ar  333  TRP333      0.0946
      8  CD2      153.2960  184.9400  136.7420 C.ar  333  TRP333      0.0152
      9  NE1      151.5510  186.1340  136.0300 N.ar  333  TRP333     -0.2442
     10  CE2      152.2730  184.9960  135.7890 C.ar  333  TRP333      0.0810
     11  CE3      154.1860  183.8680  136.7110 C.ar  333  TRP333      0.0012
     12  CZ2      152.1020  184.0170  134.8250 C.ar  333  TRP333      0.0191
     13  CZ3      154.0210  182.9040  135.7520 C.ar  333  TRP333      0.0001
     14  CH2      152.9860  182.9820  134.8220 C.ar  333  TRP333      0.0015
     15  N        149.9290  182.3300  128.9390 N.3   373  VAL373     -0.1245
     16  CA       150.5590  181.8270  130.1520 C.3   373  VAL373      0.1561
     17  C        150.1120  182.6520  131.3610 C.2   373  VAL373      0.2260
     18  O        150.1140  182.1500  132.4900 O.2   373  VAL373     -0.2867
     19  CB       152.0900  181.7710  129.9360 C.3   373  VAL373      0.0252
     20  CG1      152.8760  181.4280  131.1890 C.3   373  VAL373      0.0019
     21  CG2      152.4070  180.7100  128.9080 C.3   373  VAL373      0.0019
     22  N        147.2420  180.9290  133.5000 N.3   376  LEU376     -0.1231
     23  CA       147.5570  180.0950  134.6520 C.3   376  LEU376      0.1693
     24  C        147.5320  180.9010  135.9370 C.2   376  LEU376      0.2592
     25  O        146.9650  180.4530  136.9360 O.2   376  LEU376     -0.2718
     26  CB       148.9270  179.4550  134.4720 C.3   376  LEU376      0.0284
     27  CG       149.0140  178.4860  133.3080 C.3   376  LEU376      0.0019
     28  CD1      150.4470  178.0960  133.0620 C.3   376  LEU376      0.0001
     29  CD2      148.1840  177.2820  133.6280 C.3   376  LEU376      0.0001
     30  N        148.1350  182.0890  135.9280 N.am  377  HIS377     -0.1976
     31  CA       148.2060  182.9070  137.1290 C.3   377  HIS377      0.1656
     32  C        146.8510  183.4590  137.5270 C.2   377  HIS377      0.2291
     33  O        146.6360  183.7560  138.7060 O.2   377  HIS377     -0.2864
     34  CB       149.1750  184.0540  136.9140 C.3   377  HIS377      0.0771
     35  CG       149.3870  184.9140  138.1180 C.ar  377  HIS377      0.0820
     36  ND1      150.1590  184.5210  139.1880 N.ar  377  HIS377     -0.2267
     37  CD2      148.9180  186.1460  138.4260 C.ar  377  HIS377      0.1154
     38  CE1      150.1610  185.4740  140.1020 C.ar  377  HIS377      0.1986
     39  NE2      149.4140  186.4710  139.6640 N.ar  377  HIS377     -0.2212
     40  N        145.0930  180.8510  139.9510 N.3   380  THR380     -0.1218
     41  CA       145.7040  180.4320  141.2000 C.3   380  THR380      0.1862
     42  C        144.7230  180.4230  142.3590 C.2   380  THR380      0.2287
     43  O        145.0790  179.9780  143.4550 O.2   380  THR380     -0.2866
     44  CB       146.8910  181.3180  141.5520 C.3   380  THR380      0.1770
     45  OG1      146.4590  182.6750  141.6690 O.3   380  THR380     -0.2211
     46  CG2      147.9280  181.2170  140.4890 C.3   380  THR380      0.0375
     47  N        149.2290  174.5040  140.5450 N.3   389  ILE389     -0.1231
     48  CA       149.8830  175.5230  139.7320 C.3   389  ILE389      0.1692
     49  C        151.0470  176.1500  140.4830 C.2   389  ILE389      0.2591
     50  O        152.0770  176.4820  139.8860 O.2   389  ILE389     -0.2718
     51  CB       148.8420  176.5700  139.2960 C.3   389  ILE389      0.0266
     52  CG1      147.7930  175.9090  138.4210 C.3   389  ILE389      0.0019
     53  CG2      149.4580  177.6900  138.5020 C.3   389  ILE389      0.0020
     54  CD1      146.6420  176.7980  138.1010 C.3   389  ILE389      0.0001
     55  N        150.9320  176.2700  141.8050 N.am  390  VAL390     -0.1980
     56  CA       152.0540  176.7560  142.5960 C.3   390  VAL390      0.1595
     57  C        153.1690  175.7190  142.6340 C.2   390  VAL390      0.2287
     58  O        154.3530  176.0690  142.5770 O.2   390  VAL390     -0.2864
     59  CB       151.5650  177.1300  144.0060 C.3   390  VAL390      0.0276
     60  CG1      152.6980  177.6540  144.8680 C.3   390  VAL390      0.0022
     61  CG2      150.4520  178.1450  143.9150 C.3   390  VAL390      0.0022
     62  N        153.9710  173.4850  140.3440 N.3   392  VAL392     -0.1231
     63  CA       154.6650  173.3690  139.0560 C.3   392  VAL392      0.1692
     64  C        155.8460  174.3330  138.9760 C.2   392  VAL392      0.2592
     65  O        156.9140  173.9880  138.4580 O.2   392  VAL392     -0.2718
     66  CB       153.6700  173.5820  137.9000 C.3   392  VAL392      0.0266
     67  CG1      154.3710  173.7090  136.5650 C.3   392  VAL392      0.0020
     68  CG2      152.7200  172.4210  137.8310 C.3   392  VAL392      0.0020
     69  N        155.7120  175.5150  139.5700 N.am  393  SER393     -0.1952
     70  CA       156.8240  176.4540  139.5490 C.3   393  SER393      0.1924
     71  C        157.9200  176.0830  140.5360 C.2   393  SER393      0.2314
     72  O        159.0660  176.4910  140.3430 O.2   393  SER393     -0.2863
     73  CB       156.3330  177.8660  139.8470 C.3   393  SER393      0.2116
     74  OG       155.9090  177.9770  141.1910 O.3   393  SER393     -0.2180
     75  N        160.7870  173.4580  138.7890 N.3   396  MET396     -0.1245
     76  CA       161.5510  173.7540  137.5850 C.3   396  MET396      0.1570
     77  C        163.0490  173.5880  137.7820 C.2   396  MET396      0.2261
     78  O        163.7780  173.5210  136.7890 O.2   396  MET396     -0.2867
     79  CB       161.2540  175.1740  137.1030 C.3   396  MET396      0.0387
     80  CG       159.7810  175.4860  136.9950 C.3   396  MET396      0.0595
     81  SD       159.1470  174.8490  135.4550 S.3   396  MET396     -0.1393
     82  CE       160.0280  176.0290  134.4010 C.3   396  MET396      0.0692
     83  N        164.1140  170.4690  136.2360 N.3   399  VAL399     -0.1231
     84  CA       164.1360  170.6770  134.7970 C.3   399  VAL399      0.1692
     85  C        165.4210  171.3660  134.3900 C.2   399  VAL399      0.2592
     86  O        165.9680  171.0860  133.3190 O.2   399  VAL399     -0.2718
     87  CB       162.9070  171.4920  134.3660 C.3   399  VAL399      0.0266
     88  CG1      162.8270  171.6400  132.8570 C.3   399  VAL399      0.0020
     89  CG2      161.6760  170.8710  134.9040 C.3   399  VAL399      0.0020
     90  N        165.9490  172.2550  135.2310 N.am  400  PHE400     -0.1976
     91  CA       167.2240  172.8530  134.8760 C.3   400  PHE400      0.1639
     92  C        168.3950  171.9130  135.0800 C.2   400  PHE400      0.2290
     93  O        169.3890  172.0410  134.3600 O.2   400  PHE400     -0.2864
     94  CB       167.4770  174.1440  135.6460 C.3   400  PHE400      0.0560
     95  CG       166.5980  175.2680  135.2190 C.ar  400  PHE400     -0.0200
     96  CD1      166.6910  175.7660  133.9410 C.ar  400  PHE400     -0.0042
     97  CD2      165.7280  175.8690  136.1020 C.ar  400  PHE400     -0.0042
     98  CE1      165.8940  176.7970  133.5280 C.ar  400  PHE400     -0.0003
     99  CE2      164.9310  176.9100  135.7010 C.ar  400  PHE400     -0.0003
    100  CZ       165.0170  177.3770  134.4090 C.ar  400  PHE400     -0.0000
    101  N        168.1150  169.6870  132.0010 N.3   403  LEU403     -0.1245
    102  CA       168.5010  170.5000  130.8620 C.3   403  LEU403      0.1561
    103  C        169.9990  170.7490  130.8470 C.2   403  LEU403      0.2260
    104  O        170.5900  170.9040  129.7750 O.2   403  LEU403     -0.2867
    105  CB       167.7210  171.8040  130.9050 C.3   403  LEU403      0.0270
    106  CG       167.8650  172.7500  129.7370 C.3   403  LEU403      0.0019
    107  CD1      167.4760  172.0240  128.4750 C.3   403  LEU403      0.0001
    108  CD2      166.9600  173.9280  129.9840 C.3   403  LEU403      0.0001
    109  N        168.4560  166.1320  119.5860 N.3   440  TYR440     -0.1241
    110  CA       167.4000  166.4620  120.5310 C.3   440  TYR440      0.1605
    111  C        166.1500  165.6610  120.2340 C.2   440  TYR440      0.2264
    112  O        165.4340  165.2550  121.1510 O.2   440  TYR440     -0.2867
    113  CB       167.0940  167.9490  120.4850 C.3   440  TYR440      0.0534
    114  CG       166.1270  168.3950  121.5390 C.ar  440  TYR440     -0.0201
    115  CD1      166.5380  168.5650  122.8430 C.ar  440  TYR440     -0.0009
    116  CD2      164.8060  168.6560  121.2300 C.ar  440  TYR440     -0.0009
    117  CE1      165.6650  168.9790  123.8120 C.ar  440  TYR440      0.0417
    118  CE2      163.9250  169.0690  122.1940 C.ar  440  TYR440      0.0417
    119  CZ       164.3630  169.2270  123.4810 C.ar  440  TYR440      0.1957
    120  OH       163.4940  169.6390  124.4530 O.3   440  TYR440     -0.2866
@<TRIPOS>BOND
     1   109   110    1
     2   111   110    1
     3   111   112    2
     4   113   110    1
     5   113   114    1
     6   116   114   ar
     7   116   118   ar
     8   114   115   ar
     9   118   119   ar
    10   115   117   ar
    11   119   117   ar
    12   119   120    1
    13   107   106    1
    14    21    19    1
    15    15    16    1
    16   106   108    1
    17   106   105    1
    18   104   103    2
    19    19    16    1
    20    19    20    1
    21    16    17    1
    22   103   102    1
    23   102   105    1
    24   102   101    1
    25    17    18    2
    26    88    87    1
    27    28    27    1
    28    27    29    1
    29    27    26    1
    30    86    85    2
    31    22    23    1
    32    98    96   ar
    33    98   100   ar
    34    96    95   ar
    35    93    92    2
    36    87    84    1
    37    87    89    1
    38    85    84    1
    39    85    90   am
    40    82    81    1
    41   100    99   ar
    42    26    23    1
    43    23    24    1
    44    84    83    1
    45    14    12   ar
    46    14    13   ar
    47    12    10   ar
    48    91    92    1
    49    91    90    1
    50    91    94    1
    51    95    94    1
    52    95    97   ar
    53    81    80    1
    54    99    97   ar
    55    13    11   ar
    56    10     9   ar
    57    10     8   ar
    58    30    24   am
    59    30    31    1
    60    24    25    2
    61     9     7   ar
    62     4     3    2
    63    67    66    1
    64    11     8   ar
    65     8     6   ar
    66    78    77    2
    67    34    31    1
    68    34    35    1
    69    80    79    1
    70    79    76    1
    71     7     6   ar
    72    31    32    1
    73     3     2    1
    74    32    33    2
    75     6     5    1
    76    76    77    1
    77    76    75    1
    78    68    66    1
    79    66    63    1
    80    54    52    1
    81    35    37   ar
    82    35    36   ar
    83     2     5    1
    84     2     1    1
    85    52    51    1
    86    37    39   ar
    87    65    64    2
    88    53    51    1
    89    64    63    1
    90    64    69   am
    91    63    62    1
    92    36    38   ar
    93    51    48    1
    94    70    69    1
    95    70    73    1
    96    70    71    1
    97    39    38   ar
    98    48    49    1
    99    48    47    1
   100    73    74    1
   101    50    49    2
   102    40    41    1
   103    72    71    2
   104    49    55   am
   105    46    44    1
   106    41    44    1
   107    41    42    1
   108    44    45    1
   109    55    56    1
   110    42    43    2
   111    58    57    2
   112    56    57    1
   113    56    59    1
   114    61    59    1
   115    59    60    1
