@<TRIPOS>MOLECULE
tmp/6bwiB00.pdb
 84 79 0 0 0
SMALL
GASTEIGER

@<TRIPOS>ATOM
      1  N        173.7950  155.7780  109.6980 N.3   453  ASP453     -0.1239
      2  CA       173.6870  154.3330  109.4690 C.3   453  ASP453      0.1674
      3  C        173.6440  154.0200  107.9690 C.2   453  ASP453      0.2266
      4  O        172.6200  153.6170  107.4200 O.2   453  ASP453     -0.2867
      5  CB       172.4700  153.7420  110.1920 C.3   453  ASP453      0.1410
      6  CG       172.4900  152.2270  110.2430 C.2   453  ASP453      0.3668
      7  OD1      173.4840  151.6070  109.8190 O.co2 453  ASP453     -0.2456
      8  OD2      171.4860  151.6450  110.6960 O.co2 453  ASP453     -0.2456
      9  N        174.5220  151.7410  106.0340 N.3   455  ALA455     -0.1245
     10  CA       174.0200  150.4660  105.5260 C.3   455  ALA455      0.1562
     11  C        172.5440  150.5400  105.1520 C.2   455  ALA455      0.2260
     12  O        172.0810  149.7920  104.2860 O.2   455  ALA455     -0.2867
     13  CB       174.2460  149.3680  106.5600 C.3   455  ALA455      0.0290
     14  N        174.4770  152.8610   98.9700 N.3   459  HIS459     -0.1241
     15  CA       175.9200  152.6200   98.9670 C.3   459  HIS459      0.1621
     16  C        176.6860  153.3540   97.8710 C.2   459  HIS459      0.2264
     17  O        177.9010  153.5240   97.9590 O.2   459  HIS459     -0.2867
     18  CB       176.2310  151.1220   98.9250 C.3   459  HIS459      0.0745
     19  CG       175.7940  150.3960  100.1510 C.ar  459  HIS459      0.0817
     20  ND1      176.2350  150.7530  101.4130 N.ar  459  HIS459     -0.2268
     21  CD2      174.9910  149.3220  100.2790 C.ar  459  HIS459      0.1154
     22  CE1      175.6860  149.9020  102.2740 C.ar  459  HIS459      0.1986
     23  NE2      174.9310  149.0080  101.6200 N.ar  459  HIS459     -0.2212
     24  N        181.6380  157.2520  105.3420 N.3   483  GLN483     -0.1245
     25  CA       181.6780  156.2170  106.3580 C.3   483  GLN483      0.1566
     26  C        183.0980  155.6900  106.4630 C.2   483  GLN483      0.2260
     27  O        183.7430  155.4170  105.4490 O.2   483  GLN483     -0.2867
     28  CB       180.6640  155.0980  106.0580 C.3   483  GLN483      0.0367
     29  CG       180.8620  154.2190  104.8450 C.3   483  GLN483      0.0905
     30  CD       181.6510  152.9870  105.1930 C.2   483  GLN483      0.2608
     31  OE1      181.6790  152.5800  106.3500 O.2   483  GLN483     -0.2717
     32  NE2      182.2550  152.3560  104.1990 N.am  483  GLN483     -0.0878
     33  N        180.9590  152.7310  111.0980 N.3   486  ASN486     -0.1225
     34  CA       179.6010  152.8970  111.5710 C.3   486  ASN486      0.1785
     35  C        179.1980  151.8190  112.5460 C.2   486  ASN486      0.2597
     36  O        178.0050  151.5670  112.7130 O.2   486  ASN486     -0.2718
     37  CB       178.6180  152.9420  110.4150 C.3   486  ASN486      0.1169
     38  CG       178.6590  154.2470  109.7010 C.2   486  ASN486      0.2627
     39  OD1      178.8560  155.2930  110.3070 O.2   486  ASN486     -0.2716
     40  ND2      178.4410  154.2090  108.4120 N.am  486  ASN486     -0.0877
     41  N        180.1590  151.1610  113.1800 N.am  487  TRP487     -0.1976
     42  CA       179.8340  150.6170  114.4800 C.3   487  TRP487      0.1640
     43  C        179.8770  151.7090  115.5280 C.2   487  TRP487      0.2290
     44  O        179.2790  151.5600  116.5930 O.2   487  TRP487     -0.2864
     45  CB       180.7720  149.4760  114.8590 C.3   487  TRP487      0.0576
     46  CG       182.1980  149.8350  114.9540 C.ar  487  TRP487      0.0006
     47  CD1      182.8490  150.3440  116.0340 C.ar  487  TRP487      0.0946
     48  CD2      183.1760  149.6610  113.9380 C.ar  487  TRP487      0.0152
     49  NE1      184.1730  150.5220  115.7430 N.ar  487  TRP487     -0.2442
     50  CE2      184.4000  150.1070  114.4590 C.ar  487  TRP487      0.0810
     51  CE3      183.1340  149.1790  112.6290 C.ar  487  TRP487      0.0012
     52  CZ2      185.5770  150.0870  113.7150 C.ar  487  TRP487      0.0191
     53  CZ3      184.3010  149.1580  111.8910 C.ar  487  TRP487      0.0001
     54  CH2      185.5070  149.6090  112.4350 C.ar  487  TRP487      0.0015
     55  N        176.3330  153.9520  114.9540 N.3   490  VAL490     -0.1231
     56  CA       175.2450  153.1430  115.4710 C.3   490  VAL490      0.1692
     57  C        175.4420  152.8430  116.9510 C.2   490  VAL490      0.2591
     58  O        174.4810  152.8720  117.7260 O.2   490  VAL490     -0.2718
     59  CB       175.1430  151.8740  114.6180 C.3   490  VAL490      0.0266
     60  CG1      174.1780  150.8930  115.1970 C.3   490  VAL490      0.0020
     61  CG2      174.7180  152.2490  113.2330 C.3   490  VAL490      0.0020
     62  N        176.6810  152.6190  117.3830 N.am  491  LEU491     -0.1980
     63  CA       176.9210  152.2960  118.7840 C.3   491  LEU491      0.1596
     64  C        176.7360  153.5180  119.6690 C.2   491  LEU491      0.2287
     65  O        176.2620  153.4020  120.8040 O.2   491  LEU491     -0.2864
     66  CB       178.3160  151.6960  118.9340 C.3   491  LEU491      0.0297
     67  CG       178.8770  151.0460  120.1950 C.3   491  LEU491      0.0022
     68  CD1      179.5410  152.0380  121.1160 C.3   491  LEU491      0.0001
     69  CD2      177.7690  150.3220  120.9150 C.3   491  LEU491      0.0001
     70  N        173.0320  153.8760  120.0660 N.3   494  VAL494     -0.1245
     71  CA       172.5260  153.0010  121.1150 C.3   494  VAL494      0.1561
     72  C        172.8530  153.5630  122.4920 C.2   494  VAL494      0.2260
     73  O        171.9950  153.5800  123.3830 O.2   494  VAL494     -0.2867
     74  CB       173.0870  151.5850  120.9210 C.3   494  VAL494      0.0252
     75  CG1      172.7430  150.7000  122.0900 C.3   494  VAL494      0.0019
     76  CG2      172.5300  150.9900  119.6560 C.3   494  VAL494      0.0019
     77  N        170.2530  155.0120  125.3110 N.3   498  LEU498     -0.1245
     78  CA       170.2040  154.4240  126.6400 C.3   498  LEU498      0.1561
     79  C        170.4310  155.4680  127.7180 C.2   498  LEU498      0.2260
     80  O        169.9470  155.3040  128.8370 O.2   498  LEU498     -0.2867
     81  CB       171.2160  153.2900  126.7500 C.3   498  LEU498      0.0270
     82  CG       171.1700  152.3500  127.9500 C.3   498  LEU498      0.0019
     83  CD1      171.5350  150.9720  127.4760 C.3   498  LEU498      0.0001
     84  CD2      172.1400  152.7680  129.0360 C.3   498  LEU498      0.0001
@<TRIPOS>BOND
     1    16    17    2
     2    16    15    1
     3    18    15    1
     4    18    19    1
     5    15    14    1
     6    19    21   ar
     7    19    20   ar
     8    21    23   ar
     9    20    22   ar
    10    23    22   ar
    11    32    30   am
    12    12    11    2
    13    29    30    1
    14    29    28    1
    15    11    10    1
    16    30    31    2
    17    24    25    1
    18    27    26    2
    19    10     9    1
    20    10    13    1
    21    28    25    1
    22    25    26    1
    23     4     3    2
    24     3     2    1
    25    40    38   am
    26     2     1    1
    27     2     5    1
    28    38    39    2
    29    38    37    1
    30     7     6   ar
    31     5     6    1
    32     6     8   ar
    33    37    34    1
    34    33    34    1
    35    34    35    1
    36    53    54   ar
    37    53    51   ar
    38    54    52   ar
    39    35    36    2
    40    35    41   am
    41    51    48   ar
    42    41    42    1
    43    61    59    1
    44    52    50   ar
    45    48    50   ar
    46    48    46   ar
    47    50    49   ar
    48    42    45    1
    49    42    43    1
    50    59    60    1
    51    59    56    1
    52    45    46    1
    53    46    47   ar
    54    55    56    1
    55    56    57    1
    56    43    44    2
    57    49    47   ar
    58    57    62   am
    59    57    58    2
    60    62    63    1
    61    63    66    1
    62    63    64    1
    63    66    67    1
    64    76    74    1
    65    64    65    2
    66    70    71    1
    67    67    69    1
    68    67    68    1
    69    74    71    1
    70    74    75    1
    71    71    72    1
    72    72    73    2
    73    77    78    1
    74    78    81    1
    75    78    79    1
    76    81    82    1
    77    83    82    1
    78    79    80    2
    79    82    84    1
