@<TRIPOS>MOLECULE
tmp/6bwiB05.pdb
 99 94 0 0 0
SMALL
GASTEIGER

@<TRIPOS>ATOM
      1  N        157.3290  191.7490  142.4770 N.3   331  ASP331     -0.1225
      2  CA       156.8300  190.3910  142.3220 C.3   331  ASP331      0.1805
      3  C        157.2840  189.8210  140.9890 C.2   331  ASP331      0.2598
      4  O        157.0950  190.4380  139.9380 O.2   331  ASP331     -0.2718
      5  CB       155.3070  190.3720  142.4090 C.3   331  ASP331      0.1424
      6  CG       154.7160  189.0030  142.6530 C.2   331  ASP331      0.3668
      7  OD1      155.4160  188.0200  142.8410 O.co2 331  ASP331     -0.2456
      8  OD2      153.4950  188.9080  142.7940 O.co2 331  ASP331     -0.2456
      9  N        157.8980  188.6370  141.0420 N.am  332  SER332     -0.1938
     10  CA       158.5230  188.0490  139.8640 C.3   332  SER332      0.2055
     11  C        157.5190  187.6320  138.8070 C.2   332  SER332      0.2643
     12  O        157.8960  187.5080  137.6390 O.2   332  SER332     -0.2714
     13  CB       159.3700  186.8400  140.2530 C.3   332  SER332      0.2130
     14  OG       158.5550  185.7770  140.7090 O.3   332  SER332     -0.2179
     15  N        156.2630  187.4140  139.1740 N.am  333  TRP333     -0.1973
     16  CA       155.2890  187.1470  138.1330 C.3   333  TRP333      0.1640
     17  C        154.8670  188.4210  137.4210 C.2   333  TRP333      0.2290
     18  O        154.7300  188.4370  136.1980 O.2   333  TRP333     -0.2864
     19  CB       154.0430  186.4640  138.6920 C.3   333  TRP333      0.0576
     20  CG       153.1590  186.0870  137.5760 C.ar  333  TRP333      0.0006
     21  CD1      152.0840  186.7770  137.1090 C.ar  333  TRP333      0.0946
     22  CD2      153.2960  184.9400  136.7420 C.ar  333  TRP333      0.0152
     23  NE1      151.5510  186.1340  136.0300 N.ar  333  TRP333     -0.2442
     24  CE2      152.2730  184.9960  135.7890 C.ar  333  TRP333      0.0810
     25  CE3      154.1860  183.8680  136.7110 C.ar  333  TRP333      0.0012
     26  CZ2      152.1020  184.0170  134.8250 C.ar  333  TRP333      0.0191
     27  CZ3      154.0210  182.9040  135.7520 C.ar  333  TRP333      0.0001
     28  CH2      152.9860  182.9820  134.8220 C.ar  333  TRP333      0.0015
     29  N        156.2750  190.1950  134.2880 N.3   336  CYS336     -0.1235
     30  CA       156.1140  189.5180  133.0080 C.3   336  CYS336      0.1677
     31  C        154.9330  190.0670  132.2250 C.2   336  CYS336      0.2270
     32  O        154.9060  189.9470  130.9980 O.2   336  CYS336     -0.2867
     33  CB       155.9550  188.0150  133.2330 C.3   336  CYS336      0.0956
     34  SG       155.8970  187.0000  131.7500 S.3   336  CYS336     -0.0801
     35  N        154.6690  185.7080  120.0020 N.3   366  ILE366     -0.1245
     36  CA       155.2860  185.4430  121.2960 C.3   366  ILE366      0.1561
     37  C        154.5250  186.1500  122.4180 C.2   366  ILE366      0.2260
     38  O        154.3520  185.5940  123.5160 O.2   366  ILE366     -0.2867
     39  CB       156.7640  185.8440  121.2330 C.3   366  ILE366      0.0252
     40  CG1      157.4550  185.0240  120.1600 C.3   366  ILE366      0.0019
     41  CG2      157.4480  185.5950  122.5410 C.3   366  ILE366      0.0019
     42  CD1      158.8530  185.4680  119.8920 C.3   366  ILE366      0.0001
     43  N        151.7020  183.9850  123.3480 N.3   369  MET369     -0.1230
     44  CA       152.1380  182.9750  124.3060 C.3   369  MET369      0.1702
     45  C        152.1660  183.5200  125.7240 C.2   369  MET369      0.2592
     46  O        151.6470  182.8760  126.6400 O.2   369  MET369     -0.2718
     47  CB       153.5080  182.4280  123.9420 C.3   369  MET369      0.0401
     48  CG       153.5030  181.5270  122.7770 C.3   369  MET369      0.0596
     49  SD       155.1540  180.9130  122.5180 S.3   369  MET369     -0.1393
     50  CE       155.3190  179.7850  123.8950 C.3   369  MET369      0.0692
     51  N        152.7480  184.7050  125.9230 N.am  370  VAL370     -0.1980
     52  CA       152.8380  185.2590  127.2720 C.3   370  VAL370      0.1595
     53  C        151.4500  185.5910  127.8140 C.2   370  VAL370      0.2287
     54  O        151.1510  185.3590  128.9970 O.2   370  VAL370     -0.2864
     55  CB       153.7610  186.4840  127.2630 C.3   370  VAL370      0.0276
     56  CG1      153.8970  187.0490  128.6410 C.3   370  VAL370      0.0022
     57  CG2      155.1110  186.1010  126.7340 C.3   370  VAL370      0.0022
     58  N        149.9290  182.3300  128.9390 N.3   373  VAL373     -0.1245
     59  CA       150.5590  181.8270  130.1520 C.3   373  VAL373      0.1561
     60  C        150.1120  182.6520  131.3610 C.2   373  VAL373      0.2260
     61  O        150.1140  182.1500  132.4900 O.2   373  VAL373     -0.2867
     62  CB       152.0900  181.7710  129.9360 C.3   373  VAL373      0.0252
     63  CG1      152.8760  181.4280  131.1890 C.3   373  VAL373      0.0019
     64  CG2      152.4070  180.7100  128.9080 C.3   373  VAL373      0.0019
     65  N        155.7120  175.5150  139.5700 N.3   393  SER393     -0.1202
     66  CA       156.8240  176.4540  139.5490 C.3   393  SER393      0.2020
     67  C        157.9200  176.0830  140.5360 C.2   393  SER393      0.2618
     68  O        159.0660  176.4910  140.3430 O.2   393  SER393     -0.2717
     69  CB       156.3330  177.8660  139.8470 C.3   393  SER393      0.2103
     70  OG       155.9090  177.9770  141.1910 O.3   393  SER393     -0.2182
     71  N        157.6080  175.3230  141.5780 N.am  394  LYS394     -0.1979
     72  CA       158.6160  174.9260  142.5500 C.3   394  LYS394      0.1596
     73  C        159.4820  173.7740  142.0670 C.2   394  LYS394      0.2287
     74  O        160.4660  173.4400  142.7310 O.2   394  LYS394     -0.2864
     75  CB       157.9620  174.5210  143.8670 C.3   394  LYS394      0.0298
     76  CG       157.1240  175.5680  144.5740 C.3   394  LYS394      0.0038
     77  CD       157.9680  176.6560  145.1930 C.3   394  LYS394      0.0206
     78  CE       157.1270  177.5580  146.0780 C.3   394  LYS394      0.1093
     79  NZ       156.1920  178.4050  145.2890 N.3   394  LYS394     -0.1314
     80  N        160.7870  173.4580  138.7890 N.3   396  MET396     -0.1245
     81  CA       161.5510  173.7540  137.5850 C.3   396  MET396      0.1570
     82  C        163.0490  173.5880  137.7820 C.2   396  MET396      0.2261
     83  O        163.7780  173.5210  136.7890 O.2   396  MET396     -0.2867
     84  CB       161.2540  175.1740  137.1030 C.3   396  MET396      0.0387
     85  CG       159.7810  175.4860  136.9950 C.3   396  MET396      0.0595
     86  SD       159.1470  174.8490  135.4550 S.3   396  MET396     -0.1393
     87  CE       160.0280  176.0290  134.4010 C.3   396  MET396      0.0692
     88  N        151.8260  177.4170  151.9050 N.3   526  TYR526     -0.1241
     89  CA       152.1630  178.7700  151.4660 C.3   526  TYR526      0.1605
     90  C        151.1390  179.3160  150.4770 C.2   526  TYR526      0.2264
     91  O        150.8980  180.5310  150.4350 O.2   526  TYR526     -0.2867
     92  CB       153.5590  178.7960  150.8540 C.3   526  TYR526      0.0534
     93  CG       153.8960  180.0740  150.1230 C.ar  526  TYR526     -0.0201
     94  CD1      153.7530  181.3100  150.7370 C.ar  526  TYR526     -0.0009
     95  CD2      154.3570  180.0300  148.8130 C.ar  526  TYR526     -0.0009
     96  CE1      154.0610  182.4800  150.0670 C.ar  526  TYR526      0.0417
     97  CE2      154.6680  181.1950  148.1370 C.ar  526  TYR526      0.0417
     98  CZ       154.5180  182.4110  148.7680 C.ar  526  TYR526      0.1957
     99  OH       154.8280  183.5700  148.0920 O.3   526  TYR526     -0.2866
@<TRIPOS>BOND
     1    42    40    1
     2    35    36    1
     3    40    39    1
     4    39    36    1
     5    39    41    1
     6    36    37    1
     7    37    38    2
     8    49    48    1
     9    49    50    1
    10    48    47    1
    11    43    44    1
    12    47    44    1
    13    44    45    1
    14    45    51   am
    15    45    46    2
    16    51    52    1
    17    57    55    1
    18    55    52    1
    19    55    56    1
    20    52    53    1
    21    53    54    2
    22    64    62    1
    23    58    59    1
    24    62    59    1
    25    62    63    1
    26    59    60    1
    27    32    31    2
    28    60    61    2
    29    34    33    1
    30    31    30    1
    31    30    33    1
    32    30    29    1
    33    87    86    1
    34    28    26   ar
    35    28    27   ar
    36    26    24   ar
    37    86    85    1
    38    27    25   ar
    39    24    23   ar
    40    24    22   ar
    41    23    21   ar
    42    18    17    2
    43    25    22   ar
    44    22    20   ar
    45    83    82    2
    46    85    84    1
    47    84    81    1
    48    21    20   ar
    49    17    16    1
    50    20    19    1
    51    81    82    1
    52    81    80    1
    53    12    11    2
    54    16    19    1
    55    16    15    1
    56    11    15   am
    57    11    10    1
    58    66    65    1
    59    66    69    1
    60    66    67    1
    61    69    70    1
    62    10    13    1
    63    10     9    1
    64     4     3    2
    65    13    14    1
    66    68    67    2
    67    67    71   am
    68     3     9   am
    69     3     2    1
    70    71    72    1
    71    73    72    1
    72    73    74    2
    73     2     5    1
    74     2     1    1
    75     5     6    1
    76    72    75    1
    77     6     8   ar
    78     6     7   ar
    79    75    76    1
    80    76    77    1
    81    77    78    1
    82    79    78    1
    83    99    98    1
    84    97    98   ar
    85    97    95   ar
    86    98    96   ar
    87    95    93   ar
    88    96    94   ar
    89    93    94   ar
    90    93    92    1
    91    91    90    2
    92    90    89    1
    93    92    89    1
    94    89    88    1
