@<TRIPOS>MOLECULE
tmp/6bwjB00.pdb
 187 176 0 0 0
SMALL
GASTEIGER

@<TRIPOS>ATOM
      1  N        -42.4340  -30.0900    7.1310 N.3   385  PHE385     -0.1241
      2  CA       -41.5270  -28.9480    7.2520 C.3   385  PHE385      0.1605
      3  C        -42.3020  -27.6360    7.3250 C.2   385  PHE385      0.2264
      4  O        -42.0380  -26.7920    8.1900 O.2   385  PHE385     -0.2867
      5  CB       -40.5470  -28.9350    6.0720 C.3   385  PHE385      0.0534
      6  CG       -39.5110  -27.8410    6.1430 C.ar  385  PHE385     -0.0203
      7  CD1      -38.1780  -28.1410    6.3640 C.ar  385  PHE385     -0.0042
      8  CD2      -39.8720  -26.5160    5.9800 C.ar  385  PHE385     -0.0042
      9  CE1      -37.2310  -27.1330    6.4250 C.ar  385  PHE385     -0.0003
     10  CE2      -38.9380  -25.5170    6.0460 C.ar  385  PHE385     -0.0003
     11  CZ       -37.6170  -25.8210    6.2650 C.ar  385  PHE385     -0.0000
     12  N        -41.9750  -25.5270   11.2480 N.3   389  TYR389     -0.1227
     13  CA       -40.6210  -25.0690   10.9500 C.3   389  TYR389      0.1736
     14  C        -39.7810  -24.9950   12.2170 C.2   389  TYR389      0.2596
     15  O        -38.6130  -25.3970   12.2230 O.2   389  TYR389     -0.2718
     16  CB       -40.6840  -23.7030   10.2660 C.3   389  TYR389      0.0548
     17  CG       -39.3860  -22.9200   10.2520 C.ar  389  TYR389     -0.0200
     18  CD1      -38.5020  -23.0100    9.1830 C.ar  389  TYR389     -0.0009
     19  CD2      -39.0630  -22.0610   11.2940 C.ar  389  TYR389     -0.0009
     20  CE1      -37.3250  -22.2840    9.1660 C.ar  389  TYR389      0.0417
     21  CE2      -37.8900  -21.3340   11.2860 C.ar  389  TYR389      0.0417
     22  CZ       -37.0260  -21.4480   10.2190 C.ar  389  TYR389      0.1957
     23  OH       -35.8570  -20.7220   10.2080 O.3   389  TYR389     -0.2866
     24  N        -40.3650  -24.4880   13.3030 N.am  390  SER390     -0.1952
     25  CA       -39.6170  -24.3310   14.5450 C.3   390  SER390      0.1924
     26  C        -39.1750  -25.6830   15.0910 C.2   390  SER390      0.2314
     27  O        -38.0460  -25.8290   15.5710 O.2   390  SER390     -0.2863
     28  CB       -40.4700  -23.5880   15.5750 C.3   390  SER390      0.2116
     29  OG       -41.6850  -24.2730   15.8230 O.3   390  SER390     -0.2180
     30  N        -38.4080  -28.4190   13.5870 N.3   392  ILE392     -0.1231
     31  CA       -37.3290  -29.0670   12.8380 C.3   392  ILE392      0.1692
     32  C        -35.9680  -28.6080   13.3460 C.2   392  ILE392      0.2592
     33  O        -35.0640  -29.4220   13.5750 O.2   392  ILE392     -0.2718
     34  CB       -37.4700  -28.7890   11.3290 C.3   392  ILE392      0.0266
     35  CG1      -38.8670  -29.1460   10.8190 C.3   392  ILE392      0.0019
     36  CG2      -36.4230  -29.5650   10.5440 C.3   392  ILE392      0.0020
     37  CD1      -39.3810  -30.4760   11.2960 C.3   392  ILE392      0.0001
     38  N        -35.7960  -27.2970   13.5170 N.am  393  LEU393     -0.1966
     39  CA       -34.4890  -26.7650   13.8870 C.3   393  LEU393      0.1728
     40  C        -33.9960  -27.3460   15.2060 C.2   393  LEU393      0.2616
     41  O        -32.8030  -27.6380   15.3530 O.2   393  LEU393     -0.2715
     42  CB       -34.5410  -25.2390   13.9470 C.3   393  LEU393      0.0311
     43  CG       -34.4180  -24.5360   12.5910 C.3   393  LEU393      0.0022
     44  CD1      -35.4810  -25.0000   11.6010 C.3   393  LEU393      0.0001
     45  CD2      -34.4800  -23.0310   12.7690 C.3   393  LEU393      0.0001
     46  N        -34.8890  -27.5180   16.1820 N.am  394  PHE394     -0.1974
     47  CA       -34.4730  -28.1120   17.4490 C.3   394  PHE394      0.1639
     48  C        -33.9440  -29.5270   17.2460 C.2   394  PHE394      0.2290
     49  O        -32.9350  -29.9130   17.8480 O.2   394  PHE394     -0.2864
     50  CB       -35.6440  -28.1140   18.4380 C.3   394  PHE394      0.0560
     51  CG       -35.7560  -26.8620   19.2720 C.ar  394  PHE394     -0.0200
     52  CD1      -34.6280  -26.1860   19.7160 C.ar  394  PHE394     -0.0042
     53  CD2      -37.0040  -26.3660   19.6180 C.ar  394  PHE394     -0.0042
     54  CE1      -34.7430  -25.0430   20.4790 C.ar  394  PHE394     -0.0003
     55  CE2      -37.1250  -25.2240   20.3820 C.ar  394  PHE394     -0.0003
     56  CZ       -35.9920  -24.5600   20.8140 C.ar  394  PHE394     -0.0000
     57  N        -32.6180  -30.8010   14.4430 N.3   396  LEU396     -0.1245
     58  CA       -31.3300  -30.6900   13.7690 C.3   396  LEU396      0.1561
     59  C        -30.2380  -30.2730   14.7490 C.2   396  LEU396      0.2260
     60  O        -29.1420  -30.8460   14.7560 O.2   396  LEU396     -0.2867
     61  CB       -31.4480  -29.7080   12.6040 C.3   396  LEU396      0.0270
     62  CG       -30.1600  -29.2770   11.8990 C.3   396  LEU396      0.0019
     63  CD1      -29.2690  -30.4600   11.5460 C.3   396  LEU396      0.0001
     64  CD2      -30.4950  -28.4640   10.6580 C.3   396  LEU396      0.0001
     65  N        -21.2100  -25.1410   14.5560 N.3   421  SER421     -0.1217
     66  CA       -22.4620  -25.0750   13.8120 C.3   421  SER421      0.1889
     67  C        -23.6530  -25.2870   14.7340 C.2   421  SER421      0.2288
     68  O        -24.6670  -24.5880   14.6260 O.2   421  SER421     -0.2866
     69  CB       -22.4570  -26.1140   12.6930 C.3   421  SER421      0.2089
     70  OG       -23.7040  -26.1420   12.0260 O.3   421  SER421     -0.2183
     71  N        -23.9460  -21.9360   17.0270 N.3   424  VAL424     -0.1231
     72  CA       -24.5920  -20.8150   16.3520 C.3   424  VAL424      0.1692
     73  C        -26.0760  -21.0800   16.1550 C.2   424  VAL424      0.2591
     74  O        -26.9170  -20.2170   16.4280 O.2   424  VAL424     -0.2718
     75  CB       -23.9140  -20.5540   15.0090 C.3   424  VAL424      0.0266
     76  CG1      -24.5640  -19.3950   14.2620 C.3   424  VAL424      0.0020
     77  CG2      -22.4470  -20.1980   15.2640 C.3   424  VAL424      0.0020
     78  N        -26.4170  -22.2800   15.6870 N.am  425  MET425     -0.1979
     79  CA       -27.8170  -22.6290   15.4830 C.3   425  MET425      0.1605
     80  C        -28.5860  -22.6270   16.7980 C.2   425  MET425      0.2287
     81  O        -29.7390  -22.1850   16.8490 O.2   425  MET425     -0.2864
     82  CB       -27.9090  -23.9900   14.8050 C.3   425  MET425      0.0413
     83  CG       -29.1680  -24.1900   13.9920 C.3   425  MET425      0.0598
     84  SD       -29.0120  -25.6560   12.9520 S.3   425  MET425     -0.1393
     85  CE       -28.7210  -26.8770   14.2120 C.3   425  MET425      0.0692
     86  N        -29.4640  -19.0530   17.6740 N.3   428  THR428     -0.1203
     87  CA       -30.4980  -18.5560   16.7700 C.3   428  THR428      0.1994
     88  C        -31.8490  -19.1790   17.0970 C.2   428  THR428      0.2617
     89  O        -32.8810  -18.4990   17.0650 O.2   428  THR428     -0.2717
     90  CB       -30.1200  -18.8410   15.3150 C.3   428  THR428      0.1784
     91  OG1      -29.9460  -20.2500   15.1340 O.3   428  THR428     -0.2211
     92  CG2      -28.8290  -18.1340   14.9470 C.3   428  THR428      0.0376
     93  N        -31.8630  -20.4750   17.4180 N.am  429  ASN429     -0.1974
     94  CA       -33.1010  -21.1350   17.8100 C.3   429  ASN429      0.1688
     95  C        -33.7570  -20.4570   19.0030 C.2   429  ASN429      0.2292
     96  O        -34.9550  -20.6530   19.2320 O.2   429  ASN429     -0.2864
     97  CB       -32.8380  -22.6060   18.1350 C.3   429  ASN429      0.1181
     98  CG       -32.5700  -23.4390   16.8990 C.2   429  ASN429      0.2629
     99  OD1      -32.8480  -23.0150   15.7760 O.2   429  ASN429     -0.2716
    100  ND2      -32.0300  -24.6350   17.0990 N.am  429  ASN429     -0.0877
    101  N        -34.8260  -17.6970   19.2440 N.3   431  LEU431     -0.1231
    102  CA       -35.9890  -16.9570   18.7710 C.3   431  LEU431      0.1693
    103  C        -37.2790  -17.7360   18.9740 C.2   431  LEU431      0.2592
    104  O        -38.3590  -17.1380   18.9530 O.2   431  LEU431     -0.2718
    105  CB       -35.8290  -16.6040   17.2880 C.3   431  LEU431      0.0284
    106  CG       -34.7720  -15.5600   16.9010 C.3   431  LEU431      0.0019
    107  CD1      -34.9370  -15.1620   15.4430 C.3   431  LEU431      0.0001
    108  CD2      -34.8210  -14.3220   17.7900 C.3   431  LEU431      0.0001
    109  N        -37.1950  -19.0540   19.1670 N.am  432  TYR432     -0.1976
    110  CA       -38.3920  -19.8420   19.4350 C.3   432  TYR432      0.1639
    111  C        -39.2220  -19.2110   20.5430 C.2   432  TYR432      0.2290
    112  O        -40.4290  -18.9960   20.3880 O.2   432  TYR432     -0.2864
    113  CB       -38.0040  -21.2740   19.8160 C.3   432  TYR432      0.0560
    114  CG       -39.1540  -22.0760   20.3870 C.ar  432  TYR432     -0.0198
    115  CD1      -39.9890  -22.8220   19.5640 C.ar  432  TYR432     -0.0009
    116  CD2      -39.4060  -22.0850   21.7530 C.ar  432  TYR432     -0.0009
    117  CE1      -41.0440  -23.5480   20.0860 C.ar  432  TYR432      0.0417
    118  CE2      -40.4550  -22.8060   22.2810 C.ar  432  TYR432      0.0417
    119  CZ       -41.2710  -23.5370   21.4450 C.ar  432  TYR432      0.1957
    120  OH       -42.3190  -24.2620   21.9680 O.3   432  TYR432     -0.2866
    121  N        -42.2910  -16.2940   20.9950 N.3   435  ARG435     -0.1245
    122  CA       -43.7360  -16.4330   20.8560 C.3   435  ARG435      0.1563
    123  C        -44.4810  -16.0790   22.1360 C.2   435  ARG435      0.2260
    124  O        -45.7080  -15.9320   22.0940 O.2   435  ARG435     -0.2867
    125  CB       -44.1000  -17.8550   20.4140 C.3   435  ARG435      0.0307
    126  CG       -43.5710  -18.9510   21.3130 C.3   435  ARG435      0.0489
    127  CD       -44.0330  -20.3410   20.8580 C.3   435  ARG435      0.2205
    128  NE       -43.9420  -20.5520   19.4120 N.pl3 435  ARG435     -0.0865
    129  CZ       -42.8050  -20.5890   18.7240 C.cat 435  ARG435      0.5346
    130  NH1      -41.6470  -20.4130   19.3360 N.pl3 435  ARG435      0.1354
    131  NH2      -42.8200  -20.7960   17.4150 N.pl3 435  ARG435      0.1354
    132  N        -41.1930  -12.9350   14.6290 N.3   444  SER444     -0.1217
    133  CA       -40.5910  -14.2430   14.4030 C.3   444  SER444      0.1889
    134  C        -41.3630  -15.0500   13.3640 C.2   444  SER444      0.2288
    135  O        -40.7680  -15.8590   12.6430 O.2   444  SER444     -0.2866
    136  CB       -40.5140  -15.0100   15.7220 C.3   444  SER444      0.2089
    137  OG       -40.1100  -16.3480   15.5050 O.3   444  SER444     -0.2183
    138  N        -40.2680  -13.6490    9.9520 N.3   447  ILE447     -0.1231
    139  CA       -38.9460  -14.2050    9.6600 C.3   447  ILE447      0.1692
    140  C        -39.1040  -15.5770    9.0190 C.2   447  ILE447      0.2591
    141  O        -38.6270  -15.8330    7.9070 O.2   447  ILE447     -0.2718
    142  CB       -38.1030  -14.2980   10.9450 C.3   447  ILE447      0.0266
    143  CG1      -37.7020  -12.9020   11.4330 C.3   447  ILE447      0.0019
    144  CG2      -36.8570  -15.1810   10.7170 C.3   447  ILE447      0.0020
    145  CD1      -36.9090  -12.9120   12.7310 C.3   447  ILE447      0.0001
    146  N        -39.7760  -16.4790    9.7330 N.am  448  GLU448     -0.1979
    147  CA       -40.0290  -17.8250    9.2320 C.3   448  GLU448      0.1602
    148  C        -40.6530  -17.7910    7.8430 C.2   448  GLU448      0.2287
    149  O        -40.2310  -18.5220    6.9400 O.2   448  GLU448     -0.2864
    150  CB       -40.9360  -18.5920   10.1970 C.3   448  GLU448      0.0415
    151  CG       -41.1960  -20.0340    9.7910 C.3   448  GLU448      0.1163
    152  CD       -42.0580  -20.7740   10.7960 C.2   448  GLU448      0.3649
    153  OE1      -42.4830  -20.1500   11.7900 O.co2 448  GLU448     -0.2457
    154  OE2      -42.3080  -21.9810   10.5930 O.co2 448  GLU448     -0.2457
    155  N        -37.9970  -16.0860    5.2110 N.3   451  ILE451     -0.1245
    156  CA       -36.8760  -16.9880    4.9620 C.3   451  ILE451      0.1561
    157  C        -37.3380  -18.1960    4.1640 C.2   451  ILE451      0.2260
    158  O        -36.6550  -18.6510    3.2380 O.2   451  ILE451     -0.2867
    159  CB       -36.2160  -17.4070    6.2910 C.3   451  ILE451      0.0252
    160  CG1      -35.4870  -16.2100    6.9060 C.3   451  ILE451      0.0019
    161  CG2      -35.2610  -18.5980    6.0810 C.3   451  ILE451      0.0019
    162  CD1      -34.7630  -16.4990    8.2120 C.3   451  ILE451      0.0001
    163  N        -37.4460  -16.3170    0.2030 N.3   455  LEU455     -0.1245
    164  CA       -36.0140  -16.1670   -0.0440 C.3   455  LEU455      0.1561
    165  C        -35.5200  -17.1500   -1.1000 C.2   455  LEU455      0.2260
    166  O        -34.6360  -16.8150   -1.8970 O.2   455  LEU455     -0.2867
    167  CB       -35.2400  -16.3480    1.2630 C.3   455  LEU455      0.0270
    168  CG       -33.7120  -16.2420    1.2030 C.3   455  LEU455      0.0019
    169  CD1      -33.2670  -14.8290    0.8680 C.3   455  LEU455      0.0001
    170  CD2      -33.1080  -16.6890    2.5240 C.3   455  LEU455      0.0001
    171  N        -33.1690  -15.8300   -4.2430 N.3   459  LEU459     -0.1245
    172  CA       -31.7850  -16.2790   -4.2770 C.3   459  LEU459      0.1561
    173  C        -31.5040  -17.0960   -5.5280 C.2   459  LEU459      0.2260
    174  O        -30.4560  -16.9320   -6.1640 O.2   459  LEU459     -0.2867
    175  CB       -31.4690  -17.0900   -3.0190 C.3   459  LEU459      0.0270
    176  CG       -30.0440  -17.0030   -2.4680 C.3   459  LEU459      0.0019
    177  CD1      -29.6520  -15.5690   -2.1180 C.3   459  LEU459      0.0001
    178  CD2      -29.9070  -17.9000   -1.2440 C.3   459  LEU459      0.0001
    179  N        -49.3720  -21.0500   17.0320 N.3   551  GLN551     -0.1245
    180  CA       -48.0830  -21.4080   17.6160 C.3   551  GLN551      0.1566
    181  C        -48.1820  -21.5080   19.1340 C.2   551  GLN551      0.2260
    182  O        -47.6570  -22.4480   19.7440 O.2   551  GLN551     -0.2867
    183  CB       -47.0280  -20.3810   17.2090 C.3   551  GLN551      0.0367
    184  CG       -46.6050  -20.4740   15.7570 C.3   551  GLN551      0.0905
    185  CD       -45.4670  -19.5310   15.4200 C.2   551  GLN551      0.2608
    186  OE1      -45.1640  -18.6080   16.1760 O.2   551  GLN551     -0.2717
    187  NE2      -44.8280  -19.7610   14.2800 N.am  551  GLN551     -0.0878
@<TRIPOS>BOND
     1   174   173    2
     2   173   172    1
     3   172   171    1
     4   172   175    1
     5   175   176    1
     6   176   177    1
     7   176   178    1
     8   166   165    2
     9   165   164    1
    10   164   163    1
    11   164   167    1
    12   169   168    1
    13   168   167    1
    14   168   170    1
    15   158   157    2
    16   157   156    1
    17   156   155    1
    18   156   159    1
    19     8    10   ar
    20     8     6   ar
    21    10    11   ar
    22     5     6    1
    23     5     2    1
    24   161   159    1
    25     6     7   ar
    26    11     9   ar
    27   159   160    1
    28     7     9   ar
    29   160   162    1
    30   149   148    2
    31     1     2    1
    32     2     3    1
    33     3     4    2
    34   148   147    1
    35   141   140    2
    36   140   139    1
    37   140   146   am
    38    20    18   ar
    39    20    22   ar
    40    18    17   ar
    41   147   146    1
    42   147   150    1
    43   139   138    1
    44   139   142    1
    45   151   150    1
    46   151   152    1
    47    23    22    1
    48    22    21   ar
    49    17    16    1
    50    17    19   ar
    51    16    13    1
    52    36    34    1
    53   154   152   ar
    54    64    62    1
    55   144   142    1
    56   152   153   ar
    57    35    37    1
    58    35    34    1
    59   142   143    1
    60    13    12    1
    61    13    14    1
    62    21    19   ar
    63    34    31    1
    64   143   145    1
    65    63    62    1
    66    44    43    1
    67    62    61    1
    68    70    69    1
    69    14    15    2
    70    14    24   am
    71    43    45    1
    72    43    42    1
    73    61    58    1
    74   135   134    2
    75    69    66    1
    76    31    32    1
    77    31    30    1
    78    84    83    1
    79    84    85    1
    80    24    25    1
    81    32    38   am
    82    32    33    2
    83   134   133    1
    84    38    39    1
    85    58    57    1
    86    58    59    1
    87    66    65    1
    88    66    67    1
    89    39    42    1
    90    39    40    1
    91    83    82    1
    92    76    75    1
    93   187   185   am
    94   133   132    1
    95   133   136    1
    96    25    26    1
    97    25    28    1
    98    68    67    2
    99    59    60    2
   100    82    79    1
   101    92    90    1
   102    75    77    1
   103    75    72    1
   104    26    27    2
   105    91    90    1
   106    40    41    2
   107    40    46   am
   108    90    87    1
   109   185   184    1
   110   185   186    2
   111   107   106    1
   112    79    78    1
   113    79    80    1
   114   137   136    1
   115    28    29    1
   116    78    73   am
   117   184   183    1
   118    99    98    2
   119    73    72    1
   120    73    74    2
   121    46    47    1
   122    72    71    1
   123    87    88    1
   124    87    86    1
   125    80    81    2
   126    98   100   am
   127    98    97    1
   128   106   105    1
   129   106   108    1
   130   179   180    1
   131    89    88    2
   132    88    93   am
   133   183   180    1
   134    48    47    1
   135    48    49    2
   136   105   102    1
   137   131   129    1
   138    93    94    1
   139    47    50    1
   140   180   181    1
   141    94    97    1
   142    94    95    1
   143    50    51    1
   144   129   130    1
   145   129   128    2
   146   102   103    1
   147   102   101    1
   148   104   103    2
   149   103   109   am
   150    95    96    2
   151   181   182    2
   152   109   110    1
   153    51    53   ar
   154    51    52   ar
   155   128   127    1
   156   110   113    1
   157   110   111    1
   158   115   117   ar
   159   115   114   ar
   160    53    55   ar
   161    52    54   ar
   162   113   114    1
   163   117   119   ar
   164    55    56   ar
   165   114   116   ar
   166   112   111    2
   167   125   122    1
   168   125   126    1
   169    54    56   ar
   170   122   121    1
   171   122   123    1
   172   127   126    1
   173   119   120    1
   174   119   118   ar
   175   116   118   ar
   176   124   123    2
