@<TRIPOS>MOLECULE
tmp/6bwlA01.pdb
 162 153 0 0 0
SMALL
GASTEIGER

@<TRIPOS>ATOM
      1  N        -33.8080   -7.5270   13.5200 N.3    83  ILE83      -0.1245
      2  CA       -32.4000   -7.6950   13.8280 C.3    83  ILE83       0.1561
      3  C        -31.8770   -9.1030   13.6260 C.2    83  ILE83       0.2260
      4  O        -30.6930   -9.3260   13.8370 O.2    83  ILE83      -0.2867
      5  CB       -32.0820   -7.2370   15.2780 C.3    83  ILE83       0.0252
      6  CG1      -32.7450   -8.1550   16.3050 C.3    83  ILE83       0.0019
      7  CG2      -32.5380   -5.7920   15.4890 C.3    83  ILE83       0.0019
      8  CD1      -32.1880   -8.0380   17.7150 C.3    83  ILE83       0.0001
      9  N        -30.6590  -12.3710   11.7780 N.3    85  VAL85      -0.1245
     10  CA       -30.1320  -12.8190   10.5020 C.3    85  VAL85       0.1561
     11  C        -30.9620  -13.9670    9.9300 C.2    85  VAL85       0.2260
     12  O        -31.3160  -13.9610    8.7560 O.2    85  VAL85      -0.2867
     13  CB       -28.6420  -13.1700   10.6010 C.3    85  VAL85       0.0252
     14  CG1      -28.0990  -13.8930    9.3690 C.3    85  VAL85       0.0019
     15  CG2      -27.8030  -11.9210   10.8480 C.3    85  VAL85       0.0019
     16  N        -22.1580   -6.0280   10.9570 N.3   124  MET124     -0.1245
     17  CA       -22.4000   -7.1880   10.1080 C.3   124  MET124      0.1570
     18  C        -22.2600   -6.8290    8.6320 C.2   124  MET124      0.2261
     19  O        -22.0460   -7.7000    7.7890 O.2   124  MET124     -0.2867
     20  CB       -23.7890   -7.7700   10.3780 C.3   124  MET124      0.0387
     21  CG       -23.9970   -8.2380   11.8090 C.3   124  MET124      0.0595
     22  SD       -22.8450   -9.5390   12.2900 S.3   124  MET124     -0.1393
     23  CE       -23.5700  -10.9550   11.4680 C.3   124  MET124      0.0692
     24  N        -30.5880   -9.2000    6.0670 N.3   147  TYR147     -0.1241
     25  CA       -30.4080   -8.2210    7.1500 C.3   147  TYR147      0.1605
     26  C        -29.2590   -7.2630    6.8380 C.2   147  TYR147      0.2264
     27  O        -29.4370   -6.0330    6.8930 O.2   147  TYR147     -0.2867
     28  CB       -30.1730   -8.9310    8.4930 C.3   147  TYR147      0.0534
     29  CG       -29.7460   -8.0310    9.6210 C.ar  147  TYR147     -0.0201
     30  CD1      -28.5040   -8.1580   10.1820 C.ar  147  TYR147     -0.0009
     31  CD2      -30.6210   -7.1010   10.1560 C.ar  147  TYR147     -0.0009
     32  CE1      -28.1240   -7.3460   11.2380 C.ar  147  TYR147      0.0417
     33  CE2      -30.2760   -6.3020   11.2090 C.ar  147  TYR147      0.0417
     34  CZ       -29.0150   -6.4260   11.7360 C.ar  147  TYR147      0.1957
     35  OH       -28.6220   -5.6530   12.8190 O.3   147  TYR147     -0.2866
     36  N        -21.2720   -6.4300   17.7980 N.3   176  ASN176     -0.1240
     37  CA       -22.1780   -7.2310   18.6050 C.3   176  ASN176      0.1653
     38  C        -22.1970   -6.7420   20.0410 C.2   176  ASN176      0.2266
     39  O        -21.1670   -6.6700   20.6820 O.2   176  ASN176     -0.2867
     40  CB       -21.7400   -8.7090   18.6050 C.3   176  ASN176      0.1155
     41  CG       -21.8720   -9.3600   17.2580 C.2   176  ASN176      0.2627
     42  OD1      -21.2270   -8.9430   16.3100 O.2   176  ASN176     -0.2716
     43  ND2      -22.7230  -10.3750   17.1720 N.am  176  ASN176     -0.0877
     44  N        -32.5440  -14.0510   21.1670 N.3   188  GLY188     -0.1210
     45  CA       -31.5110  -13.3430   21.8790 C.3   188  GLY188      0.1956
     46  C        -30.1410  -13.4470   21.2360 C.2   188  GLY188      0.2612
     47  O        -29.9600  -14.0670   20.1890 O.2   188  GLY188     -0.2717
     48  N        -29.1970  -12.7720   21.8650 N.am  189  GLY189     -0.1942
     49  CA       -27.7980  -12.8180   21.4460 C.3   189  GLY189      0.2014
     50  C        -27.0950  -13.9420   22.1620 C.2   189  GLY189      0.2638
     51  O        -27.5270  -14.3990   23.2260 O.2   189  GLY189     -0.2714
     52  N        -25.9610  -14.3440   21.5880 N.am  190  VAL190     -0.1977
     53  CA       -25.2230  -15.4980   22.0920 C.3   190  VAL190      0.1596
     54  C        -24.8310  -15.3840   23.5580 C.2   190  VAL190      0.2287
     55  O        -24.9060  -16.3840   24.2790 O.2   190  VAL190     -0.2864
     56  CB       -23.9820  -15.7750   21.2060 C.3   190  VAL190      0.0276
     57  CG1      -22.9220  -14.6930   21.2610 C.3   190  VAL190      0.0022
     58  CG2      -23.3820  -17.1170   21.5990 C.3   190  VAL190      0.0022
     59  N        -28.0610  -15.9870   25.6170 N.3   193  ILE193     -0.1231
     60  CA       -28.4750  -17.3760   25.4710 C.3   193  ILE193      0.1692
     61  C        -27.5940  -18.2870   26.3110 C.2   193  ILE193      0.2592
     62  O        -28.0640  -19.1470   27.0800 O.2   193  ILE193     -0.2718
     63  CB       -28.4710  -17.8150   24.0090 C.3   193  ILE193      0.0266
     64  CG1      -29.6090  -17.0970   23.2690 C.3   193  ILE193      0.0019
     65  CG2      -28.6250  -19.3330   23.9250 C.3   193  ILE193      0.0020
     66  CD1      -29.5260  -17.1970   21.7610 C.3   193  ILE193      0.0001
     67  N        -26.2940  -18.1230   26.2010 N.am  194  PHE194     -0.1976
     68  CA       -25.3690  -18.9620   26.9420 C.3   194  PHE194      0.1639
     69  C        -25.4870  -18.7570   28.4560 C.2   194  PHE194      0.2290
     70  O        -25.4930  -19.6910   29.1900 O.2   194  PHE194     -0.2864
     71  CB       -23.9280  -18.6520   26.5150 C.3   194  PHE194      0.0560
     72  CG       -23.4780  -19.2570   25.1860 C.ar  194  PHE194     -0.0200
     73  CD1      -22.1980  -19.0310   24.7440 C.ar  194  PHE194     -0.0042
     74  CD2      -24.2680  -20.0370   24.4470 C.ar  194  PHE194     -0.0042
     75  CE1      -21.7320  -19.5720   23.5620 C.ar  194  PHE194     -0.0003
     76  CE2      -23.8410  -20.5640   23.2510 C.ar  194  PHE194     -0.0003
     77  CZ       -22.5630  -20.3460   22.8060 C.ar  194  PHE194     -0.0000
     78  N        -24.9790  -24.7060   23.1320 N.3   205  ASN205     -0.1225
     79  CA       -24.8530  -25.2640   21.8030 C.3   205  ASN205      0.1785
     80  C        -24.2120  -24.2360   20.8820 C.2   205  ASN205      0.2597
     81  O        -24.6710  -23.0820   20.7800 O.2   205  ASN205     -0.2718
     82  CB       -26.2010  -25.6610   21.2320 C.3   205  ASN205      0.1169
     83  CG       -26.7950  -26.8740   21.9030 C.2   205  ASN205      0.2627
     84  OD1      -26.0960  -27.7460   22.3910 O.2   205  ASN205     -0.2716
     85  ND2      -28.1040  -26.9660   21.8670 N.am  205  ASN205     -0.0877
     86  N        -23.1470  -24.6570   20.2260 N.am  206  ILE206     -0.1966
     87  CA       -22.3680  -23.7960   19.3340 C.3   206  ILE206      0.1727
     88  C        -22.6070  -24.1610   17.8990 C.2   206  ILE206      0.2616
     89  O        -22.5140  -25.3280   17.4930 O.2   206  ILE206     -0.2715
     90  CB       -20.8740  -23.9710   19.6210 C.3   206  ILE206      0.0290
     91  CG1      -20.5670  -23.5530   21.0670 C.3   206  ILE206      0.0022
     92  CG2      -20.0200  -23.2260   18.6180 C.3   206  ILE206      0.0023
     93  CD1      -19.1420  -23.8450   21.4790 C.3   206  ILE206      0.0001
     94  N        -22.9690  -23.1500   17.1080 N.am  207  TYR207     -0.1974
     95  CA       -23.2080  -23.3580   15.6740 C.3   207  TYR207      0.1639
     96  C        -21.8830  -23.5130   14.9160 C.2   207  TYR207      0.2290
     97  O        -20.9390  -22.7410   15.0570 O.2   207  TYR207     -0.2864
     98  CB       -23.9680  -22.1490   15.1120 C.3   207  TYR207      0.0560
     99  CG       -25.4100  -22.0720   15.4930 C.ar  207  TYR207     -0.0198
    100  CD1      -25.9310  -20.9400   16.0980 C.ar  207  TYR207     -0.0009
    101  CD2      -26.2770  -23.1250   15.2830 C.ar  207  TYR207     -0.0009
    102  CE1      -27.2620  -20.8820   16.4360 C.ar  207  TYR207      0.0417
    103  CE2      -27.6100  -23.0630   15.6100 C.ar  207  TYR207      0.0417
    104  CZ       -28.0980  -21.9310   16.2000 C.ar  207  TYR207      0.1957
    105  OH       -29.4420  -21.8780   16.5290 O.3   207  TYR207     -0.2866
    106  N        -15.4440  -19.2230   14.6680 N.3   212  GLN212     -0.1245
    107  CA       -15.8110  -17.8660   14.2840 C.3   212  GLN212      0.1566
    108  C        -15.6910  -16.9590   15.5010 C.2   212  GLN212      0.2260
    109  O        -15.9730  -17.3810   16.6390 O.2   212  GLN212     -0.2867
    110  CB       -17.2180  -17.8140   13.6910 C.3   212  GLN212      0.0367
    111  CG       -18.3980  -18.1450   14.6210 C.3   212  GLN212      0.0905
    112  CD       -18.8050  -19.6030   14.6970 C.2   212  GLN212      0.2608
    113  OE1      -17.9780  -20.4890   14.5030 O.2   212  GLN212     -0.2717
    114  NE2      -20.0690  -19.8650   14.9700 N.am  212  GLN212     -0.0878
    115  N        -16.1640  -13.0360   17.5990 N.3   214  ARG214     -0.1245
    116  CA       -16.8940  -11.8080   17.7960 C.3   214  ARG214      0.1563
    117  C        -16.1530  -10.8470   18.6960 C.2   214  ARG214      0.2260
    118  O        -15.4630  -11.2650   19.6410 O.2   214  ARG214     -0.2867
    119  CB       -18.2910  -12.0790   18.3690 C.3   214  ARG214      0.0307
    120  CG       -19.2610  -12.8530   17.5070 C.3   214  ARG214      0.0489
    121  CD       -19.5860  -12.0630   16.2530 C.3   214  ARG214      0.2205
    122  NE       -20.6130  -12.6630   15.4150 N.pl3 214  ARG214     -0.0865
    123  CZ       -20.4000  -13.4240   14.3490 C.cat 214  ARG214      0.5346
    124  NH1      -19.2040  -13.8090   14.0070 N.pl3 214  ARG214      0.1354
    125  NH2      -21.4280  -13.7690   13.6160 N.pl3 214  ARG214      0.1354
    126  N        -16.3270  -18.3110   19.5130 N.3   250  ILE250     -0.1245
    127  CA       -17.5190  -18.7980   20.1950 C.3   250  ILE250      0.1561
    128  C        -17.1460  -19.9860   21.0940 C.2   250  ILE250      0.2260
    129  O        -17.6630  -20.0800   22.2080 O.2   250  ILE250     -0.2867
    130  CB       -18.7080  -19.0630   19.2470 C.3   250  ILE250      0.0252
    131  CG1      -19.0260  -17.7890   18.4130 C.3   250  ILE250      0.0019
    132  CG2      -19.9220  -19.5250   20.0290 C.3   250  ILE250      0.0019
    133  CD1      -19.2790  -16.5530   19.2220 C.3   250  ILE250      0.0001
    134  N        -24.4950  -25.5420   11.7560 N.3   269  HIS269     -0.1241
    135  CA       -24.6690  -24.0950   11.6260 C.3   269  HIS269      0.1621
    136  C        -25.9610  -23.8010   10.8860 C.2   269  HIS269      0.2264
    137  O        -26.2460  -24.4050    9.8390 O.2   269  HIS269     -0.2867
    138  CB       -23.4800  -23.4760   10.9080 C.3   269  HIS269      0.0745
    139  CG       -23.3000  -22.0270   11.2050 C.ar  269  HIS269      0.0817
    140  ND1      -24.2380  -21.0750   10.8830 N.ar  269  HIS269     -0.2268
    141  CD2      -22.2710  -21.3790   11.7690 C.ar  269  HIS269      0.1154
    142  CE1      -23.7960  -19.8930   11.2660 C.ar  269  HIS269      0.1986
    143  NE2      -22.5970  -20.0420   11.7970 N.ar  269  HIS269     -0.2212
    144  N        -26.7670  -21.0010    9.3280 N.3   271  HIS271     -0.1241
    145  CA       -26.5420  -20.2010    8.1230 C.3   271  HIS271      0.1621
    146  C        -25.0730  -19.9560    7.8680 C.2   271  HIS271      0.2264
    147  O        -24.5940  -18.8170    7.8730 O.2   271  HIS271     -0.2867
    148  CB       -27.3310  -18.8860    8.1410 C.3   271  HIS271      0.0745
    149  CG       -27.1920  -18.0560    9.3750 C.ar  271  HIS271      0.0817
    150  ND1      -28.2700  -17.8440   10.1960 N.ar  271  HIS271     -0.2268
    151  CD2      -26.2000  -17.2620    9.8350 C.ar  271  HIS271      0.1154
    152  CE1      -27.9280  -17.0200   11.1660 C.ar  271  HIS271      0.1986
    153  NE2      -26.6770  -16.6650   10.9830 N.ar  271  HIS271     -0.2212
    154  N        -22.4360  -16.3890    7.6010 N.3   275  GLU275     -0.1245
    155  CA       -21.5770  -16.1610    8.7430 C.3   275  GLU275      0.1567
    156  C        -20.4390  -15.2100    8.3750 C.2   275  GLU275      0.2260
    157  O        -20.0860  -15.0630    7.1930 O.2   275  GLU275     -0.2867
    158  CB       -21.0550  -17.5190    9.2620 C.3   275  GLU275      0.0388
    159  CG       -20.1940  -17.5120   10.5120 C.3   275  GLU275      0.1160
    160  CD       -20.8930  -16.8920   11.7040 C.2   275  GLU275      0.3649
    161  OE1      -20.9910  -15.6370   11.7380 O.co2 275  GLU275     -0.2457
    162  OE2      -21.3990  -17.6150   12.6010 O.co2 275  GLU275     -0.2457
@<TRIPOS>BOND
     1    24    25    1
     2    26    27    2
     3    26    25    1
     4    25    28    1
     5   157   156    2
     6   154   155    1
     7    19    18    2
     8   146   147    2
     9   146   145    1
    10   145   148    1
    11   145   144    1
    12   148   149    1
    13   156   155    1
    14    28    29    1
    15    18    17    1
    16   155   158    1
    17    12    11    2
    18   158   159    1
    19    14    13    1
    20   149   151   ar
    21   149   150   ar
    22    29    31   ar
    23    29    30   ar
    24   151   153   ar
    25   137   136    2
    26    11    10    1
    27    17    20    1
    28    17    16    1
    29    31    33   ar
    30    30    32   ar
    31   150   152   ar
    32    20    21    1
    33    10    13    1
    34    10     9    1
    35   159   160    1
    36    13    15    1
    37   140   139   ar
    38   140   142   ar
    39   136   135    1
    40   138   139    1
    41   138   135    1
    42   153   152   ar
    43   139   141   ar
    44    33    34   ar
    45    32    34   ar
    46   142   143   ar
    47    23    22    1
    48   135   134    1
    49   160   161   ar
    50   160   162   ar
    51    34    35    1
    52   141   143   ar
    53    21    22    1
    54     1     2    1
    55   125   123    1
    56     3     2    1
    57     3     4    2
    58   110   107    1
    59   110   111    1
    60     2     5    1
    61   124   123    1
    62   107   106    1
    63   107   108    1
    64   123   122    2
    65   113   112    2
    66   111   112    1
    67   112   114   am
    68    96    97    2
    69    96    95    1
    70    98    99    1
    71    98    95    1
    72     5     7    1
    73     5     6    1
    74   101    99   ar
    75   101   103   ar
    76   122   121    1
    77    99   100   ar
    78   108   109    2
    79   103   104   ar
    80    95    94    1
    81   100   102   ar
    82   104   102   ar
    83   104   105    1
    84   121   120    1
    85     6     8    1
    86    42    41    2
    87    94    88   am
    88    43    41   am
    89    41    40    1
    90    89    88    2
    91   120   119    1
    92   115   116    1
    93   116   119    1
    94   116   117    1
    95    36    37    1
    96    88    87    1
    97   131   133    1
    98   131   130    1
    99    40    37    1
   100    37    38    1
   101    92    90    1
   102   117   118    2
   103   130   132    1
   104   130   127    1
   105    87    90    1
   106    87    86    1
   107   126   127    1
   108    90    91    1
   109    38    39    2
   110    47    46    2
   111   127   128    1
   112    86    80   am
   113    81    80    2
   114    80    79    1
   115    91    93    1
   116   128   129    2
   117    44    45    1
   118    56    57    1
   119    56    58    1
   120    56    53    1
   121    82    79    1
   122    82    83    1
   123    46    48   am
   124    46    45    1
   125    49    48    1
   126    49    50    1
   127    52    53    1
   128    52    50   am
   129    66    64    1
   130    79    78    1
   131    85    83   am
   132    83    84    2
   133    53    54    1
   134    50    51    2
   135    77    76   ar
   136    77    75   ar
   137    76    74   ar
   138    64    63    1
   139    54    55    2
   140    75    73   ar
   141    65    63    1
   142    63    60    1
   143    74    72   ar
   144    73    72   ar
   145    72    71    1
   146    60    59    1
   147    60    61    1
   148    67    61   am
   149    67    68    1
   150    61    62    2
   151    71    68    1
   152    68    69    1
   153    69    70    2
