@<TRIPOS>MOLECULE
tmp/6bwqA00.pdb
 104 99 0 0 0
SMALL
GASTEIGER

@<TRIPOS>ATOM
      1  N         36.6350    3.1660   11.2440 N.3    33  TYR33      -0.1227
      2  CA        37.2060    4.4950   11.4290 C.3    33  TYR33       0.1736
      3  C         36.8450    5.3940   10.2600 C.2    33  TYR33       0.2595
      4  O         36.5580    6.5810   10.4420 O.2    33  TYR33      -0.2718
      5  CB        38.7230    4.4160   11.5560 C.3    33  TYR33       0.0548
      6  CG        39.2570    3.6500   12.7410 C.ar   33  TYR33      -0.0200
      7  CD1       38.4390    3.2480   13.7770 C.ar   33  TYR33      -0.0009
      8  CD2       40.5910    3.3270   12.8100 C.ar   33  TYR33      -0.0009
      9  CE1       38.9480    2.5540   14.8450 C.ar   33  TYR33       0.0417
     10  CE2       41.0980    2.6380   13.8650 C.ar   33  TYR33       0.0417
     11  CZ        40.2870    2.2510   14.8760 C.ar   33  TYR33       0.1957
     12  OH        40.8400    1.5570   15.9250 O.3    33  TYR33      -0.2866
     13  N         36.8560    4.8410    9.0510 N.am   34  ASP34      -0.1974
     14  CA        36.6000    5.5870    7.8320 C.3    34  ASP34       0.1709
     15  C         36.2140    4.6090    6.7380 C.2    34  ASP34       0.2293
     16  O         36.6180    3.4450    6.7610 O.2    34  ASP34      -0.2864
     17  CB        37.8230    6.4080    7.4020 C.3    34  ASP34       0.1436
     18  CG        37.4530    7.6180    6.5660 C.2    34  ASP34       0.3671
     19  OD1       36.2580    7.9710    6.5430 O.co2  34  ASP34      -0.2456
     20  OD2       38.3470    8.2090    5.9210 O.co2  34  ASP34      -0.2456
     21  N         38.8790    1.6060    6.6440 N.3    54  LEU54      -0.1245
     22  CA        39.9040    1.6560    7.6740 C.3    54  LEU54       0.1561
     23  C         39.2590    1.3130    9.0010 C.2    54  LEU54       0.2260
     24  O         38.1500    1.7600    9.2850 O.2    54  LEU54      -0.2867
     25  CB        40.5610    3.0310    7.7420 C.3    54  LEU54       0.0270
     26  CG        41.2850    3.3780    6.4460 C.3    54  LEU54       0.0019
     27  CD1       41.4380    4.8710    6.3030 C.3    54  LEU54       0.0001
     28  CD2       42.6290    2.6880    6.4370 C.3    54  LEU54       0.0001
     29  N         50.4600    4.1390   11.9210 N.3    83  ARG83      -0.1245
     30  CA        49.8790    5.4760   11.9720 C.3    83  ARG83       0.1563
     31  C         50.6020    6.3620   12.9720 C.2    83  ARG83       0.2260
     32  O         51.1450    5.8990   13.9740 O.2    83  ARG83      -0.2867
     33  CB        48.4040    5.4870   12.3710 C.3    83  ARG83       0.0307
     34  CG        47.4520    5.0440   11.3110 C.3    83  ARG83       0.0489
     35  CD        46.0890    5.6950   11.4980 C.3    83  ARG83       0.2205
     36  NE        45.4420    5.3140   12.7490 N.pl3  83  ARG83      -0.0865
     37  CZ        44.1550    5.5260   13.0170 C.cat  83  ARG83       0.5346
     38  NH1       43.3760    6.1110   12.1200 N.pl3  83  ARG83       0.1354
     39  NH2       43.6470    5.1490   14.1810 N.pl3  83  ARG83       0.1354
     40  N         49.2280    9.7150   14.9950 N.3    85  ILE85      -0.1245
     41  CA        47.9720   10.3980   15.2810 C.3    85  ILE85       0.1561
     42  C         48.2260   11.4580   16.3340 C.2    85  ILE85       0.2260
     43  O         48.9030   11.1950   17.3310 O.2    85  ILE85      -0.2867
     44  CB        46.8860    9.4230   15.7780 C.3    85  ILE85       0.0252
     45  CG1       46.5600    8.3740   14.7320 C.3    85  ILE85       0.0019
     46  CG2       45.6100   10.1600   16.1020 C.3    85  ILE85       0.0019
     47  CD1       45.7380    7.2890   15.3240 C.3    85  ILE85       0.0001
     48  N         44.1010   14.4660   20.9270 N.3    88  ARG88      -0.1245
     49  CA        42.8730   15.1750   20.6110 C.3    88  ARG88       0.1563
     50  C         42.0430   15.3190   21.8750 C.2    88  ARG88       0.2260
     51  O         41.9810   14.3940   22.6870 O.2    88  ARG88      -0.2867
     52  CB        42.0550   14.4300   19.5530 C.3    88  ARG88       0.0307
     53  CG        42.8680   13.8980   18.3950 C.3    88  ARG88       0.0489
     54  CD        42.1100   12.8330   17.6460 C.3    88  ARG88       0.2205
     55  NE        42.4950   11.4860   18.0260 N.pl3  88  ARG88      -0.0865
     56  CZ        41.7830   10.7120   18.8380 C.cat  88  ARG88       0.5346
     57  NH1       40.6490   11.1620   19.3630 N.pl3  88  ARG88       0.1354
     58  NH2       42.2030    9.4880   19.1260 N.pl3  88  ARG88       0.1354
     59  N         38.4120   18.0510   23.3190 N.3    90  PHE90      -0.1241
     60  CA        37.3600   18.9590   22.8860 C.3    90  PHE90       0.1605
     61  C         37.2680   20.1650   23.8020 C.2    90  PHE90       0.2264
     62  O         37.4950   20.0640   25.0100 O.2    90  PHE90      -0.2867
     63  CB        35.9910   18.2840   22.8470 C.3    90  PHE90       0.0534
     64  CG        35.8330   17.3290   21.7330 C.ar   90  PHE90      -0.0203
     65  CD1       35.8200   15.9720   21.9660 C.ar   90  PHE90      -0.0042
     66  CD2       35.6960   17.7900   20.4420 C.ar   90  PHE90      -0.0042
     67  CE1       35.6810   15.0940   20.9340 C.ar   90  PHE90      -0.0003
     68  CE2       35.5570   16.9230   19.4060 C.ar   90  PHE90      -0.0003
     69  CZ        35.5490   15.5710   19.6440 C.ar   90  PHE90      -0.0000
     70  N         37.4240   20.3900   18.1830 N.3   103  LYS103     -0.1245
     71  CA        38.4520   19.3960   18.4330 C.3   103  LYS103      0.1561
     72  C         39.8170   20.0640   18.4330 C.2   103  LYS103      0.2260
     73  O         40.1810   20.7470   17.4770 O.2   103  LYS103     -0.2867
     74  CB        38.3760   18.2790   17.3880 C.3   103  LYS103      0.0271
     75  CG        39.3360   17.1150   17.6200 C.3   103  LYS103      0.0035
     76  CD        39.1720   15.9780   16.6000 C.3   103  LYS103      0.0206
     77  CE        38.4070   16.4000   15.3580 C.3   103  LYS103      0.1093
     78  NZ        38.1150   15.2760   14.4040 N.3   103  LYS103     -0.1314
     79  N         33.4010   21.5010   15.0870 N.3   116  GLU116     -0.1231
     80  CA        32.6320   20.3270   14.7260 C.3   116  GLU116      0.1699
     81  C         31.6110   20.6750   13.6550 C.2   116  GLU116      0.2592
     82  O         30.8320   21.6120   13.8110 O.2   116  GLU116     -0.2718
     83  CB        31.9400   19.7320   15.9400 C.3   116  GLU116      0.0402
     84  CG        31.3900   18.3660   15.6120 C.3   116  GLU116      0.1161
     85  CD        32.4810   17.3250   15.6070 C.2   116  GLU116      0.3649
     86  OE1       32.4080   16.3860   14.7980 O.co2 116  GLU116     -0.2457
     87  OE2       33.4100   17.4520   16.4110 O.co2 116  GLU116     -0.2457
     88  N         31.6090   19.9030   12.5700 N.am  117  TYR117     -0.1962
     89  CA        30.7330   20.2050   11.4450 C.3   117  TYR117      0.1771
     90  C         29.2720   20.1920   11.8590 C.2   117  TYR117      0.2619
     91  O         28.5220   21.1280   11.5640 O.2   117  TYR117     -0.2715
     92  CB        30.9690   19.2000   10.3250 C.3   117  TYR117      0.0574
     93  CG        29.8790   19.2090    9.2900 C.ar  117  TYR117     -0.0198
     94  CD1       29.8370   20.1700    8.2990 C.ar  117  TYR117     -0.0009
     95  CD2       28.8690   18.2690    9.3290 C.ar  117  TYR117     -0.0009
     96  CE1       28.8300   20.1820    7.3750 C.ar  117  TYR117      0.0417
     97  CE2       27.8650   18.2790    8.4100 C.ar  117  TYR117      0.0417
     98  CZ        27.8490   19.2300    7.4370 C.ar  117  TYR117      0.1957
     99  OH        26.8330   19.2190    6.5270 O.3   117  TYR117     -0.2866
    100  N         28.8550   19.1440   12.5670 N.am  118  ALA118     -0.1977
    101  CA        27.4440   19.0000   12.8870 C.3   118  ALA118      0.1597
    102  C         26.9550   20.1660   13.7380 C.2   118  ALA118      0.2287
    103  O         25.8190   20.6230   13.5790 O.2   118  ALA118     -0.2864
    104  CB        27.2080   17.6680   13.5830 C.3   118  ALA118      0.0319
@<TRIPOS>BOND
     1    20    18   ar
     2    27    26    1
     3    28    26    1
     4    26    25    1
     5    99    98    1
     6    19    18   ar
     7    18    17    1
     8    21    22    1
     9    15    16    2
    10    15    14    1
    11    96    98   ar
    12    96    94   ar
    13    17    14    1
    14    98    97   ar
    15    22    25    1
    16    22    23    1
    17    14    13    1
    18    94    93   ar
    19    97    95   ar
    20    23    24    2
    21    13     3   am
    22    93    95   ar
    23    93    92    1
    24     3     4    2
    25     3     2    1
    26    92    89    1
    27     1     2    1
    28    34    35    1
    29    34    33    1
    30     2     5    1
    31    89    90    1
    32    89    88    1
    33    35    36    1
    34     5     6    1
    35    91    90    2
    36    90   100   am
    37    29    30    1
    38    30    33    1
    39    30    31    1
    40    38    37    1
    41   100   101    1
    42    88    81   am
    43     6     8   ar
    44     6     7   ar
    45    36    37    2
    46     8    10   ar
    47   101   104    1
    48   101   102    1
    49    31    32    2
    50    37    39    1
    51   103   102    2
    52    81    82    2
    53    81    80    1
    54     7     9   ar
    55    10    11   ar
    56    78    77    1
    57    80    79    1
    58    80    83    1
    59    45    47    1
    60    45    44    1
    61    86    85   ar
    62     9    11   ar
    63    11    12    1
    64    40    41    1
    65    41    44    1
    66    41    42    1
    67    77    76    1
    68    85    84    1
    69    85    87   ar
    70    84    83    1
    71    44    46    1
    72    42    43    2
    73    76    75    1
    74    74    75    1
    75    74    71    1
    76    73    72    2
    77    54    55    1
    78    54    53    1
    79    55    56    2
    80    70    71    1
    81    53    52    1
    82    72    71    1
    83    56    58    1
    84    56    57    1
    85    68    69   ar
    86    68    66   ar
    87    52    49    1
    88    69    67   ar
    89    66    64   ar
    90    49    48    1
    91    49    50    1
    92    67    65   ar
    93    64    65   ar
    94    64    63    1
    95    50    51    2
    96    63    60    1
    97    60    59    1
    98    60    61    1
    99    61    62    2
