@<TRIPOS>MOLECULE
tmp/6bwwA02.pdb
 191 181 0 0 0
SMALL
GASTEIGER

@<TRIPOS>ATOM
      1  N         13.3830  -26.7770    7.4460 N.3    24  LEU24      -0.1245
      2  CA        12.3710  -27.3800    6.6030 C.3    24  LEU24       0.1561
      3  C         12.3150  -28.8820    6.8240 C.2    24  LEU24       0.2260
      4  O         11.2270  -29.4510    6.8670 O.2    24  LEU24      -0.2867
      5  CB        12.6700  -27.0620    5.1340 C.3    24  LEU24       0.0270
      6  CG        11.5660  -27.3530    4.1300 C.3    24  LEU24       0.0019
      7  CD1       10.2380  -26.7400    4.5590 C.3    24  LEU24       0.0001
      8  CD2       11.9560  -26.8410    2.7550 C.3    24  LEU24       0.0001
      9  N          4.3050  -23.4190   -0.1620 N.3    43  LEU43      -0.1245
     10  CA         5.3970  -22.5280    0.2410 C.3    43  LEU43       0.1561
     11  C          5.0750  -21.2360   -0.4920 C.2    43  LEU43       0.2260
     12  O          5.3540  -21.1100   -1.6850 O.2    43  LEU43      -0.2867
     13  CB         6.7610  -23.0870   -0.1540 C.3    43  LEU43       0.0270
     14  CG         7.0670  -24.4990    0.3330 C.3    43  LEU43       0.0019
     15  CD1        8.3880  -24.9580   -0.2040 C.3    43  LEU43       0.0001
     16  CD2        7.0840  -24.5920    1.8560 C.3    43  LEU43       0.0001
     17  N          2.6810  -21.4890   -3.8390 N.3    46  ARG46      -0.1245
     18  CA         3.2130  -22.5770   -4.6240 C.3    46  ARG46       0.1563
     19  C          2.8810  -23.9340   -4.0030 C.2    46  ARG46       0.2260
     20  O          3.4660  -24.2880   -2.9750 O.2    46  ARG46      -0.2867
     21  CB         4.7330  -22.3890   -4.6680 C.3    46  ARG46       0.0307
     22  CG         5.4580  -22.9840   -5.8550 C.3    46  ARG46       0.0489
     23  CD         6.8680  -22.4130   -5.8630 C.3    46  ARG46       0.2205
     24  NE         7.8930  -23.4460   -5.7300 N.pl3  46  ARG46      -0.0865
     25  CZ         8.8790  -23.4650   -4.8290 C.cat  46  ARG46       0.5346
     26  NH1        8.9930  -22.4870   -3.9340 N.pl3  46  ARG46       0.1354
     27  NH2        9.7590  -24.4600   -4.8200 N.pl3  46  ARG46       0.1354
     28  N         14.1380  -23.0780   -9.8530 N.3    74  ILE74      -0.1245
     29  CA        14.8680  -22.4760   -8.7400 C.3    74  ILE74       0.1561
     30  C         14.8680  -20.9920   -9.1480 C.2    74  ILE74       0.2260
     31  O         15.5290  -20.6240  -10.1140 O.2    74  ILE74      -0.2867
     32  CB        16.2630  -23.1000   -8.5210 C.3    74  ILE74       0.0252
     33  CG1       16.0730  -24.5770   -8.0680 C.3    74  ILE74       0.0019
     34  CG2       17.0440  -22.2990   -7.4600 C.3    74  ILE74       0.0019
     35  CD1       17.3750  -25.4200   -7.8820 C.3    74  ILE74       0.0001
     36  N         18.0250  -18.4660   -9.6520 N.3    77  VAL77      -0.1245
     37  CA        18.8670  -18.6990  -10.8320 C.3    77  VAL77       0.1561
     38  C         18.0870  -18.7830  -12.1140 C.2    77  VAL77       0.2260
     39  O         18.7080  -18.8280  -13.1710 O.2    77  VAL77      -0.2867
     40  CB        19.7910  -19.9190  -10.6860 C.3    77  VAL77       0.0252
     41  CG1       20.7230  -19.7500   -9.5000 C.3    77  VAL77       0.0019
     42  CG2       18.9960  -21.2290  -10.5870 C.3    77  VAL77       0.0019
     43  N         19.4760  -19.1390  -16.1360 N.3    81  PHE81      -0.1241
     44  CA        19.2870  -20.3630  -16.9080 C.3    81  PHE81       0.1605
     45  C         18.1630  -20.3170  -17.8740 C.2    81  PHE81       0.2264
     46  O         18.3350  -20.8010  -18.9720 O.2    81  PHE81      -0.2867
     47  CB        19.1250  -21.5820  -16.0040 C.3    81  PHE81       0.0534
     48  CG        20.4270  -21.9180  -15.3560 C.ar   81  PHE81      -0.0203
     49  CD1       21.4260  -22.5520  -16.0700 C.ar   81  PHE81      -0.0042
     50  CD2       20.7090  -21.4810  -14.0770 C.ar   81  PHE81      -0.0042
     51  CE1       22.6580  -22.8140  -15.4850 C.ar   81  PHE81      -0.0003
     52  CE2       21.9320  -21.7490  -13.4860 C.ar   81  PHE81      -0.0003
     53  CZ        22.8980  -22.4270  -14.1900 C.ar   81  PHE81      -0.0000
     54  N         20.4530  -29.4290  -16.2960 N.3    87  ILE87      -0.1231
     55  CA        19.7390  -29.4630  -15.0170 C.3    87  ILE87       0.1692
     56  C         18.3990  -28.8040  -15.0910 C.2    87  ILE87       0.2592
     57  O         17.4310  -29.3480  -14.5670 O.2    87  ILE87      -0.2718
     58  CB        20.4580  -28.7510  -13.8670 C.3    87  ILE87       0.0266
     59  CG1       21.9020  -29.1570  -13.7210 C.3    87  ILE87       0.0019
     60  CG2       19.7050  -28.9980  -12.5510 C.3    87  ILE87       0.0020
     61  CD1       22.6560  -28.0480  -13.0840 C.3    87  ILE87       0.0001
     62  N         18.2940  -27.6160  -15.7260 N.am   88  PHE88      -0.1976
     63  CA        16.9970  -26.9300  -15.7200 C.3    88  PHE88       0.1639
     64  C         16.0950  -27.1090  -16.9190 C.2    88  PHE88       0.2290
     65  O         14.9830  -26.5820  -16.9050 O.2    88  PHE88      -0.2864
     66  CB        17.1890  -25.4440  -15.4740 C.3    88  PHE88       0.0560
     67  CG        17.7860  -25.2000  -14.1130 C.ar   88  PHE88      -0.0200
     68  CD1       17.0430  -25.4200  -12.9650 C.ar   88  PHE88      -0.0042
     69  CD2       19.1250  -24.8960  -13.9760 C.ar   88  PHE88      -0.0042
     70  CE1       17.6160  -25.2570  -11.7080 C.ar   88  PHE88      -0.0003
     71  CE2       19.6920  -24.7200  -12.7220 C.ar   88  PHE88      -0.0003
     72  CZ        18.9390  -24.9070  -11.5970 C.ar   88  PHE88      -0.0000
     73  N         27.3090  -19.5520   -4.9880 N.3   178  PHE178     -0.1241
     74  CA        26.8040  -20.7430   -4.3220 C.3   178  PHE178      0.1605
     75  C         26.4160  -20.4280   -2.8850 C.2   178  PHE178      0.2264
     76  O         25.3130  -20.7610   -2.4830 O.2   178  PHE178     -0.2867
     77  CB        27.8370  -21.8810   -4.3560 C.3   178  PHE178      0.0534
     78  CG        27.3410  -23.0930   -5.1060 C.ar  178  PHE178     -0.0203
     79  CD1       26.2250  -23.7820   -4.6710 C.ar  178  PHE178     -0.0042
     80  CD2       28.0040  -23.5520   -6.2380 C.ar  178  PHE178     -0.0042
     81  CE1       25.7860  -24.9180   -5.3360 C.ar  178  PHE178     -0.0003
     82  CE2       27.5430  -24.6780   -6.9210 C.ar  178  PHE178     -0.0003
     83  CZ        26.4450  -25.3600   -6.4550 C.ar  178  PHE178     -0.0000
     84  N         23.2210  -18.1320   -3.1840 N.3   181  ILE181     -0.1245
     85  CA        22.0180  -18.9080   -3.5910 C.3   181  ILE181      0.1561
     86  C         21.3850  -19.6540   -2.4050 C.2   181  ILE181      0.2260
     87  O         20.1670  -19.8420   -2.3710 O.2   181  ILE181     -0.2867
     88  CB        22.3620  -19.9080   -4.7430 C.3   181  ILE181      0.0252
     89  CG1       22.4760  -19.1720   -6.0850 C.3   181  ILE181      0.0019
     90  CG2       21.3240  -21.0460   -4.8720 C.3   181  ILE181      0.0019
     91  CD1       23.3690  -19.8830   -7.1470 C.3   181  ILE181      0.0001
     92  N         16.5770  -17.8760    0.2840 N.3   187  GLN187     -0.1245
     93  CA        15.4680  -18.7770    0.6140 C.3   187  GLN187      0.1566
     94  C         14.1720  -17.9950    0.5870 C.2   187  GLN187      0.2260
     95  O         13.2050  -18.4490   -0.0030 O.2   187  GLN187     -0.2867
     96  CB        15.6660  -19.4160    1.9880 C.3   187  GLN187      0.0367
     97  CG        16.7130  -20.5070    1.9380 C.3   187  GLN187      0.0905
     98  CD        16.9740  -21.1200    3.2830 C.2   187  GLN187      0.2608
     99  OE1       17.8870  -20.7250    4.0120 O.2   187  GLN187     -0.2717
    100  NE2       16.1790  -22.1070    3.6410 N.am  187  GLN187     -0.0878
    101  N         13.0110  -17.2130   -2.8910 N.3   190  GLU190     -0.1245
    102  CA        12.3600  -18.3770   -3.5040 C.3   190  GLU190      0.1567
    103  C         10.8740  -18.4620   -3.1550 C.2   190  GLU190      0.2260
    104  O         10.0840  -18.9180   -3.9830 O.2   190  GLU190     -0.2867
    105  CB        13.0590  -19.6650   -3.0640 C.3   190  GLU190      0.0388
    106  CG        14.3850  -19.8770   -3.7560 C.3   190  GLU190      0.1160
    107  CD        14.2530  -20.1530   -5.2360 C.2   190  GLU190      0.3649
    108  OE1       13.3540  -20.9250   -5.6410 O.co2 190  GLU190     -0.2457
    109  OE2       15.0190  -19.5330   -6.0010 O.co2 190  GLU190     -0.2457
    110  N         27.7700  -26.0300  -11.8310 N.3   269  PHE269     -0.1227
    111  CA        26.7960  -25.9360  -10.7450 C.3   269  PHE269      0.1736
    112  C         26.5170  -27.2840  -10.0970 C.2   269  PHE269      0.2595
    113  O         26.5210  -27.4020   -8.8780 O.2   269  PHE269     -0.2718
    114  CB        25.4780  -25.2940  -11.2070 C.3   269  PHE269      0.0547
    115  CG        25.3530  -23.8720  -10.7200 C.ar  269  PHE269     -0.0202
    116  CD1       25.6120  -22.8090  -11.5690 C.ar  269  PHE269     -0.0042
    117  CD2       25.1540  -23.6000   -9.3800 C.ar  269  PHE269     -0.0042
    118  CE1       25.5850  -21.4970  -11.1030 C.ar  269  PHE269     -0.0003
    119  CE2       25.1390  -22.2900   -8.9080 C.ar  269  PHE269     -0.0003
    120  CZ        25.3750  -21.2450   -9.7680 C.ar  269  PHE269     -0.0000
    121  N         26.2800  -28.2950  -10.9130 N.am  270  ALA270     -0.1980
    122  CA        25.9820  -29.6310  -10.4080 C.3   270  ALA270      0.1597
    123  C         27.2100  -30.4220  -10.0270 C.2   270  ALA270      0.2287
    124  O         27.1400  -31.2160   -9.1050 O.2   270  ALA270     -0.2864
    125  CB        25.1930  -30.3970  -11.4540 C.3   270  ALA270      0.0319
    126  N         28.7470  -30.1490   -4.4170 N.3   274  THR274     -0.1218
    127  CA        28.3790  -31.3500   -3.6630 C.3   274  THR274      0.1862
    128  C         29.5450  -32.2840   -3.5360 C.2   274  THR274      0.2287
    129  O         29.7680  -32.7870   -2.4600 O.2   274  THR274     -0.2866
    130  CB        27.1810  -32.0380   -4.2660 C.3   274  THR274      0.1770
    131  OG1       26.1740  -31.0510   -4.4330 O.3   274  THR274     -0.2211
    132  CG2       26.6450  -33.1370   -3.3690 C.3   274  THR274      0.0375
    133  N         22.0280  -33.2680   -0.0410 N.3   335  ILE335     -0.1245
    134  CA        20.9000  -32.7120   -0.8100 C.3   335  ILE335      0.1561
    135  C         19.6480  -33.3090   -0.1250 C.2   335  ILE335      0.2260
    136  O         19.0880  -34.2720   -0.6340 O.2   335  ILE335     -0.2867
    137  CB        21.0660  -33.0660   -2.3160 C.3   335  ILE335      0.0252
    138  CG1       22.3900  -32.4670   -2.8600 C.3   335  ILE335      0.0019
    139  CG2       19.8940  -32.5180   -3.1350 C.3   335  ILE335      0.0019
    140  CD1       22.8740  -33.1260   -4.0110 C.3   335  ILE335      0.0001
    141  N         16.4190  -32.4830    0.5140 N.3   337  PHE337     -0.1227
    142  CA        15.1080  -32.4040   -0.1140 C.3   337  PHE337      0.1736
    143  C         15.1420  -32.7780   -1.5690 C.2   337  PHE337      0.2596
    144  O         14.1460  -32.6050   -2.2550 O.2   337  PHE337     -0.2718
    145  CB        14.5380  -30.9770   -0.0070 C.3   337  PHE337      0.0547
    146  CG        14.6480  -30.4130    1.3790 C.ar  337  PHE337     -0.0202
    147  CD1       15.6670  -29.5280    1.7060 C.ar  337  PHE337     -0.0042
    148  CD2       13.8260  -30.8710    2.3950 C.ar  337  PHE337     -0.0042
    149  CE1       15.8130  -29.0600    3.0030 C.ar  337  PHE337     -0.0003
    150  CE2       13.9670  -30.3930    3.6920 C.ar  337  PHE337     -0.0003
    151  CZ        14.9890  -29.5260    3.9950 C.ar  337  PHE337     -0.0000
    152  N         16.2700  -33.2660   -2.0500 N.am  338  GLY338     -0.1942
    153  CA        16.4530  -33.5650   -3.4620 C.3   338  GLY338      0.2014
    154  C         16.5830  -32.2730   -4.2460 C.2   338  GLY338      0.2639
    155  O         16.7850  -31.2180   -3.6470 O.2   338  GLY338     -0.2714
    156  N         16.5320  -32.3450   -5.5750 N.am  339  VAL339     -0.1963
    157  CA        16.5030  -31.1780   -6.4610 C.3   339  VAL339      0.1712
    158  C         15.0190  -31.1770   -6.9390 C.2   339  VAL339      0.2458
    159  O         14.4770  -32.2620   -7.1510 O.2   339  VAL339     -0.2730
    160  CB        17.5430  -31.2620   -7.5820 C.3   339  VAL339      0.0289
    161  CG1       17.4520  -30.0610   -8.5140 C.3   339  VAL339      0.0023
    162  CG2       18.9520  -31.3590   -6.9930 C.3   339  VAL339      0.0023
    163  N         14.2840  -30.0490   -6.9550 N.am  340  PRO340     -0.2727
    164  CA        12.8430  -30.1360   -7.2620 C.3   340  PRO340      0.1402
    165  C         12.4730  -30.7510   -8.5900 C.2   340  PRO340      0.2269
    166  O         13.1190  -30.4870   -9.6030 O.2   340  PRO340     -0.2865
    167  CB        12.3560  -28.6720   -7.1770 C.3   340  PRO340      0.0296
    168  CG        13.3970  -27.9560   -6.3820 C.3   340  PRO340      0.0237
    169  CD        14.6930  -28.6580   -6.6740 C.3   340  PRO340      0.0939
    170  N          8.9450  -32.6660   -4.3690 N.3   361  PHE361     -0.1241
    171  CA        10.2010  -32.7470   -3.6260 C.3   361  PHE361      0.1605
    172  C         10.4470  -34.1930   -3.1830 C.2   361  PHE361      0.2264
    173  O          9.7940  -34.6480   -2.2470 O.2   361  PHE361     -0.2867
    174  CB        10.1560  -31.8500   -2.3630 C.3   361  PHE361      0.0534
    175  CG        10.2760  -30.3410   -2.5020 C.ar  361  PHE361     -0.0203
    176  CD1       10.1570  -29.7210   -3.7410 C.ar  361  PHE361     -0.0042
    177  CD2       10.4280  -29.5350   -1.3810 C.ar  361  PHE361     -0.0042
    178  CE1       10.2360  -28.3300   -3.8580 C.ar  361  PHE361     -0.0003
    179  CE2       10.5260  -28.1420   -1.5070 C.ar  361  PHE361     -0.0003
    180  CZ        10.4140  -27.5520   -2.7430 C.ar  361  PHE361     -0.0000
    181  N         19.9480  -23.2350    1.7670 N.3   448  GLY448     -0.1210
    182  CA        19.0810  -23.2720    0.5950 C.3   448  GLY448      0.1956
    183  C         19.3230  -24.5030   -0.2570 C.2   448  GLY448      0.2611
    184  O         18.3910  -25.2530   -0.5570 O.2   448  GLY448     -0.2717
    185  N         20.5890  -24.7680   -0.5780 N.am  449  VAL449     -0.1979
    186  CA        20.9540  -25.9370   -1.3690 C.3   449  VAL449      0.1595
    187  C         20.8530  -27.2480   -0.5420 C.2   449  VAL449      0.2287
    188  O         20.0520  -28.1340   -0.8900 O.2   449  VAL449     -0.2864
    189  CB        22.3160  -25.7690   -2.0990 C.3   449  VAL449      0.0276
    190  CG1       22.1640  -24.7760   -3.2500 C.3   449  VAL449      0.0022
    191  CG2       23.4500  -25.3270   -1.1650 C.3   449  VAL449      0.0022
@<TRIPOS>BOND
     1    46    45    2
     2    45    44    1
     3    64    65    2
     4    64    63    1
     5    44    43    1
     6    44    47    1
     7    54    55    1
     8    49    51   ar
     9    49    48   ar
    10    47    48    1
    11    62    63    1
    12    62    56   am
    13    63    66    1
    14    51    53   ar
    15    66    67    1
    16    48    50   ar
    17    56    55    1
    18    56    57    2
    19    55    58    1
    20    53    52   ar
    21    67    69   ar
    22    67    68   ar
    23    50    52   ar
    24    69    71   ar
    25    58    59    1
    26    58    60    1
    27    59    61    1
    28    39    38    2
    29    68    70   ar
    30    71    72   ar
    31    38    37    1
    32   110   111    1
    33    70    72   ar
    34   116   118   ar
    35   116   115   ar
    36   125   122    1
    37   114   111    1
    38   114   115    1
    39   118   120   ar
    40   121   122    1
    41   121   112   am
    42    37    40    1
    43    37    36    1
    44   111   112    1
    45   115   117   ar
    46    40    42    1
    47    40    41    1
    48   122   123    1
    49    31    30    2
    50   112   113    2
    51   123   124    2
    52    28    29    1
    53   120   119   ar
    54   166   165    2
    55   117   119   ar
    56    30    29    1
    57    29    32    1
    58   165   164    1
    59    32    33    1
    60    32    34    1
    61   161   160    1
    62    33    35    1
    63   160   162    1
    64   160   157    1
    65   164   167    1
    66   164   163    1
    67   167   168    1
    68   159   158    2
    69    91    89    1
    70   163   158   am
    71   163   169    1
    72   158   157    1
    73    82    83   ar
    74    82    80   ar
    75   169   168    1
    76   157   156    1
    77    83    81   ar
    78    80    78   ar
    79    89    88    1
    80   109   107   ar
    81    23    22    1
    82    23    24    1
    83    22    21    1
    84    24    25    2
    85   108   107   ar
    86   156   154   am
    87    81    79   ar
    88   107   106    1
    89    78    79   ar
    90    78    77    1
    91    73    74    1
    92    90    88    1
    93    25    27    1
    94    25    26    1
    95    88    85    1
    96    21    18    1
    97    18    19    1
    98    18    17    1
    99   131   130    1
   100   126   127    1
   101   170   171    1
   102    77    74    1
   103    74    75    1
   104   130   127    1
   105   130   132    1
   106   154   155    2
   107   154   153    1
   108   140   138    1
   109    19    20    2
   110   104   103    2
   111   178   176   ar
   112   178   180   ar
   113   106   105    1
   114   176   175   ar
   115   127   128    1
   116   171   172    1
   117   171   174    1
   118    85    84    1
   119    85    86    1
   120   128   129    2
   121   102   103    1
   122   102   105    1
   123   102   101    1
   124   153   152    1
   125   190   189    1
   126   172   173    2
   127   139   137    1
   128    75    76    2
   129   138   137    1
   130   180   179   ar
   131   175   174    1
   132   175   177   ar
   133    86    87    2
   134   137   134    1
   135   144   143    2
   136   189   186    1
   137   189   191    1
   138   152   143   am
   139    12    11    2
   140   143   142    1
   141   179   177   ar
   142   186   185    1
   143   186   187    1
   144   188   187    2
   145   134   135    1
   146   134   133    1
   147   136   135    2
   148   185   183   am
   149   184   183    2
   150    11    10    1
   151   183   182    1
   152    15    14    1
   153     9    10    1
   154    13    10    1
   155    13    14    1
   156   142   145    1
   157   142   141    1
   158   145   146    1
   159    95    94    2
   160    92    93    1
   161    14    16    1
   162    94    93    1
   163   182   181    1
   164    93    96    1
   165   146   147   ar
   166   146   148   ar
   167   147   149   ar
   168    97    96    1
   169    97    98    1
   170   148   150   ar
   171     8     6    1
   172   149   151   ar
   173    98   100   am
   174    98    99    2
   175   150   151   ar
   176     6     7    1
   177     6     5    1
   178     5     2    1
   179     2     3    1
   180     2     1    1
   181     3     4    2
