@<TRIPOS>MOLECULE
tmp/6bwwA01.pdb
 143 136 0 0 0
SMALL
GASTEIGER

@<TRIPOS>ATOM
      1  N         36.5070  -28.4230   -9.3880 N.3   148  SER148     -0.1217
      2  CA        36.3720  -27.4680  -10.5010 C.3   148  SER148      0.1889
      3  C         37.3050  -27.8790  -11.6180 C.2   148  SER148      0.2288
      4  O         36.9430  -27.7600  -12.7820 O.2   148  SER148     -0.2866
      5  CB        36.7130  -26.0410  -10.0520 C.3   148  SER148      0.2089
      6  OG        35.7020  -25.5750   -9.1800 O.3   148  SER148     -0.2183
      7  N         36.7010  -28.5530  -15.4850 N.3   152  CYS152     -0.1235
      8  CA        37.5060  -27.7860  -16.4590 C.3   152  CYS152      0.1677
      9  C         38.0990  -28.7230  -17.4870 C.2   152  CYS152      0.2270
     10  O         38.0700  -28.4390  -18.6750 O.2   152  CYS152     -0.2867
     11  CB        38.6090  -26.9910  -15.7680 C.3   152  CYS152      0.0956
     12  SG        38.0370  -25.4830  -14.9690 S.3   152  CYS152     -0.0801
     13  N         36.7400  -27.6360  -20.8860 N.3   156  PHE156     -0.1241
     14  CA        37.7770  -26.7710  -21.4600 C.3   156  PHE156      0.1605
     15  C         39.0160  -27.4800  -21.9110 C.2   156  PHE156      0.2264
     16  O         39.8640  -26.8160  -22.4770 O.2   156  PHE156     -0.2867
     17  CB        38.2320  -25.6910  -20.4480 C.3   156  PHE156      0.0534
     18  CG        37.1380  -24.8210  -19.9070 C.ar  156  PHE156     -0.0203
     19  CD1       36.2430  -24.1960  -20.7600 C.ar  156  PHE156     -0.0042
     20  CD2       37.0870  -24.5000  -18.5600 C.ar  156  PHE156     -0.0042
     21  CE1       35.2500  -23.3690  -20.2640 C.ar  156  PHE156     -0.0003
     22  CE2       36.1050  -23.6480  -18.0670 C.ar  156  PHE156     -0.0003
     23  CZ        35.1920  -23.0920  -18.9150 C.ar  156  PHE156     -0.0000
     24  N         41.5160  -28.5850  -20.1070 N.3   158  LYS158     -0.1245
     25  CA        42.6840  -28.3080  -19.2910 C.3   158  LYS158      0.1561
     26  C         42.3040  -28.0940  -17.8360 C.2   158  LYS158      0.2260
     27  O         41.1380  -27.8980  -17.5170 O.2   158  LYS158     -0.2867
     28  CB        43.4370  -27.0740  -19.8140 C.3   158  LYS158      0.0271
     29  CG        42.6590  -25.7660  -19.7830 C.3   158  LYS158      0.0035
     30  CD        43.6810  -24.6660  -19.6510 C.3   158  LYS158      0.0206
     31  CE        43.1960  -23.3090  -20.0040 C.3   158  LYS158      0.1093
     32  NZ        44.2350  -22.3020  -19.6470 N.3   158  LYS158     -0.1314
     33  N         43.7780  -25.9500  -14.0940 N.3   160  PHE160     -0.1241
     34  CA        44.4430  -24.7200  -13.6650 C.3   160  PHE160      0.1605
     35  C         45.2720  -24.9740  -12.4400 C.2   160  PHE160      0.2264
     36  O         44.8870  -25.7820  -11.5820 O.2   160  PHE160     -0.2867
     37  CB        43.3980  -23.6430  -13.3700 C.3   160  PHE160      0.0534
     38  CG        42.6650  -23.1910  -14.6060 C.ar  160  PHE160     -0.0203
     39  CD1       41.5110  -23.8320  -15.0210 C.ar  160  PHE160     -0.0042
     40  CD2       43.1850  -22.1840  -15.4120 C.ar  160  PHE160     -0.0042
     41  CE1       40.8690  -23.4550  -16.2010 C.ar  160  PHE160     -0.0003
     42  CE2       42.5540  -21.8230  -16.5970 C.ar  160  PHE160     -0.0003
     43  CZ        41.3910  -22.4450  -16.9750 C.ar  160  PHE160     -0.0000
     44  N         46.8310  -20.1060   -9.5450 N.3   164  ASP164     -0.1239
     45  CA        46.5730  -19.2410  -10.6960 C.3   164  ASP164      0.1674
     46  C         45.5870  -18.1470  -10.2340 C.2   164  ASP164      0.2266
     47  O         44.4530  -18.4780   -9.8700 O.2   164  ASP164     -0.2867
     48  CB        46.0430  -20.0900  -11.8430 C.3   164  ASP164      0.1410
     49  CG        45.7230  -19.3660  -13.1400 C.2   164  ASP164      0.3668
     50  OD1       45.2700  -18.2070  -13.0800 O.co2 164  ASP164     -0.2456
     51  OD2       45.7440  -20.0130  -14.1870 O.co2 164  ASP164     -0.2456
     52  N         43.8630  -15.6800  -11.7140 N.3   166  VAL166     -0.1231
     53  CA        42.6840  -15.4240  -12.5340 C.3   166  VAL166      0.1692
     54  C         41.6890  -16.5820  -12.3340 C.2   166  VAL166      0.2592
     55  O         40.5020  -16.3330  -12.1810 O.2   166  VAL166     -0.2718
     56  CB        43.0530  -15.1800  -14.0210 C.3   166  VAL166      0.0266
     57  CG1       41.7980  -14.9470  -14.8660 C.3   166  VAL166      0.0020
     58  CG2       44.0080  -13.9830  -14.1420 C.3   166  VAL166      0.0020
     59  N         42.1860  -17.8310  -12.3070 N.am  167  PHE167     -0.1976
     60  CA        41.3820  -19.0290  -12.0000 C.3   167  PHE167      0.1639
     61  C         40.7210  -18.8030  -10.6230 C.2   167  PHE167      0.2290
     62  O         39.5070  -18.9050  -10.5110 O.2   167  PHE167     -0.2864
     63  CB        42.2780  -20.2820  -11.9760 C.3   167  PHE167      0.0560
     64  CG        41.6980  -21.5360  -11.3530 C.ar  167  PHE167     -0.0200
     65  CD1       40.6180  -22.1830  -11.9310 C.ar  167  PHE167     -0.0042
     66  CD2       42.2870  -22.1150  -10.2380 C.ar  167  PHE167     -0.0042
     67  CE1       40.1110  -23.3630  -11.3840 C.ar  167  PHE167     -0.0003
     68  CE2       41.7630  -23.2710   -9.6730 C.ar  167  PHE167     -0.0003
     69  CZ        40.6860  -23.9010  -10.2630 C.ar  167  PHE167     -0.0000
     70  N         37.7470  -16.1330  -10.5380 N.3   170  LEU170     -0.1231
     71  CA        36.4870  -16.6380  -11.0850 C.3   170  LEU170      0.1693
     72  C         35.8970  -17.7480  -10.2330 C.2   170  LEU170      0.2591
     73  O         34.6770  -17.8160  -10.0690 O.2   170  LEU170     -0.2718
     74  CB        36.6600  -17.0670  -12.5440 C.3   170  LEU170      0.0284
     75  CG        36.8980  -15.9080  -13.5130 C.3   170  LEU170      0.0019
     76  CD1       37.3550  -16.4060  -14.8300 C.3   170  LEU170      0.0001
     77  CD2       35.6540  -15.1070  -13.7390 C.3   170  LEU170      0.0001
     78  N         36.7630  -18.5700   -9.6450 N.am  171  LEU171     -0.1980
     79  CA        36.3700  -19.6260   -8.7210 C.3   171  LEU171      0.1596
     80  C         35.6960  -18.9970   -7.4900 C.2   171  LEU171      0.2287
     81  O         34.6220  -19.4380   -7.0700 O.2   171  LEU171     -0.2864
     82  CB        37.6060  -20.4000   -8.3040 C.3   171  LEU171      0.0297
     83  CG        37.3670  -21.6440   -7.4820 C.3   171  LEU171      0.0022
     84  CD1       38.4740  -22.6440   -7.6950 C.3   171  LEU171      0.0001
     85  CD2       37.2840  -21.3320   -5.9960 C.3   171  LEU171      0.0001
     86  N         32.3510  -17.7970   -8.4450 N.3   174  PHE174     -0.1241
     87  CA        31.4530  -18.9280   -8.6060 C.3   174  PHE174      0.1605
     88  C         30.9910  -19.4590   -7.2310 C.2   174  PHE174      0.2264
     89  O         29.7860  -19.5680   -6.9830 O.2   174  PHE174     -0.2867
     90  CB        32.1390  -20.0440   -9.4180 C.3   174  PHE174      0.0534
     91  CG        31.2150  -21.2120   -9.6560 C.ar  174  PHE174     -0.0203
     92  CD1       30.1360  -21.1010  -10.5270 C.ar  174  PHE174     -0.0042
     93  CD2       31.4250  -22.4200   -9.0190 C.ar  174  PHE174     -0.0042
     94  CE1       29.2870  -22.1800  -10.7490 C.ar  174  PHE174     -0.0003
     95  CE2       30.5560  -23.4880   -9.2170 C.ar  174  PHE174     -0.0003
     96  CZ        29.4920  -23.3560  -10.0680 C.ar  174  PHE174     -0.0000
     97  N         30.6210  -15.1300  -15.1350 N.3   213  ILE213     -0.1245
     98  CA        31.0940  -16.4840  -15.4600 C.3   213  ILE213      0.1561
     99  C         30.6600  -16.8410  -16.9040 C.2   213  ILE213      0.2260
    100  O         31.4580  -17.3930  -17.6480 O.2   213  ILE213     -0.2867
    101  CB        30.6230  -17.5610  -14.4520 C.3   213  ILE213      0.0252
    102  CG1       31.1090  -17.2680  -13.0020 C.3   213  ILE213      0.0019
    103  CG2       31.0730  -18.9670  -14.8850 C.3   213  ILE213      0.0019
    104  CD1       32.6170  -17.1990  -12.8440 C.3   213  ILE213      0.0001
    105  N         32.9290  -15.2940  -19.4590 N.3   216  PHE216     -0.1227
    106  CA        34.1530  -16.0910  -19.5730 C.3   216  PHE216      0.1736
    107  C         33.8830  -17.4010  -20.3650 C.2   216  PHE216      0.2595
    108  O         34.6940  -17.7770  -21.2050 O.2   216  PHE216     -0.2718
    109  CB        34.7080  -16.4330  -18.1900 C.3   216  PHE216      0.0547
    110  CG        35.8660  -17.3830  -18.2130 C.ar  216  PHE216     -0.0202
    111  CD1       37.1580  -16.9210  -18.4100 C.ar  216  PHE216     -0.0042
    112  CD2       35.6660  -18.7500  -18.0690 C.ar  216  PHE216     -0.0042
    113  CE1       38.2210  -17.8100  -18.5130 C.ar  216  PHE216     -0.0003
    114  CE2       36.7300  -19.6400  -18.1920 C.ar  216  PHE216     -0.0003
    115  CZ        38.0000  -19.1630  -18.3980 C.ar  216  PHE216     -0.0000
    116  N         32.7730  -18.0930  -20.0810 N.am  217  ILE217     -0.1980
    117  CA        32.4420  -19.3250  -20.8000 C.3   217  ILE217      0.1595
    118  C         32.2880  -19.0100  -22.3180 C.2   217  ILE217      0.2287
    119  O         32.8690  -19.7050  -23.1480 O.2   217  ILE217     -0.2864
    120  CB        31.2190  -20.0600  -20.2160 C.3   217  ILE217      0.0276
    121  CG1       31.5280  -20.5890  -18.7690 C.3   217  ILE217      0.0022
    122  CG2       30.8320  -21.2380  -21.1370 C.3   217  ILE217      0.0022
    123  CD1       30.3010  -21.0200  -18.0460 C.3   217  ILE217      0.0001
    124  N         37.0010  -19.0170  -28.4810 N.3   223  LYS223     -0.1245
    125  CA        38.3970  -19.4100  -28.5970 C.3   223  LYS223      0.1561
    126  C         38.5340  -20.8850  -29.0500 C.2   223  LYS223      0.2260
    127  O         39.4550  -21.1930  -29.8080 O.2   223  LYS223     -0.2867
    128  CB        39.1260  -19.1780  -27.2870 C.3   223  LYS223      0.0271
    129  CG        40.6260  -19.3160  -27.4070 C.3   223  LYS223      0.0035
    130  CD        41.3150  -18.8310  -26.1500 C.3   223  LYS223      0.0206
    131  CE        41.1410  -19.8190  -25.0230 C.3   223  LYS223      0.1093
    132  NZ        41.7800  -19.3460  -23.7910 N.3   223  LYS223     -0.1314
    133  N         29.2340  -27.0160  -14.0020 N.3   268  PHE268     -0.1241
    134  CA        29.9660  -26.4800  -12.8540 C.3   268  PHE268      0.1605
    135  C         29.0230  -26.4310  -11.6400 C.2   268  PHE268      0.2264
    136  O         29.4370  -26.7680  -10.5470 O.2   268  PHE268     -0.2867
    137  CB        30.5360  -25.0840  -13.1610 C.3   268  PHE268      0.0534
    138  CG        31.8130  -25.1540  -13.9510 C.ar  268  PHE268     -0.0203
    139  CD1       32.9880  -25.5680  -13.3580 C.ar  268  PHE268     -0.0042
    140  CD2       31.8310  -24.8480  -15.3050 C.ar  268  PHE268     -0.0042
    141  CE1       34.1580  -25.6560  -14.0950 C.ar  268  PHE268     -0.0003
    142  CE2       33.0060  -24.9290  -16.0350 C.ar  268  PHE268     -0.0003
    143  CZ        34.1650  -25.2850  -15.4200 C.ar  268  PHE268     -0.0000
@<TRIPOS>BOND
     1   127   126    2
     2   126   125    1
     3   125   124    1
     4   125   128    1
     5   129   128    1
     6   129   130    1
     7   130   131    1
     8   131   132    1
     9   119   118    2
    10    16    15    2
    11   118   117    1
    12    15    14    1
    13    14    13    1
    14    14    17    1
    15   108   107    2
    16   122   120    1
    17   117   120    1
    18   117   116    1
    19    19    21   ar
    20    19    18   ar
    21    17    18    1
    22   107   116   am
    23   107   106    1
    24    21    23   ar
    25   120   121    1
    26    24    25    1
    27    31    30    1
    28    31    32    1
    29    18    20   ar
    30    28    29    1
    31    28    25    1
    32    29    30    1
    33   106   105    1
    34   106   109    1
    35    25    26    1
    36    23    22   ar
    37   121   123    1
    38    10     9    2
    39    20    22   ar
    40   113   111   ar
    41   113   115   ar
    42   111   110   ar
    43   115   114   ar
    44   110   109    1
    45   110   112   ar
    46   114   112   ar
    47    26    27    2
    48   100    99    2
    49     9     8    1
    50    43    42   ar
    51    43    41   ar
    52    99    98    1
    53    42    40   ar
    54     8    11    1
    55     8     7    1
    56    41    39   ar
    57   142   143   ar
    58   142   140   ar
    59    11    12    1
    60    98    97    1
    61    98   101    1
    62   143   141   ar
    63    40    38   ar
    64   140   138   ar
    65    39    38   ar
    66   103   101    1
    67    57    56    1
    68    76    75    1
    69    38    37    1
    70   101   102    1
    71    51    49   ar
    72    58    56    1
    73   141   139   ar
    74    33    34    1
    75    56    53    1
    76   133   134    1
    77   138   139   ar
    78   138   137    1
    79    77    75    1
    80    34    37    1
    81    34    35    1
    82    75    74    1
    83   137   134    1
    84    49    50   ar
    85    49    48    1
    86   102   104    1
    87   134   135    1
    88     4     3    2
    89    74    71    1
    90    53    54    1
    91    53    52    1
    92    35    36    2
    93    54    59   am
    94    54    55    2
    95    59    60    1
    96    60    63    1
    97    60    61    1
    98    63    64    1
    99    65    67   ar
   100    65    64   ar
   101    48    45    1
   102   135   136    2
   103     3     2    1
   104    67    69   ar
   105    64    66   ar
   106    71    70    1
   107    71    72    1
   108    94    92   ar
   109    94    96   ar
   110    45    46    1
   111    45    44    1
   112    61    62    2
   113    92    91   ar
   114     2     5    1
   115     2     1    1
   116    69    68   ar
   117    66    68   ar
   118    46    47    2
   119    72    73    2
   120    72    78   am
   121    96    95   ar
   122     5     6    1
   123    91    90    1
   124    91    93   ar
   125    78    79    1
   126    90    87    1
   127    95    93   ar
   128    79    82    1
   129    79    80    1
   130    87    86    1
   131    87    88    1
   132    82    83    1
   133    84    83    1
   134    80    81    2
   135    83    85    1
   136    88    89    2
