@<TRIPOS>MOLECULE
tmp/6bx6A00.pdb
 149 138 0 0 0
SMALL
GASTEIGER

@<TRIPOS>ATOM
      1  N         51.6680  -36.2190   38.1140 N.3    10  LEU10      -0.1231
      2  CA        51.4790  -36.3430   36.6700 C.3    10  LEU10       0.1693
      3  C         49.9900  -36.2660   36.3370 C.2    10  LEU10       0.2593
      4  O         49.6040  -35.5320   35.4250 O.2    10  LEU10      -0.2718
      5  CB        52.0720  -37.6650   36.1440 C.3    10  LEU10       0.0284
      6  CG        53.5810  -37.8430   36.2480 C.3    10  LEU10       0.0019
      7  CD1       53.9880  -39.2420   35.8280 C.3    10  LEU10       0.0001
      8  CD2       54.3100  -36.8100   35.4120 C.3    10  LEU10       0.0001
      9  N         49.1800  -37.0310   37.0700 N.am   11  GLY11      -0.1942
     10  CA        47.7340  -37.0930   36.8950 C.3    11  GLY11       0.2014
     11  C         46.9790  -37.6090   38.1030 C.2    11  GLY11       0.2638
     12  O         47.5860  -38.0130   39.0990 O.2    11  GLY11      -0.2714
     13  N         45.6370  -37.5650   38.0270 N.am   12  VAL12      -0.1977
     14  CA        44.7300  -38.0370   39.0790 C.3    12  VAL12       0.1596
     15  C         43.7030  -38.9900   38.4530 C.2    12  VAL12       0.2287
     16  O         42.8330  -38.5590   37.6920 O.2    12  VAL12      -0.2864
     17  CB        44.0640  -36.8850   39.8910 C.3    12  VAL12       0.0276
     18  CG1       43.0670  -37.4280   40.9150 C.3    12  VAL12       0.0022
     19  CG2       45.1080  -36.0150   40.5840 C.3    12  VAL12       0.0022
     20  N         48.8240  -40.2700   40.4860 N.3    18  VAL18      -0.1245
     21  CA        49.9830  -40.8660   39.8150 C.3    18  VAL18       0.1561
     22  C         51.0830  -39.7860   39.7380 C.2    18  VAL18       0.2260
     23  O         50.8940  -38.7580   39.0880 O.2    18  VAL18      -0.2867
     24  CB        49.6690  -41.6070   38.4760 C.3    18  VAL18       0.0252
     25  CG1       50.9280  -42.0940   37.7750 C.3    18  VAL18       0.0019
     26  CG2       48.6700  -42.7460   38.6680 C.3    18  VAL18       0.0019
     27  N         57.4190  -43.9150   37.4110 N.3    31  ALA31      -0.1245
     28  CA        56.0480  -43.4320   37.5530 C.3    31  ALA31       0.1562
     29  C         55.3400  -44.2710   38.6100 C.2    31  ALA31       0.2260
     30  O         55.2530  -45.4930   38.4710 O.2    31  ALA31      -0.2867
     31  CB        55.3230  -43.5180   36.2230 C.3    31  ALA31       0.0290
     32  N         51.9380  -45.1680   40.5740 N.3    33  LYS33      -0.1245
     33  CA        50.4750  -45.1390   40.6180 C.3    33  LYS33       0.1561
     34  C         50.0680  -45.4460   42.0550 C.2    33  LYS33       0.2260
     35  O         50.2800  -46.5670   42.5310 O.2    33  LYS33      -0.2867
     36  CB        49.8540  -46.1670   39.6550 C.3    33  LYS33       0.0271
     37  CG        49.7970  -45.6780   38.2340 C.3    33  LYS33       0.0035
     38  CD        49.1410  -46.6960   37.3160 C.3    33  LYS33       0.0206
     39  CE        48.6970  -46.1850   36.0100 C.3    33  LYS33       0.1093
     40  NZ        49.7080  -45.6140   35.1350 N.3    33  LYS33      -0.1314
     41  N         53.9310  -50.1250   28.8870 N.3    65  ILE65      -0.1245
     42  CA        54.5610  -49.6470   30.1250 C.3    65  ILE65       0.1561
     43  C         54.7260  -50.8240   31.0970 C.2    65  ILE65       0.2260
     44  O         53.7410  -51.4820   31.4430 O.2    65  ILE65      -0.2867
     45  CB        53.7860  -48.4400   30.7330 C.3    65  ILE65       0.0252
     46  CG1       53.8680  -47.2200   29.7980 C.3    65  ILE65       0.0019
     47  CG2       54.2950  -48.0780   32.1350 C.3    65  ILE65       0.0019
     48  CD1       52.6370  -46.3570   29.7670 C.3    65  ILE65       0.0001
     49  N         56.2450  -48.0630   38.0520 N.3    81  MET81      -0.1230
     50  CA        56.2530  -48.3190   36.6130 C.3    81  MET81       0.1702
     51  C         57.2590  -47.4320   35.8880 C.2    81  MET81       0.2595
     52  O         57.7980  -46.5040   36.4910 O.2    81  MET81      -0.2718
     53  CB        54.8450  -48.0990   36.0470 C.3    81  MET81       0.0401
     54  CG        53.8580  -49.1210   36.5200 C.3    81  MET81       0.0596
     55  SD        52.2080  -48.7870   35.9110 S.3    81  MET81      -0.1393
     56  CE        52.4310  -49.2220   34.1820 C.3    81  MET81       0.0692
     57  N         57.5180  -47.7130   34.5950 N.am   82  GLU82      -0.1920
     58  CA        58.4560  -46.9080   33.8140 C.3    82  GLU82       0.1949
     59  C         57.8520  -45.5610   33.4410 C.2    82  GLU82       0.2659
     60  O         56.6760  -45.4950   33.0740 O.2    82  GLU82      -0.2711
     61  CB        59.0240  -47.6670   32.5940 C.2    82  GLU82       0.0111
     62  CG        58.0170  -48.1050   31.5410 C.2    82  GLU82       0.0838
     63  CD        58.6070  -48.4630   30.1910 C.2    82  GLU82       0.3877
     64  OE1       58.3830  -49.6060   29.7310 O.co2  82  GLU82      -0.2406
     65  OE2       59.2710  -47.5950   29.5790 O.co2  82  GLU82      -0.2406
     66  N         58.6420  -44.4840   33.5960 N.am   83  TYR83      -0.1957
     67  CA        58.2090  -43.1290   33.2710 C.3    83  TYR83       0.1771
     68  C         58.4870  -42.8380   31.8030 C.2    83  TYR83       0.2619
     69  O         59.6340  -42.9160   31.3570 O.2    83  TYR83      -0.2715
     70  CB        58.8530  -42.0830   34.2110 C.3    83  TYR83       0.0574
     71  CG        58.7270  -40.6480   33.7350 C.ar   83  TYR83      -0.0198
     72  CD1       57.5010  -39.9880   33.7600 C.ar   83  TYR83      -0.0009
     73  CD2       59.8350  -39.9490   33.2700 C.ar   83  TYR83      -0.0009
     74  CE1       57.3770  -38.6750   33.3090 C.ar   83  TYR83       0.0417
     75  CE2       59.7250  -38.6330   32.8230 C.ar   83  TYR83       0.0417
     76  CZ        58.4950  -38.0000   32.8450 C.ar   83  TYR83       0.1957
     77  OH        58.3950  -36.6990   32.4160 O.3    83  TYR83      -0.2866
     78  N         57.4180  -42.5290   31.0550 N.am   84  VAL84      -0.1963
     79  CA        57.4530  -42.2070   29.6290 C.3    84  VAL84       0.1727
     80  C         57.5820  -40.6790   29.5430 C.2    84  VAL84       0.2616
     81  O         56.6560  -39.9590   29.9120 O.2    84  VAL84      -0.2715
     82  CB        56.2150  -42.7780   28.8780 C.3    84  VAL84       0.0290
     83  CG1       56.2030  -42.3320   27.4260 C.3    84  VAL84       0.0023
     84  CG2       56.1830  -44.2990   28.9480 C.3    84  VAL84       0.0023
     85  N         58.7680  -40.2050   29.1210 N.am   85  SER85      -0.1950
     86  CA        59.1790  -38.8000   29.0630 C.3    85  SER85       0.1924
     87  C         58.3270  -37.8570   28.1980 C.2    85  SER85       0.2314
     88  O         57.8610  -36.8410   28.7150 O.2    85  SER85      -0.2863
     89  CB        60.6360  -38.6990   28.6280 C.3    85  SER85       0.2116
     90  OG        60.8090  -39.2330   27.3260 O.3    85  SER85      -0.2180
     91  N         55.3060  -37.4880   27.0100 N.3    87  GLY87      -0.1210
     92  CA        53.8500  -37.3930   27.1350 C.3    87  GLY87       0.1956
     93  C         53.0280  -38.1610   26.1140 C.2    87  GLY87       0.2611
     94  O         53.4640  -39.2050   25.6220 O.2    87  GLY87      -0.2717
     95  N         51.8300  -37.6400   25.7810 N.am   88  GLU88      -0.1979
     96  CA        50.8960  -38.2630   24.8290 C.3    88  GLU88       0.1602
     97  C         51.2800  -38.0480   23.3630 C.2    88  GLU88       0.2287
     98  O         51.9020  -37.0380   23.0310 O.2    88  GLU88      -0.2864
     99  CB        49.4490  -37.7940   25.0740 C.3    88  GLU88       0.0415
    100  CG        48.9380  -38.0600   26.4800 C.3    88  GLU88       0.1163
    101  CD        47.4390  -38.2050   26.6660 C.2    88  GLU88       0.3649
    102  OE1       47.0370  -38.8280   27.6750 O.co2  88  GLU88      -0.2457
    103  OE2       46.6670  -37.6960   25.8210 O.co2  88  GLU88      -0.2457
    104  N         49.1480  -35.1800   21.6310 N.3    91  ASP91      -0.1239
    105  CA        49.6170  -33.8630   22.0730 C.3    91  ASP91       0.1674
    106  C         50.6650  -33.3550   21.0770 C.2    91  ASP91       0.2266
    107  O         50.7000  -32.1630   20.7760 O.2    91  ASP91      -0.2867
    108  CB        50.2300  -33.9400   23.4860 C.3    91  ASP91       0.1410
    109  CG        49.2620  -34.1890   24.6330 C.2    91  ASP91       0.3668
    110  OD1       49.7350  -34.4780   25.7540 O.co2  91  ASP91      -0.2456
    111  OD2       48.0330  -34.0760   24.4150 O.co2  91  ASP91      -0.2456
    112  N         44.6030  -41.6740   24.7710 N.3   131  GLU131     -0.1231
    113  CA        45.1600  -41.2910   26.0730 C.3   131  GLU131      0.1699
    114  C         46.2020  -42.3220   26.5120 C.2   131  GLU131      0.2592
    115  O         47.1780  -41.9630   27.1730 O.2   131  GLU131     -0.2718
    116  CB        44.0480  -41.2340   27.1360 C.3   131  GLU131      0.0402
    117  CG        42.9890  -40.1750   26.8900 C.3   131  GLU131      0.1161
    118  CD        41.6470  -40.4730   27.5260 C.2   131  GLU131      0.3649
    119  OE1       41.5910  -40.6170   28.7690 O.co2 131  GLU131     -0.2457
    120  OE2       40.6450  -40.5490   26.7800 O.co2 131  GLU131     -0.2457
    121  N         45.9710  -43.6060   26.1610 N.am  132  ASN132     -0.1974
    122  CA        46.8350  -44.7440   26.4840 C.3   132  ASN132      0.1688
    123  C         48.1460  -44.7060   25.7150 C.2   132  ASN132      0.2292
    124  O         49.1650  -45.1330   26.2520 O.2   132  ASN132     -0.2864
    125  CB        46.1140  -46.0680   26.2230 C.3   132  ASN132      0.1181
    126  CG        44.9060  -46.2860   27.0980 C.2   132  ASN132      0.2629
    127  OD1       43.7780  -45.9370   26.7390 O.2   132  ASN132     -0.2716
    128  ND2       45.1140  -46.8780   28.2620 N.am  132  ASN132     -0.0877
    129  N         51.4060  -43.2540   24.5140 N.3   134  LEU134     -0.1245
    130  CA        52.4030  -42.2710   24.9460 C.3   134  LEU134      0.1561
    131  C         53.6680  -42.4010   24.1020 C.2   134  LEU134      0.2260
    132  O         53.8490  -43.4160   23.4320 O.2   134  LEU134     -0.2867
    133  CB        52.7320  -42.4330   26.4460 C.3   134  LEU134      0.0270
    134  CG        51.5710  -42.3040   27.4440 C.3   134  LEU134      0.0019
    135  CD1       51.9520  -42.8660   28.7900 C.3   134  LEU134      0.0001
    136  CD2       51.1360  -40.8620   27.6160 C.3   134  LEU134      0.0001
    137  N         49.7010  -47.8680   27.7490 N.3   144  ALA144     -0.1245
    138  CA        49.3140  -48.2730   29.0920 C.3   144  ALA144      0.1562
    139  C         48.2680  -49.3860   28.9790 C.2   144  ALA144      0.2260
    140  O         47.4090  -49.3370   28.0930 O.2   144  ALA144     -0.2867
    141  CB        48.7280  -47.0960   29.8330 C.3   144  ALA144      0.0290
    142  N         44.4140  -47.9760   35.5470 N.3   150  ASN150     -0.1240
    143  CA        44.4530  -46.7550   34.7390 C.3   150  ASN150      0.1653
    144  C         43.2340  -46.6340   33.8240 C.2   150  ASN150      0.2266
    145  O         42.1120  -46.4900   34.3030 O.2   150  ASN150     -0.2867
    146  CB        45.7630  -46.6330   33.9530 C.3   150  ASN150      0.1155
    147  CG        45.9920  -47.7060   32.9170 C.2   150  ASN150      0.2627
    148  OD1       45.0530  -48.1960   32.2890 O.2   150  ASN150     -0.2716
    149  ND2       47.2380  -48.1330   32.7550 N.am  150  ASN150     -0.0877
@<TRIPOS>BOND
     1   107   106    2
     2   106   105    1
     3   104   105    1
     4   105   108    1
     5    98    97    2
     6    97    96    1
     7   132   131    2
     8   108   109    1
     9   131   130    1
    10   111   109   ar
    11   129   130    1
    12   109   110   ar
    13   112   113    1
    14    96    99    1
    15    96    95    1
    16   130   133    1
    17    99   100    1
    18    94    93    2
    19   123   124    2
    20   123   122    1
    21    95    93   am
    22   103   101   ar
    23   113   114    1
    24   113   116    1
    25    93    92    1
    26   121   122    1
    27   121   114   am
    28   125   122    1
    29   125   126    1
    30   133   134    1
    31   100   101    1
    32   114   115    2
    33   101   102   ar
    34   127   126    2
    35   120   118   ar
    36   117   116    1
    37   117   118    1
    38    91    92    1
    39   126   128   am
    40    90    89    1
    41    83    82    1
    42   134   136    1
    43   134   135    1
    44   118   119   ar
    45   137   138    1
    46   140   139    2
    47    87    88    2
    48    87    86    1
    49    89    86    1
    50    82    84    1
    51    82    79    1
    52    41    42    1
    53   139   138    1
    54    86    85    1
    55   138   141    1
    56    85    80   am
    57    80    79    1
    58    80    81    2
    59    65    63   ar
    60    79    78    1
    61    64    63   ar
    62    48    46    1
    63    46    45    1
    64    42    45    1
    65    42    43    1
    66    63    62    1
    67    45    47    1
    68    78    68   am
    69    43    44    2
    70    69    68    2
    71    62    61    2
    72    68    67    1
    73   148   147    2
    74    77    76    1
    75    61    58    1
    76   149   147   am
    77    75    76   ar
    78    75    73   ar
    79    76    74   ar
    80   147   146    1
    81    60    59    2
    82    73    71   ar
    83    67    66    1
    84    67    70    1
    85    74    72   ar
    86    59    66   am
    87    59    58    1
    88    71    72   ar
    89    71    70    1
    90    58    57    1
    91   144   145    2
    92   144   143    1
    93   146   143    1
    94    56    55    1
    95    57    51   am
    96   143   142    1
    97    40    39    1
    98     8     6    1
    99     4     3    2
   100     7     6    1
   101    51    52    2
   102    51    50    1
   103    55    54    1
   104    39    38    1
   105    53    54    1
   106    53    50    1
   107     5     6    1
   108     5     2    1
   109    31    28    1
   110     3     2    1
   111     3     9   am
   112    50    49    1
   113     2     1    1
   114    10     9    1
   115    10    11    1
   116    38    37    1
   117    27    28    1
   118    28    29    1
   119    16    15    2
   120    25    24    1
   121    13    11   am
   122    13    14    1
   123    11    12    2
   124    37    36    1
   125    15    14    1
   126    30    29    2
   127    24    26    1
   128    24    21    1
   129    14    17    1
   130    23    22    2
   131    36    33    1
   132    22    21    1
   133    21    20    1
   134    17    19    1
   135    17    18    1
   136    32    33    1
   137    33    34    1
   138    34    35    2
