@<TRIPOS>MOLECULE
tmp/6bxaA03.pdb
 106 98 0 0 0
SMALL
GASTEIGER

@<TRIPOS>ATOM
      1  N          9.3800   39.6730   60.9750 N.3   277  SER277     -0.1202
      2  CA        10.0870   40.7840   60.3460 C.3   277  SER277      0.2020
      3  C          9.7700   40.8670   58.8540 C.2   277  SER277      0.2618
      4  O          9.2720   39.9120   58.2610 O.2   277  SER277     -0.2717
      5  CB        11.6050   40.6540   60.5500 C.3   277  SER277      0.2103
      6  OG        12.0990   39.5090   59.8700 O.3   277  SER277     -0.2182
      7  N         10.0720   42.0210   58.2610 N.am  278  LYS278     -0.1979
      8  CA         9.8880   42.2850   56.8270 C.3   278  LYS278      0.1596
      9  C          8.4750   42.0750   56.3370 C.2   278  LYS278      0.2287
     10  O          8.2530   41.5850   55.2280 O.2   278  LYS278     -0.2864
     11  CB        10.8370   41.4280   55.9950 C.3   278  LYS278      0.0298
     12  CG        12.2870   41.5630   56.3970 C.3   278  LYS278      0.0038
     13  CD        13.1700   40.8740   55.3770 C.3   278  LYS278      0.0206
     14  CE        14.3800   40.2410   56.0390 C.3   278  LYS278      0.1093
     15  NZ        13.9990   39.2550   57.1100 N.3   278  LYS278     -0.1314
     16  N         10.9100   39.2590   66.9940 N.3   299  THR299     -0.1218
     17  CA        11.3380   40.3600   66.1430 C.3   299  THR299      0.1862
     18  C         10.2230   40.8320   65.2110 C.2   299  THR299      0.2287
     19  O          9.5410   40.0320   64.5520 O.2   299  THR299     -0.2866
     20  CB        12.5800   40.0170   65.3080 C.3   299  THR299      0.1770
     21  OG1       12.8310   41.0940   64.3920 O.3   299  THR299     -0.2211
     22  CG2       12.3880   38.7260   64.5170 C.3   299  THR299      0.0375
     23  N         11.1750   43.6020   63.2710 N.3   301  ALA301     -0.1231
     24  CA        12.0110   44.5010   62.4860 C.3   301  ALA301      0.1694
     25  C         11.5090   44.6670   61.0480 C.2   301  ALA301      0.2591
     26  O         10.9130   43.7680   60.4880 O.2   301  ALA301     -0.2718
     27  CB        13.4610   44.0150   62.4740 C.3   301  ALA301      0.0304
     28  N         11.7630   45.8400   60.4720 N.am  302  GLN302     -0.1979
     29  CA        11.4410   46.1340   59.0850 C.3   302  GLN302      0.1601
     30  C          9.9730   45.9240   58.7170 C.2   302  GLN302      0.2287
     31  O          9.6610   45.3360   57.6800 O.2   302  GLN302     -0.2864
     32  CB        12.3290   45.2980   58.1750 C.3   302  GLN302      0.0394
     33  CG        13.8060   45.4680   58.5040 C.3   302  GLN302      0.0908
     34  CD        14.6910   44.7300   57.5370 C.2   302  GLN302      0.2608
     35  OE1       15.2730   43.7160   57.8830 O.2   302  GLN302     -0.2717
     36  NE2       14.7950   45.2330   56.3220 N.am  302  GLN302     -0.0878
     37  N         13.5420   39.3870   74.6600 N.3   321  LYS321     -0.1245
     38  CA        14.0880   40.1670   73.5770 C.3   321  LYS321      0.1561
     39  C         12.9980   40.6670   72.6310 C.2   321  LYS321      0.2260
     40  O         12.1520   39.9010   72.1580 O.2   321  LYS321     -0.2867
     41  CB        15.1320   39.3540   72.8020 C.3   321  LYS321      0.0271
     42  CG        15.7120   40.1500   71.6350 C.3   321  LYS321      0.0035
     43  CD        16.8880   39.4430   70.9960 C.3   321  LYS321      0.0206
     44  CE        17.4350   40.2630   69.8400 C.3   321  LYS321      0.1093
     45  NZ        18.4980   39.5330   69.0960 N.3   321  LYS321     -0.1314
     46  N         12.6990   43.0590   69.2030 N.3   323  ASN323     -0.1240
     47  CA        13.3420   43.8020   68.1310 C.3   323  ASN323      0.1653
     48  C         12.3100   44.5960   67.3210 C.2   323  ASN323      0.2266
     49  O         11.4600   44.0070   66.6320 O.2   323  ASN323     -0.2867
     50  CB        14.1290   42.8410   67.2290 C.3   323  ASN323      0.1155
     51  CG        15.0990   43.5690   66.3160 C.2   323  ASN323      0.2627
     52  OD1       14.9620   44.7700   66.1000 O.2   323  ASN323     -0.2716
     53  ND2       16.0740   42.8480   65.7720 N.am  323  ASN323     -0.0877
     54  N         13.4680   47.2740   65.3600 N.3   325  SER325     -0.1202
     55  CA        14.3190   48.0640   64.4850 C.3   325  SER325      0.2020
     56  C         13.7450   48.2620   63.0740 C.2   325  SER325      0.2618
     57  O         13.0960   47.3740   62.5110 O.2   325  SER325     -0.2717
     58  CB        15.7020   47.4130   64.3840 C.3   325  SER325      0.2103
     59  OG        16.6310   48.2810   63.7500 O.3   325  SER325     -0.2182
     60  N         14.0530   49.4170   62.4930 N.am  326  GLN326     -0.1979
     61  CA        13.6190   49.7760   61.1440 C.3   326  GLN326      0.1601
     62  C         12.1030   49.8070   61.0220 C.2   326  GLN326      0.2287
     63  O         11.5130   49.0890   60.2170 O.2   326  GLN326     -0.2864
     64  CB        14.2390   48.8110   60.1300 C.3   326  GLN326      0.0394
     65  CG        15.7540   48.9940   60.0450 C.3   326  GLN326      0.0908
     66  CD        16.4130   48.0330   59.0860 C.2   326  GLN326      0.2608
     67  OE1       17.1990   47.1760   59.5030 O.2   326  GLN326     -0.2717
     68  NE2       16.0930   48.1520   57.8070 N.am  326  GLN326     -0.0878
     69  N         16.4760   42.8050   76.3600 N.3   345  VAL345     -0.1245
     70  CA        17.0340   43.4130   75.1570 C.3   345  VAL345      0.1561
     71  C         15.9100   44.1060   74.3810 C.2   345  VAL345      0.2260
     72  O         14.9100   43.4740   74.0520 O.2   345  VAL345     -0.2867
     73  CB        17.7290   42.3620   74.2440 C.3   345  VAL345      0.0252
     74  CG1       18.2090   43.0040   72.9380 C.3   345  VAL345      0.0019
     75  CG2       18.8960   41.6840   74.9770 C.3   345  VAL345      0.0019
     76  N         15.4560   46.7230   71.0130 N.3   347  ASP347     -0.1239
     77  CA        16.0400   47.4260   69.8730 C.3   347  ASP347      0.1674
     78  C         15.0500   48.4160   69.2630 C.2   347  ASP347      0.2266
     79  O         14.0690   48.0100   68.6260 O.2   347  ASP347     -0.2867
     80  CB        16.5010   46.4340   68.8080 C.3   347  ASP347      0.1410
     81  CG        17.4030   47.0770   67.7600 C.2   347  ASP347      0.3668
     82  OD1       17.3870   48.3210   67.6170 O.co2 347  ASP347     -0.2456
     83  OD2       18.1320   46.3270   67.0660 O.co2 347  ASP347     -0.2456
     84  N         20.0820   45.5840   77.5650 N.3   369  GLU369     -0.1245
     85  CA        20.5380   46.2210   76.3290 C.3   369  GLU369      0.1567
     86  C         19.4550   47.0820   75.7010 C.2   369  GLU369      0.2260
     87  O         18.3470   46.6190   75.4380 O.2   369  GLU369     -0.2867
     88  CB        21.0180   45.1700   75.3300 C.3   369  GLU369      0.0388
     89  CG        22.1700   44.3200   75.9010 C.3   369  GLU369      0.1160
     90  CD        22.7770   43.3470   74.9090 C.2   369  GLU369      0.3649
     91  OE1       22.7580   43.6280   73.6900 O.co2 369  GLU369     -0.2457
     92  OE2       23.3330   42.3220   75.3540 O.co2 369  GLU369     -0.2457
     93  N         23.0050   52.0150   73.1300 N.3   395  TRP395     -0.1241
     94  CA        23.4080   52.6340   71.8730 C.3   395  TRP395      0.1605
     95  C         22.6690   53.9640   71.7250 C.2   395  TRP395      0.2264
     96  O         21.4400   54.0010   71.7580 O.2   395  TRP395     -0.2867
     97  CB        23.0870   51.7240   70.6740 C.3   395  TRP395      0.0550
     98  CG        23.9160   50.4590   70.5300 C.ar  395  TRP395      0.0003
     99  CD1       24.9480   50.2530   69.6540 C.ar  395  TRP395      0.0946
    100  CD2       23.7600   49.2280   71.2570 C.ar  395  TRP395      0.0152
    101  NE1       25.4530   48.9780   69.7970 N.ar  395  TRP395     -0.2442
    102  CE2       24.7460   48.3240   70.7690 C.ar  395  TRP395      0.0810
    103  CE3       22.8950   48.8020   72.2710 C.ar  395  TRP395      0.0012
    104  CZ2       24.8900   47.0270   71.2640 C.ar  395  TRP395      0.0191
    105  CZ3       23.0320   47.5090   72.7620 C.ar  395  TRP395      0.0001
    106  CH2       24.0280   46.6350   72.2570 C.ar  395  TRP395      0.0015
@<TRIPOS>BOND
     1    10     9    2
     2    13    14    1
     3    13    12    1
     4    11    12    1
     5    11     8    1
     6    14    15    1
     7    36    34   am
     8     9     8    1
     9     8     7    1
    10    34    35    2
    11    34    33    1
    12    31    30    2
    13    68    66   am
    14    32    33    1
    15    32    29    1
    16     7     3   am
    17     4     3    2
    18    30    29    1
    19     3     2    1
    20    29    28    1
    21    66    67    2
    22    66    65    1
    23     6     5    1
    24    65    64    1
    25    64    61    1
    26    63    62    2
    27     2     5    1
    28     2     1    1
    29    28    25   am
    30    26    25    2
    31    62    61    1
    32    25    24    1
    33    61    60    1
    34    27    24    1
    35    24    23    1
    36    60    56   am
    37    57    56    2
    38    56    55    1
    39    59    58    1
    40    58    55    1
    41    21    20    1
    42    55    54    1
    43    22    20    1
    44    19    18    2
    45    18    17    1
    46    20    17    1
    47    53    51   am
    48    52    51    2
    49    17    16    1
    50    51    50    1
    51    49    48    2
    52    83    81   ar
    53    50    47    1
    54    48    47    1
    55    82    81   ar
    56    81    80    1
    57    47    46    1
    58    79    78    2
    59    80    77    1
    60    45    44    1
    61    78    77    1
    62    99   101   ar
    63    99    98   ar
    64   101   102   ar
    65    44    43    1
    66    77    76    1
    67    98    97    1
    68    98   100   ar
    69    97    94    1
    70   102   100   ar
    71   102   104   ar
    72    43    42    1
    73   100   103   ar
    74   104   106   ar
    75    42    41    1
    76    95    96    2
    77    95    94    1
    78    94    93    1
    79    40    39    2
    80   106   105   ar
    81   103   105   ar
    82    39    38    1
    83    41    38    1
    84    74    73    1
    85    38    37    1
    86    91    90   ar
    87    72    71    2
    88    73    75    1
    89    73    70    1
    90    71    70    1
    91    90    92   ar
    92    90    89    1
    93    70    69    1
    94    88    89    1
    95    88    85    1
    96    87    86    2
    97    86    85    1
    98    85    84    1
