@<TRIPOS>MOLECULE
tmp/6bxdA00.pdb
 76 69 0 0 0
SMALL
GASTEIGER

@<TRIPOS>ATOM
      1  N        -66.5010    0.5190   70.5390 N.3    12  THR12      -0.1218
      2  CA       -66.6550    0.6110   69.0920 C.3    12  THR12       0.1862
      3  C        -68.0900    0.2720   68.7050 C.2    12  THR12       0.2287
      4  O        -68.6520   -0.7180   69.1750 O.2    12  THR12      -0.2866
      5  CB       -65.6860   -0.3360   68.3810 C.3    12  THR12       0.1770
      6  OG1      -64.3420    0.1030   68.6080 O.3    12  THR12      -0.2211
      7  CG2      -65.9610   -0.3940   66.8760 C.3    12  THR12       0.0375
      8  N        -70.1920   -0.4920   65.3390 N.3    14  ASP14      -0.1239
      9  CA       -70.0810   -0.8200   63.9140 C.3    14  ASP14       0.1674
     10  C        -71.4840   -0.8290   63.3140 C.2    14  ASP14       0.2266
     11  O        -72.2200   -1.8130   63.4330 O.2    14  ASP14      -0.2867
     12  CB       -69.3680   -2.1580   63.7160 C.3    14  ASP14       0.1410
     13  CG       -69.1310   -2.4930   62.2410 C.2    14  ASP14       0.3668
     14  OD1      -69.5640   -1.7300   61.3490 O.co2  14  ASP14      -0.2456
     15  OD2      -68.4970   -3.5350   61.9650 O.co2  14  ASP14      -0.2456
     16  N        -71.8210   -0.2820   60.0000 N.3    16  SER16      -0.1202
     17  CA       -71.4970   -0.2900   58.5820 C.3    16  SER16       0.2020
     18  C        -72.3180   -1.3260   57.8160 C.2    16  SER16       0.2619
     19  O        -72.7060   -2.3720   58.3440 O.2    16  SER16      -0.2717
     20  CB       -70.0050   -0.5610   58.3860 C.3    16  SER16       0.2103
     21  OG       -69.6730   -1.9130   58.6380 O.3    16  SER16      -0.2182
     22  N        -72.5790   -1.0250   56.5480 N.am   17  GLY17      -0.1956
     23  CA       -73.1470   -2.0160   55.6500 C.3    17  GLY17       0.1869
     24  C        -74.5420   -2.4700   56.0140 C.2    17  GLY17       0.2309
     25  O        -74.8630   -3.6570   55.8630 O.2    17  GLY17      -0.2863
     26  N        -65.1520    4.7910   68.7430 N.3    33  VAL33      -0.1245
     27  CA       -64.9740    4.4660   67.3300 C.3    33  VAL33       0.1561
     28  C        -66.3640    4.2510   66.7510 C.2    33  VAL33       0.2260
     29  O        -67.1340    3.4380   67.2720 O.2    33  VAL33      -0.2867
     30  CB       -64.1140    3.2030   67.1410 C.3    33  VAL33       0.0252
     31  CG1      -64.0110    2.8210   65.6700 C.3    33  VAL33       0.0019
     32  CG2      -62.7270    3.4010   67.7450 C.3    33  VAL33       0.0019
     33  N        -68.2990    3.4060   63.1960 N.3    35  GLY35      -0.1225
     34  CA       -68.2440    2.9840   61.8180 C.3    35  GLY35       0.1811
     35  C        -69.5950    3.1160   61.1460 C.2    35  GLY35       0.2280
     36  O        -70.5520    2.4350   61.5140 O.2    35  GLY35      -0.2866
     37  N        -69.6090    3.2310   57.5400 N.3    37  SER37      -0.1202
     38  CA       -69.2490    3.0770   56.1430 C.3    37  SER37       0.2020
     39  C        -70.2470    2.1980   55.3990 C.2    37  SER37       0.2619
     40  O        -70.9980    1.4050   55.9830 O.2    37  SER37      -0.2717
     41  CB       -67.8440    2.4910   56.0020 C.3    37  SER37       0.2103
     42  OG       -67.7460    1.2280   56.6380 O.3    37  SER37      -0.2182
     43  N        -70.2530    2.3720   54.0800 N.am   38  SER38      -0.1951
     44  CA       -70.9720    1.4810   53.1770 C.3    38  SER38       0.1924
     45  C        -72.4590    1.4590   53.5010 C.2    38  SER38       0.2314
     46  O        -73.0770    0.4020   53.6320 O.2    38  SER38      -0.2863
     47  CB       -70.3770    0.0730   53.1690 C.3    38  SER38       0.2116
     48  OG       -68.9870    0.1260   52.8640 O.3    38  SER38      -0.2180
     49  N        -65.8140    6.9180   60.7350 N.3    59  VAL59      -0.1245
     50  CA       -65.6830    6.3190   59.4020 C.3    59  VAL59       0.1561
     51  C        -66.9720    6.5430   58.6240 C.2    59  VAL59       0.2260
     52  O        -68.0090    5.9490   58.9460 O.2    59  VAL59      -0.2867
     53  CB       -65.3290    4.8260   59.4580 C.3    59  VAL59       0.0252
     54  CG1      -65.0260    4.3080   58.0440 C.3    59  VAL59       0.0019
     55  CG2      -64.1630    4.5820   60.4000 C.3    59  VAL59       0.0019
     56  N        -66.6860    6.4780   55.0250 N.3    61  TYR61      -0.1227
     57  CA       -66.3230    5.9260   53.7240 C.3    61  TYR61       0.1736
     58  C        -67.5140    5.2730   53.0350 C.2    61  TYR61       0.2595
     59  O        -68.2780    4.5290   53.6520 O.2    61  TYR61      -0.2718
     60  CB       -65.2310    4.8740   53.9970 C.3    61  TYR61       0.0548
     61  CG       -65.0020    3.8400   52.9250 C.ar   61  TYR61      -0.0200
     62  CD1      -64.3990    4.1820   51.7190 C.ar   61  TYR61      -0.0009
     63  CD2      -65.3510    2.5120   53.1270 C.ar   61  TYR61      -0.0009
     64  CE1      -64.1850    3.2370   50.7330 C.ar   61  TYR61       0.0417
     65  CE2      -65.1400    1.5620   52.1530 C.ar   61  TYR61       0.0417
     66  CZ       -64.5500    1.9250   50.9610 C.ar   61  TYR61       0.1957
     67  OH       -64.3370    0.9750   49.9850 O.3    61  TYR61      -0.2866
     68  N        -67.6530    5.5330   51.7350 N.am   62  GLN62      -0.1979
     69  CA       -68.6320    4.8340   50.9040 C.3    62  GLN62       0.1601
     70  C        -70.0660    5.1370   51.3480 C.2    62  GLN62       0.2287
     71  O        -70.8600    4.2570   51.6870 O.2    62  GLN62      -0.2864
     72  CB       -68.3540    3.3290   50.8130 C.3    62  GLN62       0.0394
     73  CG       -69.0280    2.6740   49.6340 C.3    62  GLN62       0.0908
     74  CD       -68.4630    1.3040   49.3430 C.2    62  GLN62       0.2608
     75  OE1      -68.4460    0.4320   50.2100 O.2    62  GLN62      -0.2717
     76  NE2      -67.9820    1.1090   48.1190 N.am   62  GLN62      -0.0878
@<TRIPOS>BOND
     1    76    74   am
     2    74    73    1
     3    74    75    2
     4    73    72    1
     5    67    66    1
     6    64    66   ar
     7    64    62   ar
     8    72    69    1
     9    69    70    1
    10    69    68    1
    11    66    65   ar
    12    70    71    2
    13    62    61   ar
    14    68    58   am
    15    65    63   ar
    16    48    47    1
    17    61    63   ar
    18    61    60    1
    19    58    59    2
    20    58    57    1
    21    47    44    1
    22    44    45    1
    23    44    43    1
    24    45    46    2
    25    57    60    1
    26    57    56    1
    27    43    39   am
    28    39    40    2
    29    39    38    1
    30    23    24    1
    31    23    22    1
    32    25    24    2
    33    41    38    1
    34    41    42    1
    35    38    37    1
    36    22    18   am
    37    18    19    2
    38    18    17    1
    39    54    53    1
    40    20    17    1
    41    20    21    1
    42    17    16    1
    43    51    52    2
    44    51    50    1
    45    50    53    1
    46    50    49    1
    47    53    55    1
    48    35    36    2
    49    35    34    1
    50    14    13   ar
    51    34    33    1
    52    15    13   ar
    53    13    12    1
    54    10    11    2
    55    10     9    1
    56    12     9    1
    57     9     8    1
    58    31    30    1
    59    28    29    2
    60    28    27    1
    61     7     5    1
    62    30    27    1
    63    30    32    1
    64    27    26    1
    65     5     6    1
    66     5     2    1
    67     3     2    1
    68     3     4    2
    69     2     1    1
