@<TRIPOS>MOLECULE
tmp/6bxhA00.pdb
 210 201 0 0 0
SMALL
GASTEIGER

@<TRIPOS>ATOM
      1  N        -23.3920    6.4960   -5.4710 N.3   133  SER133     -0.1202
      2  CA       -23.8430    5.9510   -6.7500 C.3   133  SER133      0.2020
      3  C        -22.8750    4.8980   -7.2810 C.2   133  SER133      0.2619
      4  O        -23.2710    3.7620   -7.5650 O.2   133  SER133     -0.2717
      5  CB       -24.0340    7.0800   -7.7650 C.3   133  SER133      0.2103
      6  OG       -23.0540    8.0870   -7.6030 O.3   133  SER133     -0.2182
      7  N        -21.5940    5.2510   -7.4110 N.am  134  SER134     -0.1951
      8  CA       -20.6260    4.2950   -7.9380 C.3   134  SER134      0.1924
      9  C        -20.3580    3.1460   -6.9730 C.2   134  SER134      0.2314
     10  O        -19.9360    2.0720   -7.4130 O.2   134  SER134     -0.2863
     11  CB       -19.3150    5.0020   -8.2890 C.3   134  SER134      0.2116
     12  OG       -18.8160    5.7450   -7.1920 O.3   134  SER134     -0.2180
     13  N        -16.7550    1.8980  -16.1350 N.3   156  LEU156     -0.1231
     14  CA       -16.5590    3.2180  -15.5580 C.3   156  LEU156      0.1693
     15  C        -16.3790    4.2530  -16.6540 C.2   156  LEU156      0.2593
     16  O        -15.6500    4.0270  -17.6240 O.2   156  LEU156     -0.2718
     17  CB       -15.3370    3.2490  -14.6340 C.3   156  LEU156      0.0284
     18  CG       -15.2820    2.2780  -13.4560 C.3   156  LEU156      0.0019
     19  CD1      -13.8550    2.1720  -12.9310 C.3   156  LEU156      0.0001
     20  CD2      -16.2290    2.7220  -12.3570 C.3   156  LEU156      0.0001
     21  N        -17.0510    5.3880  -16.4950 N.am  157  SER157     -0.1938
     22  CA       -16.7320    6.5860  -17.2410 C.3   157  SER157      0.2055
     23  C        -16.0440    7.5540  -16.2790 C.2   157  SER157      0.2643
     24  O        -15.5330    7.1410  -15.2280 O.2   157  SER157     -0.2714
     25  CB       -17.9990    7.1620  -17.8820 C.3   157  SER157      0.2130
     26  OG       -18.8290    7.7940  -16.9220 O.3   157  SER157     -0.2179
     27  N        -16.0350    8.8340  -16.6240 N.am  158  GLU158     -0.1963
     28  CA       -15.4090    9.8230  -15.7610 C.3   158  GLU158      0.1733
     29  C        -16.3750   10.4130  -14.7390 C.2   158  GLU158      0.2616
     30  O        -15.9810   11.3030  -13.9790 O.2   158  GLU158     -0.2715
     31  CB       -14.7750   10.9270  -16.6140 C.3   158  GLU158      0.0429
     32  CG       -13.6180   10.4120  -17.4740 C.3   158  GLU158      0.1163
     33  CD       -12.8740   11.5100  -18.2140 C.2   158  GLU158      0.3649
     34  OE1      -13.5160   12.2650  -18.9770 O.co2 158  GLU158     -0.2457
     35  OE2      -11.6400   11.6090  -18.0340 O.co2 158  GLU158     -0.2457
     36  N        -17.6150    9.9190  -14.6780 N.am  159  ASP159     -0.1957
     37  CA       -18.5940   10.4380  -13.7300 C.3   159  ASP159      0.1840
     38  C        -19.7490    9.4640  -13.5010 C.2   159  ASP159      0.2622
     39  O        -20.7010    9.7870  -12.7820 O.2   159  ASP159     -0.2715
     40  CB       -19.1270   11.7910  -14.2180 C.3   159  ASP159      0.1450
     41  CG       -19.8810   12.5500  -13.1400 C.2   159  ASP159      0.3671
     42  OD1      -19.2920   12.8120  -12.0710 O.co2 159  ASP159     -0.2456
     43  OD2      -21.0640   12.8880  -13.3640 O.co2 159  ASP159     -0.2456
     44  N        -19.6810    8.2710  -14.0890 N.am  160  HIS160     -0.1959
     45  CA       -20.7550    7.2960  -13.9490 C.3   160  HIS160      0.1787
     46  C        -20.1570    5.8960  -13.9220 C.2   160  HIS160      0.2620
     47  O        -18.9890    5.6880  -14.2560 O.2   160  HIS160     -0.2715
     48  CB       -21.7870    7.4420  -15.0780 C.3   160  HIS160      0.0785
     49  CG       -23.0510    6.6700  -14.8530 C.ar  160  HIS160      0.0821
     50  ND1      -23.6330    6.5360  -13.6100 N.ar  160  HIS160     -0.2267
     51  CD2      -23.8480    5.9950  -15.7150 C.ar  160  HIS160      0.1154
     52  CE1      -24.7310    5.8100  -13.7160 C.ar  160  HIS160      0.1986
     53  NE2      -24.8850    5.4690  -14.9830 N.ar  160  HIS160     -0.2212
     54  N        -20.9780    4.9290  -13.5180 N.am  161  ALA161     -0.1977
     55  CA       -20.5430    3.5430  -13.4350 C.3   161  ALA161      0.1597
     56  C        -21.7290    2.6250  -13.6880 C.2   161  ALA161      0.2287
     57  O        -22.8650    2.9360  -13.3210 O.2   161  ALA161     -0.2864
     58  CB       -19.9170    3.2240  -12.0720 C.3   161  ALA161      0.0319
     59  N         -9.9360    0.5140   -8.6860 N.3   217  PHE217     -0.1241
     60  CA       -11.0070    1.4820   -8.4740 C.3   217  PHE217      0.1605
     61  C        -11.2710    1.7000   -6.9900 C.2   217  PHE217      0.2264
     62  O        -11.4080    2.8420   -6.5360 O.2   217  PHE217     -0.2867
     63  CB       -12.2790    1.0210   -9.1830 C.3   217  PHE217      0.0534
     64  CG       -13.5190    1.7350   -8.7240 C.ar  217  PHE217     -0.0203
     65  CD1      -14.3780    1.1470   -7.8100 C.ar  217  PHE217     -0.0042
     66  CD2      -13.8230    2.9980   -9.2040 C.ar  217  PHE217     -0.0042
     67  CE1      -15.5140    1.8030   -7.3860 C.ar  217  PHE217     -0.0003
     68  CE2      -14.9610    3.6590   -8.7830 C.ar  217  PHE217     -0.0003
     69  CZ       -15.8080    3.0610   -7.8740 C.ar  217  PHE217     -0.0000
     70  N         -8.6100    3.9190   -5.5950 N.3   220  CYS220     -0.1235
     71  CA        -8.9090    5.3130   -5.9100 C.3   220  CYS220      0.1677
     72  C        -10.0970    5.8230   -5.1040 C.2   220  CYS220      0.2270
     73  O        -10.1720    7.0180   -4.7940 O.2   220  CYS220     -0.2867
     74  CB        -9.1890    5.4690   -7.4060 C.3   220  CYS220      0.0956
     75  SG        -7.8040    5.0660   -8.4890 S.3   220  CYS220     -0.0801
     76  N         -5.9250    2.5900  -16.8440 N.3   255  TYR255     -0.1241
     77  CA        -6.6060    3.3930  -15.8300 C.3   255  TYR255      0.1605
     78  C         -5.9900    4.7860  -15.8020 C.2   255  TYR255      0.2264
     79  O         -5.2270    5.1240  -14.8890 O.2   255  TYR255     -0.2867
     80  CB        -6.5200    2.7210  -14.4600 C.3   255  TYR255      0.0534
     81  CG        -7.6830    3.0320  -13.5500 C.ar  255  TYR255     -0.0201
     82  CD1       -8.0860    2.1290  -12.5770 C.ar  255  TYR255     -0.0009
     83  CD2       -8.3810    4.2270  -13.6650 C.ar  255  TYR255     -0.0009
     84  CE1       -9.1500    2.4090  -11.7390 C.ar  255  TYR255      0.0417
     85  CE2       -9.4450    4.5160  -12.8330 C.ar  255  TYR255      0.0417
     86  CZ        -9.8240    3.6030  -11.8730 C.ar  255  TYR255      0.1957
     87  OH       -10.8840    3.8900  -11.0440 O.3   255  TYR255     -0.2866
     88  N         -7.1030    7.8030  -15.0050 N.3   257  MET257     -0.1245
     89  CA        -7.3420    8.6180  -13.8170 C.3   257  MET257      0.1570
     90  C         -6.5810    8.0980  -12.6030 C.2   257  MET257      0.2261
     91  O         -6.2470    8.8790  -11.7050 O.2   257  MET257     -0.2867
     92  CB        -8.8380    8.6920  -13.5140 C.3   257  MET257      0.0387
     93  CG        -9.5890    9.6770  -14.3990 C.3   257  MET257      0.0595
     94  SD       -11.3430    9.8050  -14.0020 S.3   257  MET257     -0.1393
     95  CE       -11.9090    8.1650  -14.4290 C.3   257  MET257      0.0692
     96  N         -4.2150   10.2080  -10.0460 N.3   261  ASN261     -0.1240
     97  CA        -4.3120   10.1750   -8.5890 C.3   261  ASN261      0.1653
     98  C         -2.9490    9.9340   -7.9510 C.2   261  ASN261      0.2266
     99  O         -2.5840   10.6050   -6.9780 O.2   261  ASN261     -0.2867
    100  CB        -5.3100    9.0990   -8.1530 C.3   261  ASN261      0.1155
    101  CG        -5.7280    9.2360   -6.6960 C.2   261  ASN261      0.2627
    102  OD1       -5.0050    9.8030   -5.8760 O.2   261  ASN261     -0.2716
    103  ND2       -6.9040    8.7150   -6.3700 N.am  261  ASN261     -0.0877
    104  N         -0.7610   12.9670   -8.3350 N.3   264  ASP264     -0.1239
    105  CA        -1.1370   13.9580   -7.3320 C.3   264  ASP264      0.1674
    106  C         -0.5590   13.6040   -5.9690 C.2   264  ASP264      0.2266
    107  O         -0.1120   14.4850   -5.2260 O.2   264  ASP264     -0.2867
    108  CB        -2.6590   14.0740   -7.2520 C.3   264  ASP264      0.1410
    109  CG        -3.2350   14.9390   -8.3540 C.2   264  ASP264      0.3668
    110  OD1       -2.4730   15.3380   -9.2590 O.co2 264  ASP264     -0.2456
    111  OD2       -4.4510   15.2210   -8.3140 O.co2 264  ASP264     -0.2456
    112  N        -10.2010   14.1080  -18.0440 N.3   298  TYR298     -0.1241
    113  CA        -9.4370   14.2770  -16.8140 C.3   298  TYR298      0.1605
    114  C         -7.9300   14.0370  -16.9400 C.2   298  TYR298      0.2264
    115  O         -7.1700   14.6560  -16.1850 O.2   298  TYR298     -0.2867
    116  CB       -10.0200   13.3820  -15.7200 C.3   298  TYR298      0.0534
    117  CG       -11.2240   14.0120  -15.0620 C.ar  298  TYR298     -0.0201
    118  CD1      -11.1120   15.2230  -14.3910 C.ar  298  TYR298     -0.0009
    119  CD2      -12.4750   13.4090  -15.1240 C.ar  298  TYR298     -0.0009
    120  CE1      -12.2080   15.8110  -13.7930 C.ar  298  TYR298      0.0417
    121  CE2      -13.5780   13.9910  -14.5270 C.ar  298  TYR298      0.0417
    122  CZ       -13.4390   15.1920  -13.8640 C.ar  298  TYR298      0.1957
    123  OH       -14.5350   15.7750  -13.2680 O.3   298  TYR298     -0.2866
    124  N         -6.8020   17.4560  -17.5620 N.3   301  MET301     -0.1230
    125  CA        -7.0690   18.3030  -16.4000 C.3   301  MET301      0.1702
    126  C         -6.0910   18.0200  -15.2700 C.2   301  MET301      0.2592
    127  O         -5.6300   18.9470  -14.5910 O.2   301  MET301     -0.2718
    128  CB        -8.5090   18.1170  -15.9130 C.3   301  MET301      0.0401
    129  CG        -9.5720   18.2240  -16.9820 C.3   301  MET301      0.0596
    130  SD       -10.1290   19.9060  -17.3550 S.3   301  MET301     -0.1393
    131  CE       -10.0480   20.7600  -15.7940 C.3   301  MET301      0.0692
    132  N         -5.7710   16.7410  -15.0530 N.am  302  TYR302     -0.1976
    133  CA        -4.7350   16.3840  -14.0930 C.3   302  TYR302      0.1639
    134  C         -3.4350   17.1160  -14.3980 C.2   302  TYR302      0.2290
    135  O         -2.8100   17.7070  -13.5080 O.2   302  TYR302     -0.2864
    136  CB        -4.5080   14.8710  -14.1050 C.3   302  TYR302      0.0560
    137  CG        -5.2540   14.1070  -13.0270 C.ar  302  TYR302     -0.0198
    138  CD1       -4.9230   14.2590  -11.6880 C.ar  302  TYR302     -0.0009
    139  CD2       -6.2760   13.2220  -13.3510 C.ar  302  TYR302     -0.0009
    140  CE1       -5.5950   13.5660  -10.6990 C.ar  302  TYR302      0.0417
    141  CE2       -6.9540   12.5200  -12.3690 C.ar  302  TYR302      0.0417
    142  CZ        -6.6110   12.6950  -11.0460 C.ar  302  TYR302      0.1957
    143  OH        -7.2890   11.9960  -10.0730 O.3   302  TYR302     -0.2866
    144  N         -3.8760   21.0120  -13.9980 N.3   305  GLY305     -0.1225
    145  CA        -3.8740   21.4390  -12.6090 C.3   305  GLY305      0.1811
    146  C         -2.4820   21.4710  -12.0090 C.2   305  GLY305      0.2280
    147  O         -2.1610   22.3550  -11.2090 O.2   305  GLY305     -0.2866
    148  N         -0.7480   24.5090  -13.4250 N.3   308  CYS308     -0.1221
    149  CA        -1.3000   25.7130  -12.8130 C.3   308  CYS308      0.1808
    150  C         -0.7260   25.9370  -11.4190 C.2   308  CYS308      0.2601
    151  O         -0.3770   27.0670  -11.0590 O.2   308  CYS308     -0.2717
    152  CB        -2.8240   25.6180  -12.7620 C.3   308  CYS308      0.0970
    153  SG        -3.6460   27.0170  -11.9690 S.3   308  CYS308     -0.0800
    154  N         -0.6130   24.8690  -10.6230 N.am  309  ARG309     -0.1979
    155  CA        -0.0860   25.0030   -9.2690 C.3   309  ARG309      0.1597
    156  C          1.3730   25.4390   -9.2690 C.2   309  ARG309      0.2287
    157  O          1.8100   26.1410   -8.3500 O.2   309  ARG309     -0.2864
    158  CB        -0.2410   23.6840   -8.5110 C.3   309  ARG309      0.0334
    159  CG        -1.6770   23.3130   -8.1820 C.3   309  ARG309      0.0492
    160  CD        -1.7370   22.0790   -7.2910 C.3   309  ARG309      0.2205
    161  NE        -1.3600   20.8570   -7.9960 N.pl3 309  ARG309     -0.0865
    162  CZ        -2.2170   20.0760   -8.6460 C.cat 309  ARG309      0.5346
    163  NH1       -3.5050   20.3890   -8.6880 N.pl3 309  ARG309      0.1354
    164  NH2       -1.7840   18.9820   -9.2580 N.pl3 309  ARG309      0.1354
    165  N         -5.2430   22.7110  -20.9570 N.3   320  TRP320     -0.1241
    166  CA        -6.6620   23.0480  -21.0050 C.3   320  TRP320      0.1605
    167  C         -7.1670   23.0720  -22.4390 C.2   320  TRP320      0.2264
    168  O         -8.3010   22.6620  -22.7100 O.2   320  TRP320     -0.2867
    169  CB        -6.9150   24.3930  -20.3280 C.3   320  TRP320      0.0550
    170  CG        -6.9200   24.3160  -18.8400 C.ar  320  TRP320      0.0003
    171  CD1       -7.5030   23.3520  -18.0670 C.ar  320  TRP320      0.0946
    172  CD2       -6.3130   25.2420  -17.9360 C.ar  320  TRP320      0.0152
    173  NE1       -7.2950   23.6230  -16.7350 N.ar  320  TRP320     -0.2442
    174  CE2       -6.5660   24.7780  -16.6290 C.ar  320  TRP320      0.0810
    175  CE3       -5.5780   26.4200  -18.1040 C.ar  320  TRP320      0.0012
    176  CZ2       -6.1100   25.4510  -15.4980 C.ar  320  TRP320      0.0191
    177  CZ3       -5.1260   27.0850  -16.9810 C.ar  320  TRP320      0.0001
    178  CH2       -5.3930   26.5990  -15.6950 C.ar  320  TRP320      0.0015
    179  N        -16.4070   21.9420  -14.3130 N.3   342  GLU342     -0.1245
    180  CA       -14.9530   22.0130  -14.4290 C.3   342  GLU342      0.1567
    181  C        -14.5370   23.0400  -15.4750 C.2   342  GLU342      0.2260
    182  O        -13.6690   23.8830  -15.2200 O.2   342  GLU342     -0.2867
    183  CB       -14.3770   20.6360  -14.7670 C.3   342  GLU342      0.0388
    184  CG       -14.9370   19.4770  -13.9480 C.3   342  GLU342      0.1160
    185  CD       -14.3940   19.4090  -12.5290 C.2   342  GLU342      0.3649
    186  OE1      -13.9140   20.4380  -12.0070 O.co2 342  GLU342     -0.2457
    187  OE2      -14.4420   18.3120  -11.9330 O.co2 342  GLU342     -0.2457
    188  N        -15.3250   26.5870  -14.2420 N.3   345  GLU345     -0.1231
    189  CA       -14.4140   27.1090  -13.2290 C.3   345  GLU345      0.1699
    190  C        -13.0570   27.4560  -13.8290 C.2   345  GLU345      0.2592
    191  O        -12.4320   28.4450  -13.4310 O.2   345  GLU345     -0.2718
    192  CB       -14.2600   26.0980  -12.0940 C.3   345  GLU345      0.0402
    193  CG       -13.5630   26.6520  -10.8630 C.3   345  GLU345      0.1161
    194  CD       -13.2190   25.5740   -9.8550 C.2   345  GLU345      0.3649
    195  OE1      -14.1190   24.7880   -9.4930 O.co2 345  GLU345     -0.2457
    196  OE2      -12.0480   25.5160   -9.4240 O.co2 345  GLU345     -0.2457
    197  N        -12.5840   26.6570  -14.7860 N.am  346  VAL346     -0.1980
    198  CA       -11.2900   26.9270  -15.4070 C.3   346  VAL346      0.1595
    199  C        -11.3540   28.2000  -16.2430 C.2   346  VAL346      0.2287
    200  O        -10.4570   29.0490  -16.1810 O.2   346  VAL346     -0.2864
    201  CB       -10.8400   25.7200  -16.2480 C.3   346  VAL346      0.0276
    202  CG1       -9.7980   26.1450  -17.2730 C.3   346  VAL346      0.0022
    203  CG2      -10.2820   24.6290  -15.3450 C.3   346  VAL346      0.0022
    204  N        -10.1200   30.1590  -12.8900 N.3   350  VAL350     -0.1245
    205  CA        -8.7070   29.7880  -12.8580 C.3   350  VAL350      0.1561
    206  C         -7.9150   30.6030  -13.8750 C.2   350  VAL350      0.2260
    207  O         -6.9840   31.3350  -13.5190 O.2   350  VAL350     -0.2867
    208  CB        -8.5370   28.2790  -13.0980 C.3   350  VAL350      0.0252
    209  CG1       -7.0920   27.8710  -12.8710 C.3   350  VAL350      0.0019
    210  CG2       -9.4650   27.4910  -12.1880 C.3   350  VAL350      0.0019
@<TRIPOS>BOND
     1   168   167    2
     2   167   166    1
     3   166   165    1
     4   166   169    1
     5   169   170    1
     6    34    33   ar
     7   170   171   ar
     8   170   172   ar
     9    33    35   ar
    10    33    32    1
    11   175   172   ar
    12   175   177   ar
    13   171   173   ar
    14   112   113    1
    15   172   174   ar
    16    25    22    1
    17    25    26    1
    18    16    15    2
    19   124   125    1
    20    32    31    1
    21   130   129    1
    22   130   131    1
    23   202   201    1
    24    22    21    1
    25    22    23    1
    26   129   128    1
    27   177   178   ar
    28   114   113    1
    29   114   115    2
    30    76    77    1
    31   113   116    1
    32   173   174   ar
    33    15    21   am
    34    15    14    1
    35   174   176   ar
    36    27    23   am
    37    27    28    1
    38    31    28    1
    39   125   128    1
    40   125   126    1
    41    23    24    2
    42   201   198    1
    43   201   203    1
    44   199   200    2
    45   199   198    1
    46    13    14    1
    47    77    78    1
    48    77    80    1
    49    78    79    2
    50    28    29    1
    51   116   117    1
    52    51    53   ar
    53    51    49   ar
    54   178   176   ar
    55    14    17    1
    56   181   182    2
    57   181   180    1
    58   198   197    1
    59   126   132   am
    60   126   127    2
    61   119   117   ar
    62   119   121   ar
    63    48    49    1
    64    48    45    1
    65   117   118   ar
    66   132   133    1
    67    88    89    1
    68    53    52   ar
    69    49    50   ar
    70   197   190   am
    71   183   180    1
    72   183   184    1
    73    29    36   am
    74    29    30    2
    75    36    37    1
    76    17    18    1
    77   121   122   ar
    78    80    81    1
    79   180   179    1
    80    95    94    1
    81    93    94    1
    82    93    92    1
    83   134   133    1
    84   134   135    2
    85   118   120   ar
    86    47    46    2
    87   188   189    1
    88    40    37    1
    89    40    41    1
    90   136   133    1
    91   136   137    1
    92    44    45    1
    93    44    38   am
    94   144   145    1
    95    45    46    1
    96   184   185    1
    97    46    54   am
    98   206   207    2
    99   206   205    1
   100   122   120   ar
   101   122   123    1
   102   190   191    2
   103   190   189    1
   104    89    92    1
   105    89    90    1
   106    37    38    1
   107    52    50   ar
   108    56    55    1
   109    56    57    2
   110    83    81   ar
   111    83    85   ar
   112    81    82   ar
   113    54    55    1
   114    38    39    2
   115    18    19    1
   116    18    20    1
   117    55    58    1
   118   148   149    1
   119    43    41   ar
   120   139   137   ar
   121   139   141   ar
   122   189   192    1
   123    41    42   ar
   124   208   209    1
   125   208   205    1
   126   208   210    1
   127   137   138   ar
   128   204   205    1
   129    85    86   ar
   130   149   152    1
   131   149   150    1
   132   152   153    1
   133   145   146    1
   134    90    91    2
   135    82    84   ar
   136   185   186   ar
   137   185   187   ar
   138   141   142   ar
   139   192   193    1
   140   146   147    2
   141    86    84   ar
   142    86    87    1
   143   138   140   ar
   144   150   151    2
   145   150   154   am
   146   142   140   ar
   147   142   143    1
   148   193   194    1
   149   154   155    1
   150    96    97    1
   151   194   195   ar
   152   194   196   ar
   153   156   155    1
   154   156   157    2
   155   155   158    1
   156   110   109   ar
   157   164   162    1
   158    66    68   ar
   159    66    64   ar
   160    63    64    1
   161    63    60    1
   162    68    69   ar
   163    64    65   ar
   164   163   162    1
   165    59    60    1
   166   162   161    2
   167    97   100    1
   168    97    98    1
   169   158   159    1
   170    75    74    1
   171    60    61    1
   172   109   111   ar
   173   109   108    1
   174   104   105    1
   175    11     8    1
   176    11    12    1
   177   159   160    1
   178   100   101    1
   179   161   160    1
   180    98    99    2
   181     8     7    1
   182     8     9    1
   183    69    67   ar
   184    65    67   ar
   185     5     6    1
   186     5     2    1
   187     4     3    2
   188    10     9    2
   189     7     3   am
   190    74    71    1
   191   105   108    1
   192   105   106    1
   193     3     2    1
   194    61    62    2
   195     2     1    1
   196   101   103   am
   197   101   102    2
   198   106   107    2
   199    71    70    1
   200    71    72    1
   201    72    73    2
