@<TRIPOS>MOLECULE
tmp/6bxiA00.pdb
 213 204 0 0 0
SMALL
GASTEIGER

@<TRIPOS>ATOM
      1  N        170.3840   14.5060   21.7230 N.3    14  ILE14      -0.1231
      2  CA       169.7610   13.5320   20.8410 C.3    14  ILE14       0.1692
      3  C        168.2550   13.7210   20.7420 C.2    14  ILE14       0.2593
      4  O        167.5930   13.0940   19.9080 O.2    14  ILE14      -0.2718
      5  CB       170.0690   12.0980   21.2830 C.3    14  ILE14       0.0266
      6  CG1      169.6570   11.8850   22.7480 C.3    14  ILE14       0.0019
      7  CG2      171.5510   11.7960   21.0780 C.3    14  ILE14       0.0020
      8  CD1      169.7310   10.4450   23.2020 C.3    14  ILE14       0.0001
      9  N        167.6910   14.5760   21.5740 N.am   15  GLY15      -0.1942
     10  CA       166.2740   14.8470   21.4290 C.3    15  GLY15       0.2014
     11  C        165.8320   16.1390   22.0690 C.2    15  GLY15       0.2639
     12  O        166.4420   16.5960   23.0370 O.2    15  GLY15      -0.2714
     13  N        164.7620   16.7130   21.5360 N.am   16  ARG16      -0.1963
     14  CA       164.1520   17.9210   22.0710 C.3    16  ARG16       0.1729
     15  C        162.6650   17.7440   22.3090 C.2    16  ARG16       0.2617
     16  O        161.9520   17.2220   21.4650 O.2    16  ARG16      -0.2715
     17  CB       164.3790   19.1050   21.1360 C.3    16  ARG16       0.0348
     18  CG       165.4590   20.0010   21.6630 C.3    16  ARG16       0.0492
     19  CD       165.6600   21.2420   20.8490 C.3    16  ARG16       0.2205
     20  NE       166.4700   22.2640   21.5190 N.pl3  16  ARG16      -0.0865
     21  CZ       167.6640   22.0850   22.0850 C.cat  16  ARG16       0.5346
     22  NH1      168.2740   20.9060   22.0910 N.pl3  16  ARG16       0.1354
     23  NH2      168.2660   23.1260   22.6410 N.pl3  16  ARG16       0.1354
     24  N        162.1910   18.1770   23.4650 N.am   17  GLY17      -0.1940
     25  CA       160.7710   18.2070   23.7180 C.3    17  GLY17       0.2014
     26  C        160.3370   19.6450   23.8850 C.2    17  GLY17       0.2639
     27  O        161.1620   20.5480   23.8480 O.2    17  GLY17      -0.2714
     28  N        159.0430   19.8530   24.0730 N.am   18  ALA18      -0.1963
     29  CA       158.5230   21.1720   24.3490 C.3    18  ALA18       0.1728
     30  C        159.1390   21.7710   25.6270 C.2    18  ALA18       0.2616
     31  O        159.3700   22.9840   25.6930 O.2    18  ALA18      -0.2715
     32  CB       157.0050   21.1150   24.4600 C.3    18  ALA18       0.0334
     33  N        159.4300   20.9230   26.6230 N.am   19  PHE19      -0.1960
     34  CA       159.7700   21.4300   27.9590 C.3    19  PHE19       0.1771
     35  C        161.1230   20.9680   28.4980 C.2    19  PHE19       0.2620
     36  O        161.3980   21.0580   29.7020 O.2    19  PHE19      -0.2715
     37  CB       158.6510   21.0610   28.9320 C.3    19  PHE19       0.0574
     38  CG       157.2920   21.3470   28.3800 C.ar   19  PHE19      -0.0200
     39  CD1      156.8480   22.6450   28.2670 C.ar   19  PHE19      -0.0042
     40  CD2      156.4750   20.3220   27.9210 C.ar   19  PHE19      -0.0042
     41  CE1      155.6020   22.9250   27.7290 C.ar   19  PHE19      -0.0003
     42  CE2      155.2260   20.5950   27.3850 C.ar   19  PHE19      -0.0003
     43  CZ       154.7910   21.9000   27.2910 C.ar   19  PHE19      -0.0000
     44  N        161.9720   20.5050   27.5950 N.am   20  GLY20      -0.1954
     45  CA       163.3240   20.1100   27.9320 C.3    20  GLY20       0.1869
     46  C        164.0710   19.4470   26.7880 C.2    20  GLY20       0.2309
     47  O        163.7540   19.6420   25.6170 O.2    20  GLY20      -0.2863
     48  N        166.8200   15.8180   25.6680 N.3    22  VAL22      -0.1245
     49  CA       167.4120   14.5460   26.0420 C.3    22  VAL22       0.1561
     50  C        168.8400   14.4910   25.5060 C.2    22  VAL22       0.2260
     51  O        169.0810   14.7880   24.3400 O.2    22  VAL22      -0.2867
     52  CB       166.5640   13.3730   25.5300 C.3    22  VAL22       0.0252
     53  CG1      167.1920   12.0390   25.9430 C.3    22  VAL22       0.0019
     54  CG2      165.1350   13.4810   26.0600 C.3    22  VAL22       0.0019
     55  N        171.0950    7.7850   28.4140 N.3    35  ALA35      -0.1245
     56  CA       170.3100    8.9420   27.9940 C.3    35  ALA35       0.1562
     57  C        169.8750    9.7410   29.2350 C.2    35  ALA35       0.2260
     58  O        169.4370    9.1710   30.2470 O.2    35  ALA35      -0.2867
     59  CB       169.0970    8.4980   27.1500 C.3    35  ALA35       0.0290
     60  N        167.3660   12.7300   30.4270 N.3    37  LYS37      -0.1245
     61  CA       166.2540   13.6240   30.1210 C.3    37  LYS37       0.1561
     62  C        166.2810   14.7850   31.1000 C.2    37  LYS37       0.2260
     63  O        166.4270   14.5880   32.3080 O.2    37  LYS37      -0.2867
     64  CB       164.9150   12.8730   30.1860 C.3    37  LYS37       0.0271
     65  CG       163.6720   13.6620   29.7280 C.3    37  LYS37       0.0035
     66  CD       162.5240   12.6870   29.4570 C.3    37  LYS37       0.0206
     67  CE       161.1830   13.3920   29.3960 C.3    37  LYS37       0.1093
     68  NZ       160.0570   12.4250   29.1910 N.3    37  LYS37      -0.1314
     69  N        164.1930   18.2110   32.2840 N.3    39  LEU39      -0.1245
     70  CA       162.9690   18.9950   32.2230 C.3    39  LEU39       0.1561
     71  C        163.1180   20.2660   33.0480 C.2    39  LEU39       0.2260
     72  O        163.6010   20.2200   34.1860 O.2    39  LEU39      -0.2867
     73  CB       161.7640   18.1800   32.7060 C.3    39  LEU39       0.0270
     74  CG       161.3420   16.9410   31.9020 C.3    39  LEU39       0.0019
     75  CD1      160.1840   16.2210   32.5950 C.3    39  LEU39       0.0001
     76  CD2      160.9360   17.3470   30.4670 C.3    39  LEU39       0.0001
     77  N        161.1110    2.0020   28.9350 N.3    69  VAL69      -0.1245
     78  CA       162.5310    2.2990   29.0330 C.3    69  VAL69       0.1561
     79  C        163.0010    2.1720   30.4890 C.2    69  VAL69       0.2260
     80  O        162.2920    2.5300   31.4340 O.2    69  VAL69      -0.2867
     81  CB       162.8430    3.7050   28.4650 C.3    69  VAL69       0.0252
     82  CG1      162.1270    4.7980   29.2670 C.3    69  VAL69       0.0019
     83  CG2      164.3440    3.9650   28.4390 C.3    69  VAL69       0.0019
     84  N        168.4880    7.3010   32.2480 N.3    85  MET85      -0.1230
     85  CA       167.9010    6.0580   31.7870 C.3    85  MET85       0.1702
     86  C        168.7770    5.3910   30.7100 C.2    85  MET85       0.2592
     87  O        169.7520    5.9780   30.2510 O.2    85  MET85      -0.2718
     88  CB       166.4720    6.3130   31.2830 C.3    85  MET85       0.0401
     89  CG       166.3650    7.0550   29.9810 C.3    85  MET85       0.0596
     90  SD       164.7190    7.7770   29.7240 S.3    85  MET85      -0.1393
     91  CE       165.2190    9.4740   29.4780 C.3    85  MET85       0.0692
     92  N        168.4570    4.1470   30.3510 N.am   86  GLU86      -0.1966
     93  CA       169.1680    3.4630   29.2710 C.3    86  GLU86       0.1733
     94  C        169.0060    4.2300   27.9560 C.2    86  GLU86       0.2616
     95  O        167.9420    4.7680   27.6590 O.2    86  GLU86      -0.2715
     96  CB       168.6850    2.0060   29.1050 C.3    86  GLU86       0.0429
     97  CG       167.2160    1.8780   28.7300 C.3    86  GLU86       0.1163
     98  CD       166.7460    0.4460   28.5610 C.2    86  GLU86       0.3649
     99  OE1      167.5960   -0.4620   28.4730 O.co2  86  GLU86      -0.2457
    100  OE2      165.5180    0.2280   28.5140 O.co2  86  GLU86      -0.2457
    101  N        170.0950    4.3030   27.2000 N.am   87  PHE87      -0.1960
    102  CA       170.0900    4.8910   25.8720 C.3    87  PHE87       0.1771
    103  C        169.5670    3.8600   24.8790 C.2    87  PHE87       0.2619
    104  O        170.1040    2.7650   24.7890 O.2    87  PHE87      -0.2715
    105  CB       171.5060    5.3510   25.4980 C.3    87  PHE87       0.0574
    106  CG       171.6720    5.7450   24.0500 C.ar   87  PHE87      -0.0200
    107  CD1      170.8460    6.7100   23.4670 C.ar   87  PHE87      -0.0042
    108  CD2      172.6820    5.1820   23.2840 C.ar   87  PHE87      -0.0042
    109  CE1      171.0100    7.0840   22.1220 C.ar   87  PHE87      -0.0003
    110  CE2      172.8590    5.5440   21.9470 C.ar   87  PHE87      -0.0003
    111  CZ       172.0260    6.5010   21.3650 C.ar   87  PHE87      -0.0000
    112  N        168.5040    4.1990   24.1630 N.am   88  LEU88      -0.1977
    113  CA       167.9290    3.3120   23.1550 C.3    88  LEU88       0.1596
    114  C        168.2380    3.8600   21.7580 C.2    88  LEU88       0.2287
    115  O        167.6040    4.8200   21.3160 O.2    88  LEU88      -0.2864
    116  CB       166.4210    3.1700   23.3700 C.3    88  LEU88       0.0297
    117  CG       165.9880    2.6710   24.7550 C.3    88  LEU88       0.0022
    118  CD1      164.5010    2.4260   24.8000 C.3    88  LEU88       0.0001
    119  CD2      166.7170    1.4070   25.0890 C.3    88  LEU88       0.0001
    120  N        163.3260    7.2100   17.8840 N.3    92  ASP92      -0.1239
    121  CA       161.8840    7.2120   18.1170 C.3    92  ASP92       0.1674
    122  C        161.1000    6.9420   16.8140 C.2    92  ASP92       0.2266
    123  O        161.6370    7.0400   15.7150 O.2    92  ASP92      -0.2867
    124  CB       161.4460    8.5450   18.7430 C.3    92  ASP92       0.1410
    125  CG       161.6850    9.7390   17.8120 C.2    92  ASP92       0.3668
    126  OD1      160.8460    9.9820   16.9250 O.co2  92  ASP92      -0.2456
    127  OD2      162.7170   10.4190   17.9520 O.co2  92  ASP92      -0.2456
    128  N        149.3120   10.4420   26.1980 N.3   131  ASP131     -0.1239
    129  CA       150.0390   11.1790   25.1480 C.3   131  ASP131      0.1674
    130  C        150.7560   10.2100   24.1870 C.2   131  ASP131      0.2266
    131  O        151.9080   10.4360   23.7780 O.2   131  ASP131     -0.2867
    132  CB       151.0390   12.1720   25.7860 C.3   131  ASP131      0.1410
    133  CG       151.5320   13.2670   24.8030 C.2   131  ASP131      0.3668
    134  OD1      150.8370   13.6000   23.8110 O.co2 131  ASP131     -0.2456
    135  OD2      152.6430   13.8040   25.0290 O.co2 131  ASP131     -0.2456
    136  N        156.4960   10.1100   18.5000 N.3   135  ASP135     -0.1225
    137  CA       157.7220   10.6230   19.1120 C.3   135  ASP135      0.1805
    138  C        157.9080   10.0780   20.5410 C.2   135  ASP135      0.2597
    139  O        158.9800   10.2000   21.1100 O.2   135  ASP135     -0.2718
    140  CB       157.7800   12.1650   19.1020 C.3   135  ASP135      0.1424
    141  CG       156.6500   12.8320   19.8760 C.2   135  ASP135      0.3668
    142  OD1      155.7490   12.1320   20.3770 O.co2 135  ASP135     -0.2456
    143  OD2      156.6490   14.0760   19.9690 O.co2 135  ASP135     -0.2456
    144  N        156.8800    9.4300   21.0800 N.am  136  ASN136     -0.1974
    145  CA       156.9240    8.8650   22.4380 C.3   136  ASN136      0.1688
    146  C        157.0700    7.3410   22.4210 C.2   136  ASN136      0.2292
    147  O        156.9310    6.6850   23.4510 O.2   136  ASN136     -0.2864
    148  CB       155.6690    9.2830   23.2200 C.3   136  ASN136      0.1181
    149  CG       155.7440   10.7220   23.6760 C.2   136  ASN136      0.2629
    150  OD1      156.8360   11.2800   23.8030 O.2   136  ASN136     -0.2716
    151  ND2      154.5890   11.3370   23.9210 N.am  136  ASN136     -0.0877
    152  N        159.8910    4.5460   21.4630 N.3   138  LEU138     -0.1245
    153  CA       161.3210    4.3740   21.2210 C.3   138  LEU138      0.1561
    154  C        161.6250    2.9920   20.6520 C.2   138  LEU138      0.2260
    155  O        160.8380    2.0690   20.8070 O.2   138  LEU138     -0.2867
    156  CB       162.1180    4.5860   22.5120 C.3   138  LEU138      0.0270
    157  CG       161.9540    5.9230   23.2470 C.3   138  LEU138      0.0019
    158  CD1      162.8660    5.9770   24.4620 C.3   138  LEU138      0.0001
    159  CD2      162.1870    7.1280   22.3400 C.3   138  LEU138      0.0001
    160  N        158.9350    5.6690   25.9900 N.3   148  SER148     -0.1202
    161  CA       159.8080    6.6100   26.6810 C.3   148  SER148      0.2020
    162  C        159.1880    7.0440   28.0140 C.2   148  SER148      0.2619
    163  O        157.9970    6.8290   28.2390 O.2   148  SER148     -0.2717
    164  CB       160.0680    7.8370   25.8180 C.3   148  SER148      0.2103
    165  OG       158.8590    8.5090   25.5470 O.3   148  SER148     -0.2182
    166  N        159.9870    7.6610   28.8860 N.am  149  ASP149     -0.1959
    167  CA       159.5020    8.1260   30.1900 C.3   149  ASP149      0.1840
    168  C        158.3420    9.1040   29.9950 C.2   149  ASP149      0.2622
    169  O        158.4060   10.0050   29.1660 O.2   149  ASP149     -0.2715
    170  CB       160.6360    8.7760   30.9960 C.3   149  ASP149      0.1450
    171  CG       160.1870    9.2590   32.3830 C.2   149  ASP149      0.3671
    172  OD1      159.8160    8.4080   33.2220 O.co2 149  ASP149     -0.2456
    173  OD2      160.2320   10.4910   32.6460 O.co2 149  ASP149     -0.2456
    174  N        157.2730    8.9020   30.7480 N.am  150  PHE150     -0.1960
    175  CA       156.0540    9.6850   30.5830 C.3   150  PHE150      0.1771
    176  C        155.4540   10.0050   31.9560 C.2   150  PHE150      0.2620
    177  O        155.7660    9.3390   32.9450 O.2   150  PHE150     -0.2715
    178  CB       155.0370    8.9150   29.7100 C.3   150  PHE150      0.0574
    179  CG       154.5160    7.6490   30.3550 C.ar  150  PHE150     -0.0200
    180  CD1      153.3360    7.6660   31.0840 C.ar  150  PHE150     -0.0042
    181  CD2      155.2170    6.4520   30.2480 C.ar  150  PHE150     -0.0042
    182  CE1      152.8590    6.5080   31.7070 C.ar  150  PHE150     -0.0003
    183  CE2      154.7460    5.2880   30.8500 C.ar  150  PHE150     -0.0003
    184  CZ       153.5580    5.3180   31.5870 C.ar  150  PHE150     -0.0000
    185  N        154.5910   11.0140   32.0010 N.am  151  GLY151     -0.1940
    186  CA       153.8080   11.3100   33.1840 C.3   151  GLY151      0.2014
    187  C        153.9150   12.7520   33.6400 C.2   151  GLY151      0.2639
    188  O        152.9370   13.3560   34.0690 O.2   151  GLY151     -0.2714
    189  N        155.1170   13.3060   33.5460 N.am  152  LEU152     -0.1963
    190  CA       155.3700   14.6490   34.0500 C.3   152  LEU152      0.1728
    191  C        154.8100   15.7260   33.1400 C.2   152  LEU152      0.2616
    192  O        154.3410   16.7530   33.6260 O.2   152  LEU152     -0.2715
    193  CB       156.8690   14.8670   34.2560 C.3   152  LEU152      0.0311
    194  CG       157.3900   14.2210   35.5490 C.3   152  LEU152      0.0022
    195  CD1      158.9160   14.1940   35.6020 C.3   152  LEU152      0.0001
    196  CD2      156.8210   14.9610   36.7450 C.3   152  LEU152      0.0001
    197  N        154.8630   15.4750   31.8280 N.am  153  CYS153     -0.1968
    198  CA       154.5210   16.4690   30.8070 C.3   153  CYS153      0.1712
    199  C        153.1490   16.2620   30.1810 C.2   153  CYS153      0.2296
    200  O        152.8030   16.9410   29.2230 O.2   153  CYS153     -0.2864
    201  CB       155.5570   16.4650   29.6810 C.3   153  CYS153      0.0983
    202  SG       157.2220   16.9070   30.1870 S.3   153  CYS153     -0.0798
    203  N        169.1160    9.5370   15.3290 N.3   329  PHE329     -0.1241
    204  CA       168.5040   10.7540   15.8530 C.3   329  PHE329      0.1605
    205  C        168.8660   11.9390   14.9630 C.2   329  PHE329      0.2264
    206  O        169.9130   11.9470   14.3140 O.2   329  PHE329     -0.2867
    207  CB       168.9440   11.0220   17.3010 C.3   329  PHE329      0.0534
    208  CG       168.6020    9.9050   18.2520 C.ar  329  PHE329     -0.0203
    209  CD1      167.4390    9.9420   18.9980 C.ar  329  PHE329     -0.0042
    210  CD2      169.4310    8.7950   18.3680 C.ar  329  PHE329     -0.0042
    211  CE1      167.1130    8.8890   19.8620 C.ar  329  PHE329     -0.0003
    212  CE2      169.1100    7.7530   19.2180 C.ar  329  PHE329     -0.0003
    213  CZ       167.9560    7.8050   19.9710 C.ar  329  PHE329     -0.0000
@<TRIPOS>BOND
     1   206   205    2
     2   205   204    1
     3   203   204    1
     4   123   122    2
     5   204   207    1
     6   122   121    1
     7   126   125   ar
     8   207   208    1
     9   125   127   ar
    10   125   124    1
    11   120   121    1
    12   121   124    1
    13   208   210   ar
    14   208   209   ar
    15   210   212   ar
    16   136   137    1
    17   209   211   ar
    18   140   137    1
    19   140   141    1
    20   137   138    1
    21   212   213   ar
    22   211   213   ar
    23   141   143   ar
    24   141   142   ar
    25     4     3    2
    26   138   144   am
    27   138   139    2
    28   154   155    2
    29   154   153    1
    30     3     2    1
    31     3     9   am
    32     2     5    1
    33     2     1    1
    34    19    20    1
    35    19    18    1
    36     7     5    1
    37   144   145    1
    38    17    18    1
    39    17    14    1
    40   153   152    1
    41   153   156    1
    42     5     6    1
    43   115   114    2
    44   111   110   ar
    45   111   109   ar
    46    10     9    1
    47    10    11    1
    48    16    15    2
    49    20    21    2
    50    13    11   am
    51    13    14    1
    52   114   113    1
    53   110   108   ar
    54    11    12    2
    55    14    15    1
    56    21    22    1
    57    21    23    1
    58   109   107   ar
    59    15    24   am
    60   159   157    1
    61   146   145    1
    62   146   147    2
    63   145   148    1
    64   156   157    1
    65     6     8    1
    66   113   116    1
    67   113   112    1
    68   148   149    1
    69   157   158    1
    70   108   106   ar
    71   116   117    1
    72    24    25    1
    73   107   106   ar
    74   149   150    2
    75   149   151   am
    76    25    26    1
    77   131   130    2
    78   134   133   ar
    79    27    26    2
    80    26    28   am
    81   106   105    1
    82    28    29    1
    83   112   103   am
    84   130   129    1
    85    51    50    2
    86    29    32    1
    87    29    30    1
    88   117   118    1
    89   117   119    1
    90   104   103    2
    91   133   135   ar
    92   133   132    1
    93   103   102    1
    94   129   132    1
    95   129   128    1
    96   105   102    1
    97    50    49    1
    98    52    53    1
    99    52    49    1
   100    52    54    1
   101   165   164    1
   102    47    46    2
   103    30    31    2
   104    30    33   am
   105    48    49    1
   106   164   161    1
   107   102   101    1
   108   160   161    1
   109    33    34    1
   110   161   162    1
   111    46    45    1
   112    59    56    1
   113   101    94   am
   114    43    42   ar
   115    43    41   ar
   116    42    40   ar
   117    44    45    1
   118    44    35   am
   119    95    94    2
   120    41    39   ar
   121    40    38   ar
   122    94    93    1
   123    34    35    1
   124    34    37    1
   125    56    55    1
   126    56    57    1
   127   162   163    2
   128   162   166   am
   129    39    38   ar
   130    38    37    1
   131    83    81    1
   132    81    78    1
   133    81    82    1
   134    99    98   ar
   135    35    36    2
   136   100    98   ar
   137    98    97    1
   138    97    96    1
   139   166   167    1
   140    77    78    1
   141    78    79    1
   142    96    93    1
   143   169   168    2
   144    68    67    1
   145   200   199    2
   146    57    58    2
   147    93    92    1
   148    67    66    1
   149    66    65    1
   150    91    90    1
   151   201   202    1
   152   201   198    1
   153   178   179    1
   154   178   175    1
   155    90    89    1
   156    65    64    1
   157    89    88    1
   158   168   167    1
   159   168   174   am
   160    61    64    1
   161    61    60    1
   162    61    62    1
   163   199   198    1
   164   167   170    1
   165   181   179   ar
   166   181   183   ar
   167    87    86    2
   168    92    86   am
   169   179   180   ar
   170    76    74    1
   171    79    80    2
   172   175   174    1
   173   175   176    1
   174    86    85    1
   175   198   197    1
   176   183   184   ar
   177   170   171    1
   178   180   182   ar
   179    62    63    2
   180    88    85    1
   181   184   182   ar
   182    85    84    1
   183   197   191   am
   184    74    75    1
   185    74    73    1
   186   176   185   am
   187   176   177    2
   188   185   186    1
   189    70    69    1
   190    70    73    1
   191    70    71    1
   192   171   173   ar
   193   171   172   ar
   194    71    72    2
   195   191   192    2
   196   191   190    1
   197   186   187    1
   198   189   187   am
   199   189   190    1
   200   187   188    2
   201   190   193    1
   202   193   194    1
   203   194   195    1
   204   194   196    1
