@<TRIPOS>MOLECULE
tmp/6bxjA02.pdb
 74 71 0 0 0
SMALL
GASTEIGER

@<TRIPOS>ATOM
      1  N        -12.7710   33.1300   43.1370 N.3   576  LEU576     -0.1231
      2  CA       -11.9170   34.0240   43.9040 C.3   576  LEU576      0.1693
      3  C        -12.5500   35.4070   43.9680 C.2   576  LEU576      0.2592
      4  O        -13.1760   35.8640   43.0090 O.2   576  LEU576     -0.2718
      5  CB       -10.5240   34.1050   43.2800 C.3   576  LEU576      0.0284
      6  CG        -9.7910   32.7670   43.1480 C.3   576  LEU576      0.0019
      7  CD1       -8.3480   32.9770   42.7170 C.3   576  LEU576      0.0001
      8  CD2       -9.8560   31.9930   44.4550 C.3   576  LEU576      0.0001
      9  N        -12.3890   36.0710   45.1090 N.am  577  LYS577     -0.1966
     10  CA       -13.0170   37.3600   45.3540 C.3   577  LYS577      0.1728
     11  C        -11.9690   38.3700   45.8010 C.2   577  LYS577      0.2616
     12  O        -10.8330   38.0210   46.1330 O.2   577  LYS577     -0.2715
     13  CB       -14.1320   37.2510   46.4050 C.3   577  LYS577      0.0311
     14  CG       -15.3110   36.3900   45.9740 C.3   577  LYS577      0.0038
     15  CD       -16.5640   36.7350   46.7620 C.3   577  LYS577      0.0206
     16  CE       -17.7970   36.0960   46.1420 C.3   577  LYS577      0.1093
     17  NZ       -19.0610   36.6520   46.7030 N.3   577  LYS577     -0.1314
     18  N        -12.3670   39.6410   45.8060 N.am  578  ASP578     -0.1957
     19  CA       -11.5010   40.7150   46.2840 C.3   578  ASP578      0.1840
     20  C        -11.4670   40.6550   47.8030 C.2   578  ASP578      0.2623
     21  O        -12.4030   41.0890   48.4760 O.2   578  ASP578     -0.2715
     22  CB       -11.9890   42.0760   45.8050 C.3   578  ASP578      0.1450
     23  CG       -11.0330   43.1960   46.1760 C.2   578  ASP578      0.3671
     24  OD1      -11.2120   44.3270   45.6810 O.co2 578  ASP578     -0.2456
     25  OD2      -10.0860   42.9330   46.9470 O.co2 578  ASP578     -0.2456
     26  N        -10.3810   40.1180   48.3500 N.am  579  THR579     -0.1937
     27  CA       -10.2090   40.0050   49.7920 C.3   579  THR579      0.2028
     28  C         -9.1850   40.9910   50.3390 C.2   579  THR579      0.2643
     29  O         -8.7460   40.8440   51.4840 O.2   579  THR579     -0.2714
     30  CB        -9.8110   38.5770   50.1700 C.3   579  THR579      0.1808
     31  OG1       -8.6280   38.2040   49.4540 O.3   579  THR579     -0.2208
     32  CG2      -10.9360   37.6130   49.8260 C.3   579  THR579      0.0379
     33  N         -8.7950   41.9860   49.5570 N.am  580  GLY580     -0.1939
     34  CA        -7.8400   42.9750   50.0100 C.3   580  GLY580      0.2014
     35  C         -6.4320   42.6840   49.5300 C.2   580  GLY580      0.2638
     36  O         -6.1720   41.7700   48.7410 O.2   580  GLY580     -0.2714
     37  N         -5.5020   43.4930   50.0400 N.am  581  LYS581     -0.1977
     38  CA        -4.1200   43.4410   49.5830 C.3   581  LYS581      0.1596
     39  C         -3.3330   42.2810   50.1770 C.2   581  LYS581      0.2287
     40  O         -2.3190   41.8830   49.5960 O.2   581  LYS581     -0.2864
     41  CB        -3.4070   44.7580   49.9010 C.3   581  LYS581      0.0298
     42  CG        -3.1270   45.0000   51.3770 C.3   581  LYS581      0.0038
     43  CD        -2.4080   46.3270   51.5730 C.3   581  LYS581      0.0206
     44  CE        -3.2480   47.4930   51.0650 C.3   581  LYS581      0.1093
     45  NZ        -4.4680   47.7060   51.8950 N.3   581  LYS581     -0.1314
     46  N         -3.1070   39.2010   49.9930 N.3   583  ALA583     -0.1231
     47  CA        -3.3940   37.9620   49.2850 C.3   583  ALA583      0.1694
     48  C         -2.6490   37.9640   47.9570 C.2   583  ALA583      0.2592
     49  O         -2.1270   38.9900   47.5140 O.2   583  ALA583     -0.2718
     50  CB        -4.8970   37.7820   49.0640 C.3   583  ALA583      0.0304
     51  N         -2.6060   36.7900   47.3250 N.am  584  VAL584     -0.1966
     52  CA        -2.1130   36.6540   45.9600 C.3   584  VAL584      0.1727
     53  C         -2.9500   35.5930   45.2570 C.2   584  VAL584      0.2616
     54  O         -3.3590   34.5950   45.8580 O.2   584  VAL584     -0.2715
     55  CB        -0.6030   36.3080   45.9020 C.3   584  VAL584      0.0290
     56  CG1       -0.3210   34.9490   46.5280 C.3   584  VAL584      0.0023
     57  CG2       -0.0910   36.3570   44.4630 C.3   584  VAL584      0.0023
     58  N         -3.2280   35.8330   43.9810 N.am  585  ASN585     -0.1972
     59  CA        -3.9970   34.9170   43.1510 C.3   585  ASN585      0.1688
     60  C         -3.0480   34.0770   42.3060 C.2   585  ASN585      0.2292
     61  O         -2.0810   34.5980   41.7420 O.2   585  ASN585     -0.2864
     62  CB        -4.9630   35.6890   42.2510 C.3   585  ASN585      0.1181
     63  CG        -6.0850   36.3560   43.0290 C.2   585  ASN585      0.2629
     64  OD1       -6.5630   35.8220   44.0290 O.2   585  ASN585     -0.2716
     65  ND2       -6.5070   37.5330   42.5700 N.am  585  ASN585     -0.0877
     66  N         -6.3200   31.2000   45.7120 N.3   599  GLN599     -0.1245
     67  CA        -5.8790   32.4410   46.3310 C.3   599  GLN599      0.1566
     68  C         -5.2710   32.1350   47.6900 C.2   599  GLN599      0.2260
     69  O         -5.9190   31.5130   48.5390 O.2   599  GLN599     -0.2867
     70  CB        -7.0430   33.4260   46.4850 C.3   599  GLN599      0.0367
     71  CG        -6.6940   34.6840   47.2740 C.3   599  GLN599      0.0905
     72  CD        -7.8810   35.6150   47.4540 C.2   599  GLN599      0.2608
     73  OE1       -8.4020   35.7650   48.5600 O.2   599  GLN599     -0.2717
     74  NE2       -8.3120   36.2490   46.3670 N.am  599  GLN599     -0.0878
@<TRIPOS>BOND
     1    61    60    2
     2    62    63    1
     3    62    59    1
     4    60    59    1
     5    65    63   am
     6     7     6    1
     7     4     3    2
     8    63    64    2
     9     1     2    1
    10     6     5    1
    11     6     8    1
    12    59    58    1
    13     5     2    1
    14     2     3    1
    15     3     9   am
    16    58    53   am
    17    57    55    1
    18     9    10    1
    19    53    54    2
    20    53    52    1
    21    10    11    1
    22    10    13    1
    23    24    23   ar
    24    66    67    1
    25    11    18   am
    26    11    12    2
    27    22    23    1
    28    22    19    1
    29    18    19    1
    30    55    52    1
    31    55    56    1
    32    52    51    1
    33    14    13    1
    34    14    15    1
    35    16    17    1
    36    16    15    1
    37    23    25   ar
    38    19    20    1
    39    67    70    1
    40    67    68    1
    41    74    72   am
    42    70    71    1
    43    71    72    1
    44    51    48   am
    45    72    73    2
    46    49    48    2
    47    68    69    2
    48    20    26   am
    49    20    21    2
    50    48    47    1
    51    26    27    1
    52    36    35    2
    53    50    47    1
    54    47    46    1
    55    31    30    1
    56    35    34    1
    57    35    37   am
    58    33    34    1
    59    33    28   am
    60    38    41    1
    61    38    37    1
    62    38    39    1
    63    40    39    2
    64    27    30    1
    65    27    28    1
    66    32    30    1
    67    41    42    1
    68    28    29    2
    69    44    43    1
    70    44    45    1
    71    42    43    1
