@<TRIPOS>MOLECULE
tmp/6bxkA00.pdb
 94 86 0 0 0
SMALL
GASTEIGER

@<TRIPOS>ATOM
      1  N         20.3720   27.6680   21.4550 N.3    55  TYR55      -0.1241
      2  CA        21.6750   27.8250   22.0790 C.3    55  TYR55       0.1605
      3  C         21.6340   28.1630   23.5690 C.2    55  TYR55       0.2264
      4  O         22.7040   28.3050   24.1720 O.2    55  TYR55      -0.2867
      5  CB        22.4790   28.8850   21.3250 C.3    55  TYR55       0.0534
      6  CG        23.0240   28.3410   20.0320 C.ar   55  TYR55      -0.0201
      7  CD1       24.2240   27.6400   20.0050 C.ar   55  TYR55      -0.0009
      8  CD2       22.3270   28.4980   18.8460 C.ar   55  TYR55      -0.0009
      9  CE1       24.7250   27.1260   18.8270 C.ar   55  TYR55       0.0417
     10  CE2       22.8170   27.9830   17.6580 C.ar   55  TYR55       0.0417
     11  CZ        24.0160   27.2960   17.6530 C.ar   55  TYR55       0.1957
     12  OH        24.5050   26.7850   16.4720 O.3    55  TYR55      -0.2866
     13  N         18.2840   31.5980   27.4240 N.3    58  CYS58      -0.1235
     14  CA        18.0690   32.9890   27.0510 C.3    58  CYS58       0.1677
     15  C         17.2050   33.1370   25.7970 C.2    58  CYS58       0.2270
     16  O         16.9000   34.2650   25.3930 O.2    58  CYS58      -0.2867
     17  CB        19.4140   33.6710   26.8110 C.3    58  CYS58       0.0956
     18  SG        20.3710   32.8790   25.4810 S.3    58  CYS58      -0.0801
     19  N         19.8680   41.6400   19.2890 N.3   235  SER235     -0.1217
     20  CA        19.1090   40.4240   19.0530 C.3   235  SER235      0.1889
     21  C         17.8080   40.4630   19.8450 C.2   235  SER235      0.2288
     22  O         17.7960   40.8320   21.0200 O.2   235  SER235     -0.2866
     23  CB        19.9140   39.1950   19.4590 C.3   235  SER235      0.2089
     24  OG        19.1080   38.0380   19.3420 O.3   235  SER235     -0.2183
     25  N         16.0860   37.9510   20.6810 N.3   237  LYS237     -0.1245
     26  CA        15.9380   36.8220   21.5830 C.3   237  LYS237      0.1561
     27  C         15.6540   37.3450   22.9950 C.2   237  LYS237      0.2260
     28  O         16.3580   38.2280   23.4850 O.2   237  LYS237     -0.2867
     29  CB        17.2030   35.9690   21.5440 C.3   237  LYS237      0.0271
     30  CG        17.3850   35.2020   20.2470 C.3   237  LYS237      0.0035
     31  CD        18.6920   34.3990   20.2570 C.3   237  LYS237      0.0206
     32  CE        19.1290   33.9730   18.8370 C.3   237  LYS237      0.1093
     33  NZ        18.2460   32.9550   18.2080 N.3   237  LYS237     -0.1314
     34  N         18.3050   38.1460   25.2540 N.3   240  GLN240     -0.1245
     35  CA        19.4660   38.8400   24.7150 C.3   240  GLN240      0.1566
     36  C         19.1970   40.2830   24.3110 C.2   240  GLN240      0.2260
     37  O         20.1580   41.0040   24.0280 O.2   240  GLN240     -0.2867
     38  CB        20.0410   38.0670   23.5160 C.3   240  GLN240      0.0367
     39  CG        20.6530   36.7430   23.9160 C.3   240  GLN240      0.0905
     40  CD        21.1830   35.9480   22.7350 C.2   240  GLN240      0.2608
     41  OE1       21.6080   36.5190   21.7260 O.2   240  GLN240     -0.2717
     42  NE2       21.1640   34.6160   22.8610 N.am  240  GLN240     -0.0878
     43  N         19.0320   35.9270   14.8380 N.3   267  ASP267     -0.1225
     44  CA        20.3530   35.3190   14.7900 C.3   267  ASP267      0.1805
     45  C         21.3210   36.3200   14.1790 C.2   267  ASP267      0.2597
     46  O         21.0710   36.8490   13.0880 O.2   267  ASP267     -0.2718
     47  CB        20.3220   34.0100   14.0040 C.3   267  ASP267      0.1424
     48  CG        19.8220   32.8380   14.8500 C.2   267  ASP267      0.3668
     49  OD1       20.3710   32.6390   15.9610 O.co2 267  ASP267     -0.2456
     50  OD2       18.8750   32.1340   14.4290 O.co2 267  ASP267     -0.2456
     51  N         22.4020   36.5980   14.9010 N.am  268  VAL268     -0.1980
     52  CA        23.3610   37.6340   14.5350 C.3   268  VAL268      0.1595
     53  C         24.4950   36.9810   13.7450 C.2   268  VAL268      0.2287
     54  O         25.2840   36.2120   14.2980 O.2   268  VAL268     -0.2864
     55  CB        23.8950   38.3480   15.7830 C.3   268  VAL268      0.0276
     56  CG1       24.9530   39.3720   15.4180 C.3   268  VAL268      0.0022
     57  CG2       22.7460   39.0000   16.5710 C.3   268  VAL268      0.0022
     58  N         24.6090   42.1720   22.3080 N.3   285  ALA285     -0.1231
     59  CA        23.7350   41.0490   22.5950 C.3   285  ALA285      0.1694
     60  C         24.5350   39.9880   23.3310 C.2   285  ALA285      0.2592
     61  O         25.1600   40.2830   24.3510 O.2   285  ALA285     -0.2718
     62  CB        23.1250   40.4920   21.3150 C.3   285  ALA285      0.0304
     63  N         24.5130   38.7660   22.8420 N.am  286  CYS286     -0.1970
     64  CA        25.3940   37.7410   23.3770 C.3   286  CYS286      0.1712
     65  C         26.8340   38.0760   23.0070 C.2   286  CYS286      0.2296
     66  O         27.1500   38.1730   21.8150 O.2   286  CYS286     -0.2864
     67  CB        24.9990   36.3770   22.8380 C.3   286  CYS286      0.0983
     68  SG        25.9980   35.0370   23.4670 S.3   286  CYS286     -0.0798
     69  N         29.4480   36.2600   23.1100 N.3   288  ARG288     -0.1231
     70  CA        30.1580   35.1560   22.4610 C.3   288  ARG288      0.1694
     71  C         30.2230   35.3060   20.9390 C.2   288  ARG288      0.2591
     72  O         31.0330   34.6330   20.2900 O.2   288  ARG288     -0.2718
     73  CB        29.4930   33.8290   22.8110 C.3   288  ARG288      0.0321
     74  CG        30.3790   32.8620   23.5480 C.3   288  ARG288      0.0489
     75  CD        30.1080   31.4550   23.0590 C.3   288  ARG288      0.2205
     76  NE        29.8780   30.4970   24.1340 N.pl3 288  ARG288     -0.0865
     77  CZ        30.8010   29.6530   24.5810 C.cat 288  ARG288      0.5346
     78  NH1       30.5140   28.8010   25.5600 N.pl3 288  ARG288      0.1354
     79  NH2       32.0130   29.6610   24.0420 N.pl3 288  ARG288      0.1354
     80  N         29.3900   36.1590   20.3550 N.am  289  VAL289     -0.1980
     81  CA        29.3810   36.3380   18.9090 C.3   289  VAL289      0.1595
     82  C         30.5930   37.1640   18.4770 C.2   289  VAL289      0.2287
     83  O         31.3790   36.6770   17.6510 O.2   289  VAL289     -0.2864
     84  CB        28.0500   36.9450   18.4370 C.3   289  VAL289      0.0276
     85  CG1       28.1730   37.4240   17.0090 C.3   289  VAL289      0.0022
     86  CG2       26.9120   35.9230   18.6110 C.3   289  VAL289      0.0022
     87  N         33.9830   35.3080   20.2450 N.3   292  ASP292     -0.1239
     88  CA        34.3160   33.9400   19.8770 C.3   292  ASP292      0.1674
     89  C         34.1640   33.7290   18.3670 C.2   292  ASP292      0.2266
     90  O         33.9140   32.6160   17.9070 O.2   292  ASP292     -0.2867
     91  CB        33.4630   32.9530   20.6820 C.3   292  ASP292      0.1410
     92  CG        34.0250   31.5480   20.6760 C.2   292  ASP292      0.3668
     93  OD1       35.2610   31.4070   20.8130 O.co2 292  ASP292     -0.2456
     94  OD2       33.2310   30.5880   20.5270 O.co2 292  ASP292     -0.2456
@<TRIPOS>BOND
     1    46    45    2
     2    53    54    2
     3    53    52    1
     4    47    44    1
     5    47    48    1
     6    45    44    1
     7    45    51   am
     8    50    48   ar
     9    52    51    1
    10    52    55    1
    11    44    43    1
    12    48    49   ar
    13    56    55    1
    14    55    57    1
    15    12    11    1
    16    85    84    1
    17    83    82    2
    18    11    10   ar
    19    11     9   ar
    20    10     8   ar
    21    90    89    2
    22    33    32    1
    23    89    88    1
    24    84    86    1
    25    84    81    1
    26    82    81    1
    27     9     7   ar
    28    32    31    1
    29     8     6   ar
    30    81    80    1
    31    20    19    1
    32    20    23    1
    33    20    21    1
    34    24    23    1
    35    21    22    2
    36    88    87    1
    37    88    91    1
    38     7     6   ar
    39     6     5    1
    40    30    31    1
    41    30    29    1
    42    72    71    2
    43    80    71   am
    44    94    92   ar
    45    92    91    1
    46    92    93   ar
    47    25    26    1
    48    71    70    1
    49    62    59    1
    50     5     2    1
    51     1     2    1
    52    29    26    1
    53    26    27    1
    54    41    40    2
    55    66    65    2
    56     2     3    1
    57    58    59    1
    58    70    73    1
    59    70    69    1
    60    59    60    1
    61    40    42   am
    62    40    39    1
    63    73    74    1
    64    67    64    1
    65    67    68    1
    66    63    60   am
    67    63    64    1
    68    27    28    2
    69    65    64    1
    70    75    74    1
    71    75    76    1
    72    60    61    2
    73    38    39    1
    74    38    35    1
    75     3     4    2
    76    37    36    2
    77    79    77    1
    78    76    77    2
    79    36    35    1
    80    77    78    1
    81    35    34    1
    82    16    15    2
    83    18    17    1
    84    15    14    1
    85    17    14    1
    86    14    13    1
