@<TRIPOS>MOLECULE
tmp/6bxlA00.pdb
 171 163 0 0 0
SMALL
GASTEIGER

@<TRIPOS>ATOM
      1  N         21.0460   27.9930   21.0610 N.3    54  TYR54      -0.1227
      2  CA        22.3620   28.1190   21.6670 C.3    54  TYR54       0.1736
      3  C         22.3290   28.4850   23.1440 C.2    54  TYR54       0.2596
      4  O         23.3970   28.6260   23.7510 O.2    54  TYR54      -0.2718
      5  CB        23.2110   29.1150   20.8810 C.3    54  TYR54       0.0548
      6  CG        23.5700   28.5480   19.5390 C.ar   54  TYR54      -0.0200
      7  CD1       24.4290   27.4630   19.4310 C.ar   54  TYR54      -0.0009
      8  CD2       23.0310   29.0790   18.3800 C.ar   54  TYR54      -0.0009
      9  CE1       24.7490   26.9340   18.2010 C.ar   54  TYR54       0.0417
     10  CE2       23.3460   28.5610   17.1520 C.ar   54  TYR54       0.0417
     11  CZ        24.2010   27.4870   17.0640 C.ar   54  TYR54       0.1957
     12  OH        24.5050   26.9830   15.8220 O.3    54  TYR54      -0.2866
     13  N         21.1530   28.6130   23.7480 N.am   55  GLY55      -0.1942
     14  CA        21.1010   28.7730   25.1900 C.3    55  GLY55       0.2014
     15  C         19.7280   29.1650   25.6870 C.2    55  GLY55       0.2639
     16  O         18.8300   29.5230   24.9180 O.2    55  GLY55      -0.2714
     17  N         19.5880   29.1130   27.0160 N.am   56  ALA56      -0.1963
     18  CA        18.3430   29.4780   27.6820 C.3    56  ALA56       0.1728
     19  C         18.0540   30.9760   27.6110 C.2    56  ALA56       0.2616
     20  O         16.9310   31.3940   27.9210 O.2    56  ALA56      -0.2715
     21  CB        18.3840   28.9970   29.1300 C.3    56  ALA56       0.0334
     22  N         19.0300   31.7830   27.1910 N.am   57  CYS57      -0.1968
     23  CA        18.8000   33.1720   26.8130 C.3    57  CYS57       0.1712
     24  C         17.9350   33.2910   25.5540 C.2    57  CYS57       0.2296
     25  O         17.5920   34.4060   25.1460 O.2    57  CYS57      -0.2864
     26  CB        20.1370   33.8720   26.5700 C.3    57  CYS57       0.0983
     27  SG        21.1060   33.0530   25.2250 S.3    57  CYS57      -0.0798
     28  N         19.4470   23.0680   28.6720 N.3    77  HIS77      -0.1241
     29  CA        19.9280   24.1920   29.4610 C.3    77  HIS77       0.1621
     30  C         18.9760   24.4250   30.6120 C.2    77  HIS77       0.2264
     31  O         17.8470   23.9310   30.6210 O.2    77  HIS77      -0.2867
     32  CB        20.0680   25.4900   28.6560 C.3    77  HIS77       0.0745
     33  CG        20.7740   25.3150   27.3470 C.ar   77  HIS77       0.0817
     34  ND1       20.1380   25.4800   26.1380 N.ar   77  HIS77      -0.2268
     35  CD2       22.0570   24.9920   27.0600 C.ar   77  HIS77       0.1154
     36  CE1       21.0020   25.2720   25.1580 C.ar   77  HIS77       0.1986
     37  NE2       22.1720   24.9670   25.6920 N.ar   77  HIS77      -0.2212
     38  N         17.2100   30.6970   33.1150 N.3    80  MET80      -0.1245
     39  CA        17.6670   32.0150   33.5340 C.3    80  MET80       0.1570
     40  C         16.4620   32.9460   33.6010 C.2    80  MET80       0.2261
     41  O         15.4620   32.7400   32.9110 O.2    80  MET80      -0.2867
     42  CB        18.7410   32.5950   32.5920 C.3    80  MET80       0.0387
     43  CG        18.2810   32.8510   31.1350 C.3    80  MET80       0.0595
     44  SD        19.4390   33.9160   30.2280 S.3    80  MET80      -0.1393
     45  CE        20.9540   32.9490   30.3270 C.3    80  MET80       0.0692
     46  N         28.5010   31.0640   32.7770 N.3   159  LEU159     -0.1231
     47  CA        28.0340   31.1170   31.3980 C.3   159  LEU159      0.1693
     48  C         29.0080   31.9470   30.5730 C.2   159  LEU159      0.2593
     49  O         29.7760   32.7480   31.1150 O.2   159  LEU159     -0.2718
     50  CB        26.6450   31.7450   31.3010 C.3   159  LEU159      0.0284
     51  CG        25.4520   30.9450   31.8010 C.3   159  LEU159      0.0019
     52  CD1       24.1770   31.7400   31.5150 C.3   159  LEU159      0.0001
     53  CD2       25.4160   29.6080   31.1060 C.3   159  LEU159      0.0001
     54  N         28.9510   31.7720   29.2390 N.am  160  GLY160     -0.1942
     55  CA        29.8990   32.4610   28.3780 C.3   160  GLY160      0.2014
     56  C         29.8200   33.9700   28.4720 C.2   160  GLY160      0.2639
     57  O         30.8210   34.6660   28.2590 O.2   160  GLY160     -0.2714
     58  N         28.6460   34.4970   28.8140 N.am  161  CYS161     -0.1967
     59  CA        28.4370   35.9190   29.0310 C.3   161  CYS161      0.1712
     60  C         28.5250   36.3390   30.5050 C.2   161  CYS161      0.2296
     61  O         28.4340   37.5360   30.8030 O.2   161  CYS161     -0.2864
     62  CB        27.0630   36.3100   28.4910 C.3   161  CYS161      0.0983
     63  SG        25.7360   35.2630   29.1890 S.3   161  CYS161     -0.0798
     64  N         37.3690   28.6540   26.1380 N.3   181  PHE181     -0.1227
     65  CA        36.6440   29.9240   26.2170 C.3   181  PHE181      0.1736
     66  C         36.3460   30.3140   27.6670 C.2   181  PHE181      0.2595
     67  O         36.6780   31.4280   28.1010 O.2   181  PHE181     -0.2718
     68  CB        35.3510   29.8510   25.3930 C.3   181  PHE181      0.0547
     69  CG        34.6330   31.1860   25.2490 C.ar  181  PHE181     -0.0202
     70  CD1       35.2860   32.3920   25.5100 C.ar  181  PHE181     -0.0042
     71  CD2       33.3030   31.2300   24.8650 C.ar  181  PHE181     -0.0042
     72  CE1       34.6270   33.6080   25.3920 C.ar  181  PHE181     -0.0003
     73  CE2       32.6420   32.4460   24.7430 C.ar  181  PHE181     -0.0003
     74  CZ        33.3060   33.6350   25.0080 C.ar  181  PHE181     -0.0000
     75  N         35.7280   29.4090   28.4360 N.am  182  HIS182     -0.1975
     76  CA        35.3150   29.7740   29.7890 C.3   182  HIS182      0.1656
     77  C         36.4890   30.1520   30.6800 C.2   182  HIS182      0.2291
     78  O         36.4690   31.2640   31.2380 O.2   182  HIS182     -0.2864
     79  CB        34.4610   28.6560   30.3900 C.3   182  HIS182      0.0771
     80  CG        33.0480   28.6690   29.9020 C.ar  182  HIS182      0.0820
     81  ND1       32.3830   27.5290   29.5030 N.ar  182  HIS182     -0.2267
     82  CD2       32.1760   29.6910   29.7330 C.ar  182  HIS182      0.1154
     83  CE1       31.1600   27.8480   29.1140 C.ar  182  HIS182      0.1986
     84  NE2       31.0080   29.1540   29.2450 N.ar  182  HIS182     -0.2212
     85  N         20.4840   41.6740   19.1350 N.3   234  SER234     -0.1217
     86  CA        19.7270   40.4600   18.8790 C.3   234  SER234      0.1889
     87  C         18.4630   40.4510   19.7240 C.2   234  SER234      0.2288
     88  O         18.5160   40.6930   20.9330 O.2   234  SER234     -0.2866
     89  CB        20.5390   39.2090   19.1830 C.3   234  SER234      0.2089
     90  OG        19.6690   38.0930   19.1240 O.3   234  SER234     -0.2183
     91  N         16.7740   38.0190   20.6100 N.3   236  LYS236     -0.1245
     92  CA        16.6390   36.9010   21.5200 C.3   236  LYS236      0.1561
     93  C         16.3460   37.4640   22.9120 C.2   236  LYS236      0.2260
     94  O         16.9950   38.4180   23.3520 O.2   236  LYS236     -0.2867
     95  CB        17.9060   36.0440   21.5060 C.3   236  LYS236      0.0271
     96  CG        18.1230   35.3190   20.1850 C.3   236  LYS236      0.0035
     97  CD        19.3710   34.4550   20.1880 C.3   236  LYS236      0.0206
     98  CE        19.6920   33.9730   18.7580 C.3   236  LYS236      0.1093
     99  NZ        18.5810   33.1910   18.1140 N.3   236  LYS236     -0.1314
    100  N         18.9970   38.2380   25.1930 N.3   239  GLN239     -0.1245
    101  CA        20.1390   38.9380   24.6360 C.3   239  GLN239      0.1566
    102  C         19.8490   40.3860   24.2680 C.2   239  GLN239      0.2260
    103  O         20.8020   41.1470   24.0640 O.2   239  GLN239     -0.2867
    104  CB        20.6810   38.1980   23.3980 C.3   239  GLN239      0.0367
    105  CG        21.3090   36.8430   23.7130 C.3   239  GLN239      0.0905
    106  CD        21.8820   36.1480   22.4840 C.2   239  GLN239      0.2608
    107  OE1       22.1660   36.7970   21.4690 O.2   239  GLN239     -0.2717
    108  NE2       22.0550   34.8160   22.5670 N.am  239  GLN239     -0.0878
    109  N         18.0500   38.6640   14.6950 N.3   265  ASN265     -0.1225
    110  CA        17.8740   37.5530   15.6120 C.3   265  ASN265      0.1785
    111  C         19.2090   36.8370   15.7240 C.2   265  ASN265      0.2597
    112  O         19.9440   37.0340   16.6950 O.2   265  ASN265     -0.2718
    113  CB        16.7640   36.6220   15.1380 C.3   265  ASN265      0.1169
    114  CG        16.5570   35.4460   16.0660 C.2   265  ASN265      0.2627
    115  OD1       17.2420   35.3090   17.0810 O.2   265  ASN265     -0.2716
    116  ND2       15.5990   34.5940   15.7280 N.am  265  ASN265     -0.0877
    117  N         19.5340   36.0000   14.7420 N.am  266  ASP266     -0.1960
    118  CA        20.8550   35.3940   14.6900 C.3   266  ASP266      0.1840
    119  C         21.8440   36.3950   14.1090 C.2   266  ASP266      0.2622
    120  O         21.6100   36.9630   13.0350 O.2   266  ASP266     -0.2715
    121  CB        20.8250   34.1150   13.8590 C.3   266  ASP266      0.1450
    122  CG        20.4080   32.9070   14.6700 C.2   266  ASP266      0.3671
    123  OD1       21.2220   32.4460   15.5010 O.co2 266  ASP266     -0.2456
    124  OD2       19.2640   32.4300   14.4930 O.co2 266  ASP266     -0.2456
    125  N         22.9410   36.6220   14.8260 N.am  267  VAL267     -0.1963
    126  CA        23.9490   37.5960   14.4180 C.3   267  VAL267      0.1727
    127  C         25.0430   36.8930   13.6190 C.2   267  VAL267      0.2616
    128  O         25.7640   36.0430   14.1540 O.2   267  VAL267     -0.2715
    129  CB        24.5430   38.3150   15.6390 C.3   267  VAL267      0.0290
    130  CG1       25.4530   39.4450   15.1900 C.3   267  VAL267      0.0023
    131  CG2       23.4340   38.8300   16.5380 C.3   267  VAL267      0.0023
    132  N         25.1760   37.2520   12.3410 N.am  268  ASN268     -0.1972
    133  CA        26.3350   36.8180   11.5680 C.3   268  ASN268      0.1688
    134  C         26.6020   37.7910   10.4240 C.2   268  ASN268      0.2292
    135  O         25.7240   38.5390    9.9840 O.2   268  ASN268     -0.2864
    136  CB        26.1770   35.3920   11.0280 C.3   268  ASN268      0.1181
    137  CG        24.9730   35.2340   10.1380 C.2   268  ASN268      0.2629
    138  OD1       24.8760   35.8600    9.0820 O.2   268  ASN268     -0.2716
    139  ND2       24.0520   34.3700   10.5460 N.am  268  ASN268     -0.0877
    140  N         25.0440   38.6000   22.8200 N.3   285  CYS285     -0.1235
    141  CA        25.9090   37.5490   23.3190 C.3   285  CYS285      0.1677
    142  C         27.3610   37.9030   23.0240 C.2   285  CYS285      0.2270
    143  O         27.7340   38.0060   21.8440 O.2   285  CYS285     -0.2867
    144  CB        25.5600   36.2250   22.6630 C.3   285  CYS285      0.0956
    145  SG        26.8680   35.0020   22.8110 S.3   285  CYS285     -0.0801
    146  N         29.9450   36.1890   23.0330 N.3   287  ARG287     -0.1231
    147  CA        30.6600   35.1160   22.3500 C.3   287  ARG287      0.1694
    148  C         30.4630   35.1420   20.8380 C.2   287  ARG287      0.2591
    149  O         30.9260   34.2250   20.1500 O.2   287  ARG287     -0.2718
    150  CB        30.2250   33.7570   22.9000 C.3   287  ARG287      0.0321
    151  CG        30.7380   32.6270   22.0040 C.3   287  ARG287      0.0489
    152  CD        30.5010   31.2810   22.6760 C.3   287  ARG287      0.2205
    153  NE        29.0750   30.9620   22.6260 N.pl3 287  ARG287     -0.0865
    154  CZ        28.5120   30.2320   21.6480 C.cat 287  ARG287      0.5346
    155  NH1       29.2940   29.6290   20.7450 N.pl3 287  ARG287      0.1354
    156  NH2       27.1800   30.1340   21.5530 N.pl3 287  ARG287      0.1354
    157  N         29.7780   36.1470   20.3070 N.am  288  VAL288     -0.1980
    158  CA        29.6250   36.2960   18.8640 C.3   288  VAL288      0.1595
    159  C         30.8190   37.0840   18.3130 C.2   288  VAL288      0.2287
    160  O         31.5170   36.5670   17.4300 O.2   288  VAL288     -0.2864
    161  CB        28.2520   36.9110   18.5320 C.3   288  VAL288      0.0276
    162  CG1       28.0920   37.1760   17.0320 C.3   288  VAL288      0.0022
    163  CG2       27.1330   35.9860   19.0570 C.3   288  VAL288      0.0022
    164  N         34.2710   35.0350   19.8880 N.3   291  ASP291     -0.1239
    165  CA        34.4890   33.6470   19.4890 C.3   291  ASP291      0.1674
    166  C         34.3400   33.4740   17.9760 C.2   291  ASP291      0.2266
    167  O         33.8740   32.4400   17.4920 O.2   291  ASP291     -0.2867
    168  CB        33.5250   32.7310   20.2450 C.3   291  ASP291      0.1410
    169  CG        34.0860   31.3480   20.4790 C.2   291  ASP291      0.3668
    170  OD1       35.2710   31.2550   20.8680 O.co2 291  ASP291     -0.2456
    171  OD2       33.3340   30.3600   20.2940 O.co2 291  ASP291     -0.2456
@<TRIPOS>BOND
     1   138   137    2
     2   135   134    2
     3   137   139   am
     4   137   136    1
     5   134   133    1
     6   136   133    1
     7   133   132    1
     8   132   127   am
     9   120   119    2
    10   127   128    2
    11   127   126    1
    12   121   122    1
    13   121   118    1
    14   119   118    1
    15   119   125   am
    16   126   125    1
    17   126   129    1
    18   124   122   ar
    19   122   123   ar
    20   118   117    1
    21   109   110    1
    22   117   111   am
    23   113   110    1
    24   113   114    1
    25   130   129    1
    26   110   111    1
    27   129   131    1
    28   111   112    2
    29   116   114   am
    30    12    11    1
    31   114   115    2
    32   162   161    1
    33    11    10   ar
    34    11     9   ar
    35    10     8   ar
    36   160   159    2
    37   167   166    2
    38   166   165    1
    39    99    98    1
    40     9     7   ar
    41   159   158    1
    42     8     6   ar
    43   161   158    1
    44   161   163    1
    45    98    97    1
    46   158   157    1
    47    86    85    1
    48    86    89    1
    49    86    87    1
    50    90    89    1
    51     7     6   ar
    52   165   164    1
    53   165   168    1
    54     6     5    1
    55    87    88    2
    56   149   148    2
    57    96    97    1
    58    96    95    1
    59   168   169    1
    60   171   169   ar
    61   157   148   am
    62   169   170   ar
    63    91    92    1
    64   155   154    1
    65   148   147    1
    66     5     2    1
    67     1     2    1
    68   107   106    2
    69    95    92    1
    70    92    93    1
    71   156   154    1
    72   154   153    2
    73     2     3    1
    74   143   142    2
    75   151   152    1
    76   151   150    1
    77   147   150    1
    78   147   146    1
    79   106   108   am
    80   106   105    1
    81   153   152    1
    82   144   145    1
    83   144   141    1
    84   140   141    1
    85    93    94    2
    86   142   141    1
    87     3    13   am
    88     3     4    2
    89   104   105    1
    90   104   101    1
    91    13    14    1
    92   103   102    2
    93   102   101    1
    94   101   100    1
    95    73    71   ar
    96    73    74   ar
    97    71    69   ar
    98    16    15    2
    99    74    72   ar
   100    25    24    2
   101    36    37   ar
   102    36    34   ar
   103    14    15    1
   104    27    26    1
   105    69    68    1
   106    69    70   ar
   107    72    70   ar
   108    68    65    1
   109    24    23    1
   110    15    17   am
   111    37    35   ar
   112    34    33   ar
   113    64    65    1
   114    65    66    1
   115    26    23    1
   116    23    22    1
   117    17    18    1
   118    35    33   ar
   119    22    19   am
   120    33    32    1
   121    19    18    1
   122    19    20    2
   123    66    67    2
   124    66    75   am
   125    18    21    1
   126    57    56    2
   127    55    56    1
   128    55    54    1
   129    75    76    1
   130    56    58   am
   131    62    59    1
   132    62    63    1
   133    32    29    1
   134    28    29    1
   135    58    59    1
   136    59    60    1
   137    83    84   ar
   138    83    81   ar
   139    54    48   am
   140    84    82   ar
   141    29    30    1
   142    81    80   ar
   143    82    80   ar
   144    76    79    1
   145    76    77    1
   146    80    79    1
   147    44    45    1
   148    44    43    1
   149    60    61    2
   150    48    49    2
   151    48    47    1
   152    30    31    2
   153    77    78    2
   154    53    51    1
   155    43    42    1
   156    50    47    1
   157    50    51    1
   158    47    46    1
   159    52    51    1
   160    42    39    1
   161    41    40    2
   162    38    39    1
   163    39    40    1
