@<TRIPOS>MOLECULE
tmp/6bxmB00.pdb
 78 75 0 0 0
SMALL
GASTEIGER

@<TRIPOS>ATOM
      1  N         27.0330    6.7490   74.0690 N.3    53  PHE53      -0.1227
      2  CA        26.4450    7.2520   72.8430 C.3    53  PHE53       0.1736
      3  C         27.2210    6.8940   71.5860 C.2    53  PHE53       0.2596
      4  O         26.7190    7.1440   70.4840 O.2    53  PHE53      -0.2718
      5  CB        26.2690    8.7780   72.9290 C.3    53  PHE53       0.0547
      6  CG        25.4020    9.2080   74.0800 C.ar   53  PHE53      -0.0202
      7  CD1       24.0400    9.0050   74.0500 C.ar   53  PHE53      -0.0042
      8  CD2       25.9530    9.7840   75.1970 C.ar   53  PHE53      -0.0042
      9  CE1       23.2460    9.3890   75.1210 C.ar   53  PHE53      -0.0003
     10  CE2       25.1710   10.1530   76.2660 C.ar   53  PHE53      -0.0003
     11  CZ        23.8170    9.9560   76.2250 C.ar   53  PHE53      -0.0000
     12  N         28.3970    6.3060   71.7060 N.am   54  GLY54      -0.1957
     13  CA        29.1610    5.9480   70.5300 C.3    54  GLY54       0.1869
     14  C         30.5870    5.6060   70.8950 C.2    54  GLY54       0.2309
     15  O         30.9650    5.5810   72.0640 O.2    54  GLY54      -0.2863
     16  N         29.3220   -0.0040   67.9140 N.3    74  HIS74      -0.1241
     17  CA        29.8810    1.0220   67.0530 C.3    74  HIS74       0.1621
     18  C         31.1700    0.4940   66.4540 C.2    74  HIS74       0.2264
     19  O         31.7400   -0.4920   66.9270 O.2    74  HIS74      -0.2867
     20  CB        30.1390    2.3400   67.8160 C.3    74  HIS74       0.0745
     21  CG        29.0440    2.7040   68.7710 C.ar   74  HIS74       0.0817
     22  ND1       29.1880    2.6010   70.1410 N.ar   74  HIS74      -0.2268
     23  CD2       27.7750    3.1290   68.5560 C.ar   74  HIS74       0.1154
     24  CE1       28.0600    2.9620   70.7290 C.ar   74  HIS74       0.1986
     25  NE2       27.1880    3.2930   69.7900 N.ar   74  HIS74      -0.2212
     26  N         25.9000    4.9940   56.7940 N.3   115  THR115     -0.1218
     27  CA        26.3240    4.8320   58.1770 C.3   115  THR115      0.1862
     28  C         27.0190    3.4870   58.3470 C.2   115  THR115      0.2287
     29  O         26.9680    2.6130   57.4740 O.2   115  THR115     -0.2866
     30  CB        25.1370    4.9460   59.1350 C.3   115  THR115      0.1770
     31  OG1       24.1180    4.0160   58.7470 O.3   115  THR115     -0.2211
     32  CG2       24.5780    6.3470   59.1070 C.3   115  THR115      0.0375
     33  N         29.8340    8.0140   56.9400 N.3   149  VAL149     -0.1231
     34  CA        29.7490    9.3360   57.5540 C.3   149  VAL149      0.1692
     35  C         29.2300    9.1720   58.9760 C.2   149  VAL149      0.2592
     36  O         28.5560    8.1870   59.3100 O.2   149  VAL149     -0.2718
     37  CB        28.8720   10.3490   56.7770 C.3   149  VAL149      0.0266
     38  CG1       29.3750   10.5090   55.3230 C.3   149  VAL149      0.0020
     39  CG2       27.4150    9.9470   56.8140 C.3   149  VAL149      0.0020
     40  N         29.5880   10.1400   59.8210 N.am  150  LEU150     -0.1966
     41  CA        29.1220   10.2520   61.1940 C.3   150  LEU150      0.1728
     42  C         28.5210   11.6340   61.3520 C.2   150  LEU150      0.2617
     43  O         28.7600   12.5290   60.5360 O.2   150  LEU150     -0.2715
     44  CB        30.2620   10.0780   62.2180 C.3   150  LEU150      0.0311
     45  CG        31.0340    8.7650   62.3590 C.3   150  LEU150      0.0022
     46  CD1       32.2760    8.9890   63.1930 C.3   150  LEU150      0.0001
     47  CD2       30.1870    7.6720   62.9980 C.3   150  LEU150      0.0001
     48  N         27.7550   11.8230   62.4250 N.am  151  GLY151     -0.1940
     49  CA        27.2090   13.1460   62.6890 C.3   151  GLY151      0.2014
     50  C         28.2740   14.2130   62.8030 C.2   151  GLY151      0.2639
     51  O         27.9930   15.3920   62.5760 O.2   151  GLY151     -0.2714
     52  N         29.5010   13.8170   63.1280 N.am  152  CYS152     -0.1967
     53  CA        30.6090   14.7290   63.3780 C.3   152  CYS152      0.1712
     54  C         31.7170   14.5840   62.3540 C.2   152  CYS152      0.2296
     55  O         32.8300   15.0750   62.5910 O.2   152  CYS152     -0.2864
     56  CB        31.1830   14.4640   64.7760 C.3   152  CYS152      0.0983
     57  SG        31.5790   12.7030   65.0030 S.3   152  CYS152     -0.0798
     58  N         22.6030   13.2420   58.3190 N.3   173  HIS173     -0.1241
     59  CA        23.7730   12.9300   57.5000 C.3   173  HIS173      0.1621
     60  C         23.6510   13.4790   56.0860 C.2   173  HIS173      0.2264
     61  O         24.5850   14.1640   55.6360 O.2   173  HIS173     -0.2867
     62  CB        24.0280   11.4190   57.4840 C.3   173  HIS173      0.0745
     63  CG        24.3080   10.8420   58.8300 C.ar  173  HIS173      0.0817
     64  ND1       23.4770    9.9220   59.4320 N.ar  173  HIS173     -0.2268
     65  CD2       25.3290   11.0490   59.6930 C.ar  173  HIS173      0.1154
     66  CE1       23.9760    9.5850   60.6080 C.ar  173  HIS173      0.1986
     67  NE2       25.0970   10.2560   60.7920 N.ar  173  HIS173     -0.2212
     68  N         25.5990   16.5650   67.2660 N.3   278  ARG278     -0.1245
     69  CA        24.1980   16.1880   67.1330 C.3   278  ARG278      0.1563
     70  C         23.3570   16.6980   68.2910 C.2   278  ARG278      0.2260
     71  O         22.1580   16.9380   68.1120 O.2   278  ARG278     -0.2867
     72  CB        24.0710   14.6750   66.9830 C.3   278  ARG278      0.0307
     73  CG        24.7120   14.2120   65.6940 C.3   278  ARG278      0.0489
     74  CD        24.1530   12.8950   65.2130 C.3   278  ARG278      0.2205
     75  NE        22.7140   12.9990   65.0500 N.pl3 278  ARG278     -0.0865
     76  CZ        22.0250   12.3980   64.0930 C.cat 278  ARG278      0.5346
     77  NH1       22.6560   11.6610   63.1880 N.pl3 278  ARG278      0.1354
     78  NH2       20.7060   12.5600   64.0330 N.pl3 278  ARG278      0.1354
@<TRIPOS>BOND
     1    38    37    1
     2    61    60    2
     3    60    59    1
     4    37    39    1
     5    37    34    1
     6    26    27    1
     7    33    34    1
     8    29    28    2
     9    62    59    1
    10    62    63    1
    11    59    58    1
    12    34    35    1
    13    27    28    1
    14    27    30    1
    15    31    30    1
    16    63    64   ar
    17    63    65   ar
    18    35    36    2
    19    35    40   am
    20    32    30    1
    21    64    66   ar
    22    65    67   ar
    23    40    41    1
    24    43    42    2
    25    66    67   ar
    26    41    42    1
    27    41    44    1
    28    42    48   am
    29    44    45    1
    30    54    55    2
    31    54    53    1
    32    45    47    1
    33    45    46    1
    34    48    49    1
    35    51    50    2
    36    49    50    1
    37    50    52   am
    38    52    53    1
    39    77    76    1
    40    53    56    1
    41    78    76    1
    42    76    75    2
    43    56    57    1
    44    75    74    1
    45    74    73    1
    46    73    72    1
    47    18    19    2
    48    18    17    1
    49    72    69    1
    50    17    20    1
    51    17    16    1
    52    69    68    1
    53    69    70    1
    54    20    21    1
    55    71    70    2
    56    23    21   ar
    57    23    25   ar
    58    21    22   ar
    59    25    24   ar
    60    22    24   ar
    61     4     3    2
    62    13    14    1
    63    13    12    1
    64    14    15    2
    65     3    12   am
    66     3     2    1
    67     2     5    1
    68     2     1    1
    69     5     6    1
    70     7     6   ar
    71     7     9   ar
    72     6     8   ar
    73     9    11   ar
    74     8    10   ar
    75    11    10   ar
