@<TRIPOS>MOLECULE
tmp/6bxmB01.pdb
 117 109 0 0 0
SMALL
GASTEIGER

@<TRIPOS>ATOM
      1  N         27.0330    6.7490   74.0690 N.3    53  PHE53      -0.1241
      2  CA        26.4450    7.2520   72.8430 C.3    53  PHE53       0.1605
      3  C         27.2210    6.8940   71.5860 C.2    53  PHE53       0.2264
      4  O         26.7190    7.1440   70.4840 O.2    53  PHE53      -0.2867
      5  CB        26.2690    8.7780   72.9290 C.3    53  PHE53       0.0534
      6  CG        25.4020    9.2080   74.0800 C.ar   53  PHE53      -0.0203
      7  CD1       24.0400    9.0050   74.0500 C.ar   53  PHE53      -0.0042
      8  CD2       25.9530    9.7840   75.1970 C.ar   53  PHE53      -0.0042
      9  CE1       23.2460    9.3890   75.1210 C.ar   53  PHE53      -0.0003
     10  CE2       25.1710   10.1530   76.2660 C.ar   53  PHE53      -0.0003
     11  CZ        23.8170    9.9560   76.2250 C.ar   53  PHE53      -0.0000
     12  N         32.6660   18.6350   76.8780 N.3   225  SER225     -0.1217
     13  CA        32.4000   17.3080   77.4120 C.3   225  SER225      0.1889
     14  C         33.7180   16.5930   77.7060 C.2   225  SER225      0.2288
     15  O         34.6840   16.7140   76.9500 O.2   225  SER225     -0.2866
     16  CB        31.5480   16.4840   76.4460 C.3   225  SER225      0.2089
     17  OG        31.3100   15.1830   76.9820 O.3   225  SER225     -0.2183
     18  N         33.9130   13.4190   77.6670 N.3   227  LYS227     -0.1245
     19  CA        33.8690   12.1330   76.9840 C.3   227  LYS227      0.1561
     20  C         35.0630   11.9720   76.0490 C.2   227  LYS227      0.2260
     21  O         35.4980   12.9250   75.3830 O.2   227  LYS227     -0.2867
     22  CB        32.5540   11.9830   76.2230 C.3   227  LYS227      0.0271
     23  CG        31.3890   11.6390   77.1540 C.3   227  LYS227      0.0035
     24  CD        30.0930   11.5960   76.3740 C.3   227  LYS227      0.0206
     25  CE        28.9080   11.3220   77.2790 C.3   227  LYS227      0.1093
     26  NZ        29.1850   10.2380   78.2600 N.3   227  LYS227     -0.1314
     27  N         34.8130   13.4300   72.6340 N.3   230  GLN230     -0.1245
     28  CA        34.0900   14.6810   72.4070 C.3   230  GLN230      0.1566
     29  C         34.7770   15.8900   73.0130 C.2   230  GLN230      0.2260
     30  O         34.2870   17.0150   72.8560 O.2   230  GLN230     -0.2867
     31  CB        32.6660   14.5810   72.9510 C.3   230  GLN230      0.0367
     32  CG        31.8660   13.4360   72.3320 C.3   230  GLN230      0.0905
     33  CD        30.4220   13.4620   72.7550 C.2   230  GLN230      0.2608
     34  OE1       29.9420   14.4560   73.3070 O.2   230  GLN230     -0.2717
     35  NE2       29.7130   12.3730   72.4960 N.am  230  GLN230     -0.0878
     36  N         30.2200   15.9250   81.7770 N.3   256  ASP256     -0.1225
     37  CA        30.2670   14.6160   81.1230 C.3   256  ASP256      0.1805
     38  C         29.0970   14.5140   80.1440 C.2   256  ASP256      0.2598
     39  O         29.2610   14.7180   78.9310 O.2   256  ASP256     -0.2718
     40  CB        30.2360   13.5260   82.2110 C.3   256  ASP256      0.1424
     41  CG        30.1900   12.0870   81.6560 C.2   256  ASP256      0.3668
     42  OD1       30.4290   11.8540   80.4440 O.co2 256  ASP256     -0.2456
     43  OD2       29.9110   11.1740   82.4780 O.co2 256  ASP256     -0.2456
     44  N         27.9100   14.2200   80.6690 N.am  257  LEU257     -0.1966
     45  CA        26.6770   14.3450   79.9050 C.3   257  LEU257      0.1728
     46  C         26.3060   15.8080   79.6930 C.2   257  LEU257      0.2616
     47  O         26.5140   16.6580   80.5580 O.2   257  LEU257     -0.2715
     48  CB        25.5270   13.6520   80.6250 C.3   257  LEU257      0.0311
     49  CG        25.6080   12.1410   80.7620 C.3   257  LEU257      0.0022
     50  CD1       24.6100   11.6860   81.8010 C.3   257  LEU257      0.0001
     51  CD2       25.2890   11.5500   79.4230 C.3   257  LEU257      0.0001
     52  N         25.7150   16.0850   78.5400 N.am  258  VAL258     -0.1963
     53  CA        25.2760   17.4200   78.1710 C.3   258  VAL258      0.1727
     54  C         23.7700   17.3150   77.9720 C.2   258  VAL258      0.2616
     55  O         23.3060   16.8690   76.9140 O.2   258  VAL258     -0.2715
     56  CB        25.9710   17.9260   76.9010 C.3   258  VAL258      0.0290
     57  CG1       25.5050   19.3450   76.5490 C.3   258  VAL258      0.0023
     58  CG2       27.4940   17.8480   77.0370 C.3   258  VAL258      0.0023
     59  N         23.0030   17.6980   78.9860 N.am  259  THR259     -0.1951
     60  CA        21.5600   17.5350   78.9900 C.3   259  THR259      0.1897
     61  C         20.9000   18.8700   79.2680 C.2   259  THR259      0.2313
     62  O         21.4960   19.7450   79.9060 O.2   259  THR259     -0.2863
     63  CB        21.0790   16.5350   80.0560 C.3   259  THR259      0.1794
     64  OG1       21.3000   17.1040   81.3500 O.3   259  THR259     -0.2208
     65  CG2       21.7910   15.1970   79.9420 C.3   259  THR259      0.0378
     66  N         29.3280   16.7300   71.2930 N.3   276  CYS276     -0.1235
     67  CA        28.7050   16.0920   70.1380 C.3   276  CYS276      0.1677
     68  C         27.8840   17.0980   69.3380 C.2   276  CYS276      0.2270
     69  O         26.9370   17.6710   69.8760 O.2   276  CYS276     -0.2867
     70  CB        27.8050   14.9350   70.5690 C.3   276  CYS276      0.0956
     71  SG        26.7460   14.2390   69.2450 S.3   276  CYS276     -0.0801
     72  N         25.5990   16.5650   67.2660 N.3   278  ARG278     -0.1231
     73  CA        24.1980   16.1880   67.1330 C.3   278  ARG278      0.1694
     74  C         23.3570   16.6980   68.2910 C.2   278  ARG278      0.2591
     75  O         22.1580   16.9380   68.1120 O.2   278  ARG278     -0.2718
     76  CB        24.0710   14.6750   66.9830 C.3   278  ARG278      0.0321
     77  CG        24.7120   14.2120   65.6940 C.3   278  ARG278      0.0489
     78  CD        24.1530   12.8950   65.2130 C.3   278  ARG278      0.2205
     79  NE        22.7140   12.9990   65.0500 N.pl3 278  ARG278     -0.0865
     80  CZ        22.0250   12.3980   64.0930 C.cat 278  ARG278      0.5346
     81  NH1       22.6560   11.6610   63.1880 N.pl3 278  ARG278      0.1354
     82  NH2       20.7060   12.5600   64.0330 N.pl3 278  ARG278      0.1354
     83  N         23.9560   16.8630   69.4780 N.am  279  ILE279     -0.1980
     84  CA        23.2680   17.5050   70.6010 C.3   279  ILE279      0.1595
     85  C         22.6800   18.8410   70.1660 C.2   279  ILE279      0.2287
     86  O         21.5030   19.1470   70.4140 O.2   279  ILE279     -0.2864
     87  CB        24.2400   17.7060   71.7770 C.3   279  ILE279      0.0276
     88  CG1       24.8010   16.3730   72.2630 C.3   279  ILE279      0.0022
     89  CG2       23.5710   18.5250   72.9020 C.3   279  ILE279      0.0022
     90  CD1       25.8820   16.5520   73.3130 C.3   279  ILE279      0.0001
     91  N         19.8440   17.9620   67.2750 N.3   282  ASP282     -0.1225
     92  CA        18.7710   17.0050   67.5360 C.3   282  ASP282      0.1805
     93  C         18.0210   17.3020   68.8160 C.2   282  ASP282      0.2597
     94  O         16.8410   16.9480   68.9210 O.2   282  ASP282     -0.2718
     95  CB        19.3200   15.5830   67.6440 C.3   282  ASP282      0.1424
     96  CG        19.7790   15.0300   66.3180 C.2   282  ASP282      0.3668
     97  OD1       19.4870   15.6470   65.2620 O.co2 282  ASP282     -0.2456
     98  OD2       20.4470   13.9740   66.3570 O.co2 282  ASP282     -0.2456
     99  N         18.7000   17.8740   69.8110 N.am  283  ASP283     -0.1974
    100  CA        18.1010   18.2150   71.0910 C.3   283  ASP283      0.1709
    101  C         17.7150   19.6860   71.1720 C.2   283  ASP283      0.2293
    102  O         17.3290   20.1540   72.2490 O.2   283  ASP283     -0.2864
    103  CB        19.0560   17.8450   72.2320 C.3   283  ASP283      0.1436
    104  CG        19.2810   16.3340   72.3330 C.2   283  ASP283      0.3671
    105  OD1       18.3280   15.5670   72.0570 O.co2 283  ASP283     -0.2456
    106  OD2       20.4090   15.9110   72.6750 O.co2 283  ASP283     -0.2456
    107  N         14.7030   21.0670   73.0140 N.3   286  ARG286     -0.1245
    108  CA        14.6380   20.6470   74.4100 C.3   286  ARG286      0.1563
    109  C         15.3250   21.6170   75.3640 C.2   286  ARG286      0.2260
    110  O         15.1270   21.5050   76.5810 O.2   286  ARG286     -0.2867
    111  CB        15.2660   19.2560   74.5850 C.3   286  ARG286      0.0307
    112  CG        14.4470   18.0980   74.0040 C.3   286  ARG286      0.0489
    113  CD        14.6230   16.8130   74.8460 C.3   286  ARG286      0.2205
    114  NE        15.8590   16.0930   74.5440 N.pl3 286  ARG286     -0.0865
    115  CZ        16.5360   15.3650   75.4330 C.cat 286  ARG286      0.5346
    116  NH1       17.6500   14.7350   75.0720 N.pl3 286  ARG286      0.1354
    117  NH2       16.1020   15.2700   76.6870 N.pl3 286  ARG286      0.1354
@<TRIPOS>BOND
     1    81    80    1
     2    82    80    1
     3    80    79    2
     4    79    78    1
     5    78    77    1
     6    97    96   ar
     7    77    76    1
     8    96    98   ar
     9    96    95    1
    10    76    73    1
    11    73    72    1
    12    73    74    1
    13    91    92    1
    14    92    95    1
    15    92    93    1
    16    75    74    2
    17    74    83   am
    18    93    94    2
    19    93    99   am
    20    71    70    1
    21    68    69    2
    22    68    67    1
    23    83    84    1
    24    99   100    1
    25    67    70    1
    26    67    66    1
    27    85    86    2
    28    85    84    1
    29     4     3    2
    30    84    87    1
    31   100   101    1
    32   100   103    1
    33   101   102    2
    34     3     2    1
    35    87    88    1
    36    87    89    1
    37   105   104   ar
    38   103   104    1
    39    88    90    1
    40    32    33    1
    41    32    31    1
    42   104   106   ar
    43    28    27    1
    44    28    31    1
    45    28    29    1
    46    35    33   am
    47    33    34    2
    48     2     5    1
    49     2     1    1
    50    30    29    2
    51     5     6    1
    52   107   108    1
    53   112   111    1
    54   112   113    1
    55     7     6   ar
    56     7     9   ar
    57     6     8   ar
    58   108   111    1
    59   108   109    1
    60   114   113    1
    61   114   115    2
    62   116   115    1
    63     9    11   ar
    64     8    10   ar
    65   109   110    2
    66    21    20    2
    67   115   117    1
    68    20    19    1
    69    22    19    1
    70    22    23    1
    71    11    10   ar
    72    24    23    1
    73    24    25    1
    74    16    17    1
    75    16    13    1
    76    57    56    1
    77    12    13    1
    78    56    58    1
    79    56    53    1
    80    55    54    2
    81    15    14    2
    82    19    18    1
    83    25    26    1
    84    13    14    1
    85    54    53    1
    86    54    59   am
    87    53    52    1
    88    52    46   am
    89    39    38    2
    90    59    60    1
    91    60    61    1
    92    60    63    1
    93    61    62    2
    94    51    49    1
    95    46    45    1
    96    46    47    2
    97    45    48    1
    98    45    44    1
    99    65    63    1
   100    63    64    1
   101    38    44   am
   102    38    37    1
   103    42    41   ar
   104    48    49    1
   105    49    50    1
   106    37    36    1
   107    37    40    1
   108    41    40    1
   109    41    43   ar
