@<TRIPOS>MOLECULE
tmp/6bxnA00.pdb
 154 145 0 0 0
SMALL
GASTEIGER

@<TRIPOS>ATOM
      1  N         12.3050   13.3010   46.4750 N.3    52  PHE52      -0.1227
      2  CA        13.0720   13.8430   47.5870 C.3    52  PHE52       0.1736
      3  C         12.3640   13.7110   48.9300 C.2    52  PHE52       0.2596
      4  O         12.9530   14.0560   49.9660 O.2    52  PHE52      -0.2718
      5  CB        13.4240   15.3030   47.2710 C.3    52  PHE52       0.0547
      6  CG        14.2620   15.4330   46.0290 C.ar   52  PHE52      -0.0202
      7  CD1       15.5700   14.9550   46.0160 C.ar   52  PHE52      -0.0042
      8  CD2       13.7330   15.9550   44.8680 C.ar   52  PHE52      -0.0042
      9  CE1       16.3370   15.0190   44.8770 C.ar   52  PHE52      -0.0003
     10  CE2       14.4960   16.0240   43.7220 C.ar   52  PHE52      -0.0003
     11  CZ        15.7990   15.5490   43.7300 C.ar   52  PHE52      -0.0000
     12  N         11.1320   13.2220   48.9410 N.am   53  GLY53      -0.1957
     13  CA        10.3570   13.1570   50.1620 C.3    53  GLY53       0.1869
     14  C          8.8800   12.9770   49.8800 C.2    53  GLY53       0.2309
     15  O          8.4310   12.8940   48.7260 O.2    53  GLY53      -0.2863
     16  N          6.8710   15.2450   50.2920 N.3    55  CYS55      -0.1235
     17  CA         6.5610   16.4780   49.5860 C.3    55  CYS55       0.1677
     18  C          6.6650   16.3200   48.0780 C.2    55  CYS55       0.2270
     19  O          6.5000   17.3060   47.3540 O.2    55  CYS55      -0.2867
     20  CB         7.5410   17.5700   50.0120 C.3    55  CYS55       0.0956
     21  SG         9.2300   17.1400   49.4490 S.3    55  CYS55      -0.0801
     22  N          9.4430    7.6060   53.4650 N.3    73  HIS73      -0.1241
     23  CA         8.9990    8.8190   54.1270 C.3    73  HIS73       0.1621
     24  C          7.6930    8.5580   54.8500 C.2    73  HIS73       0.2264
     25  O          6.9190    7.6730   54.4720 O.2    73  HIS73      -0.2867
     26  CB         8.8320    9.9710   53.1270 C.3    73  HIS73       0.0745
     27  CG        10.0090   10.1370   52.2240 C.ar   73  HIS73       0.0817
     28  ND1        9.9370    9.9330   50.8630 N.ar   73  HIS73      -0.2268
     29  CD2       11.3010   10.4450   52.4920 C.ar   73  HIS73       0.1154
     30  CE1       11.1300   10.1190   50.3280 C.ar   73  HIS73       0.1986
     31  NE2       11.9750   10.4360   51.2950 N.ar   73  HIS73      -0.2212
     32  N         11.7690   18.2390   59.9270 N.3   137  LEU137     -0.1231
     33  CA        12.1430   18.1570   58.5220 C.3   137  LEU137      0.1693
     34  C         13.0190   19.3600   58.1850 C.2   137  LEU137      0.2593
     35  O         13.1340   20.3080   58.9630 O.2   137  LEU137     -0.2718
     36  CB        10.9020   18.1290   57.6290 C.3   137  LEU137      0.0284
     37  CG         9.9600   16.9280   57.6770 C.3   137  LEU137      0.0019
     38  CD1        8.6190   17.2680   57.0310 C.3   137  LEU137      0.0001
     39  CD2       10.5890   15.7260   56.9910 C.3   137  LEU137      0.0001
     40  N         13.6500   19.3330   57.0170 N.am  138  GLY138     -0.1942
     41  CA        14.4070   20.5070   56.6010 C.3   138  GLY138      0.2014
     42  C         13.5520   21.7460   56.4550 C.2   138  GLY138      0.2639
     43  O         14.0730   22.8620   56.4950 O.2   138  GLY138     -0.2714
     44  N         12.2360   21.5640   56.3210 N.am  139  CYS139     -0.1967
     45  CA        11.2700   22.6180   56.0460 C.3   139  CYS139      0.1712
     46  C         10.2220   22.7490   57.1480 C.2   139  CYS139      0.2296
     47  O          9.1700   23.3510   56.9260 O.2   139  CYS139     -0.2864
     48  CB        10.5780   22.3410   54.7090 C.3   139  CYS139      0.0983
     49  SG         9.6270   20.7960   54.7370 S.3   139  CYS139     -0.0798
     50  N         19.4010   19.9490   60.2580 N.3   158  HIS158     -0.1241
     51  CA        18.2860   19.9060   61.2000 C.3   158  HIS158      0.1621
     52  C         18.6230   20.5760   62.5250 C.2   158  HIS158      0.2264
     53  O         17.8690   21.4730   62.9410 O.2   158  HIS158     -0.2867
     54  CB        17.8060   18.4630   61.3880 C.3   158  HIS158      0.0745
     55  CG        17.2560   17.8390   60.1380 C.ar  158  HIS158      0.0817
     56  ND1       17.9790   16.9560   59.3670 N.ar  158  HIS158     -0.2268
     57  CD2       16.0520   17.9660   59.5300 C.ar  158  HIS158      0.1154
     58  CE1       17.2480   16.5700   58.3360 C.ar  158  HIS158      0.1986
     59  NE2       16.0740   17.1670   58.4130 N.ar  158  HIS158     -0.2212
     60  N          8.0820   25.4390   42.3710 N.3   205  SER205     -0.1217
     61  CA         8.0930   24.0410   41.9700 C.3   205  SER205      0.1889
     62  C          6.6810   23.4890   41.9550 C.2   205  SER205      0.2288
     63  O          5.9130   23.7200   42.8870 O.2   205  SER205     -0.2866
     64  CB         8.9490   23.1890   42.9010 C.3   205  SER205      0.2089
     65  OG         8.8470   21.8350   42.5500 O.3   205  SER205     -0.2183
     66  N          6.1280   20.3900   42.3570 N.3   207  LYS207     -0.1245
     67  CA         6.0660   19.1790   43.1720 C.3   207  LYS207      0.1561
     68  C          4.9350   19.2840   44.1970 C.2   207  LYS207      0.2260
     69  O          4.5560   20.3750   44.6250 O.2   207  LYS207     -0.2867
     70  CB         7.4150   18.9180   43.8530 C.3   207  LYS207      0.0271
     71  CG         8.4760   18.3700   42.8920 C.3   207  LYS207      0.0035
     72  CD         9.7930   18.0960   43.6100 C.3   207  LYS207      0.0206
     73  CE        10.8590   17.6460   42.6250 C.3   207  LYS207      0.1093
     74  NZ        10.3370   16.4850   41.8560 N.3   207  LYS207     -0.1314
     75  N          5.6550   21.1080   47.4070 N.3   210  GLN210     -0.1245
     76  CA         6.5890   22.2390   47.3350 C.3   210  GLN210      0.1566
     77  C          6.0280   23.4400   46.5860 C.2   210  GLN210      0.2260
     78  O          6.7340   24.4450   46.4240 O.2   210  GLN210     -0.2867
     79  CB         7.9110   21.8080   46.6750 C.3   210  GLN210      0.0367
     80  CG         8.6120   20.6230   47.3520 C.3   210  GLN210      0.0905
     81  CD         9.9800   20.3490   46.7530 C.2   210  GLN210      0.2608
     82  OE1       10.5390   21.1950   46.0640 O.2   210  GLN210     -0.2717
     83  NE2       10.5140   19.1520   46.9900 N.am  210  GLN210     -0.0878
     84  N          9.7030   21.8570   37.7020 N.3   236  ASP236     -0.1225
     85  CA         9.5780   20.6490   38.5160 C.3   236  ASP236      0.1805
     86  C         10.8300   20.5180   39.3720 C.2   236  ASP236      0.2598
     87  O         10.8200   20.8690   40.5590 O.2   236  ASP236     -0.2718
     88  CB         9.3400   19.4410   37.6010 C.3   236  ASP236      0.1424
     89  CG         9.3770   18.1060   38.3400 C.2   236  ASP236      0.3668
     90  OD1        9.1560   18.0520   39.5720 O.co2 236  ASP236     -0.2456
     91  OD2        9.6450   17.0900   37.6600 O.co2 236  ASP236     -0.2456
     92  N         11.9260   20.0770   38.7670 N.am  237  LEU237     -0.1966
     93  CA        13.2050   20.0210   39.4500 C.3   237  LEU237      0.1728
     94  C         13.8000   21.4240   39.4980 C.2   237  LEU237      0.2616
     95  O         13.6470   22.2030   38.5540 O.2   237  LEU237     -0.2715
     96  CB        14.1600   19.0750   38.7170 C.3   237  LEU237      0.0311
     97  CG        13.9240   17.5640   38.8120 C.3   237  LEU237      0.0022
     98  CD1       14.7730   16.8050   37.7820 C.3   237  LEU237      0.0001
     99  CD2       14.2040   17.0300   40.2360 C.3   237  LEU237      0.0001
    100  N         14.4710   21.7550   40.5980 N.am  238  VAL238     -0.1963
    101  CA        15.2100   23.0110   40.6910 C.3   238  VAL238      0.1727
    102  C         16.7010   22.6840   40.7060 C.2   238  VAL238      0.2616
    103  O         17.1960   22.1120   41.6840 O.2   238  VAL238     -0.2715
    104  CB        14.8230   23.8160   41.9370 C.3   238  VAL238      0.0290
    105  CG1       15.7080   25.0320   42.0390 C.3   238  VAL238      0.0023
    106  CG2       13.3480   24.1850   41.9080 C.3   238  VAL238      0.0023
    107  N         17.4320   23.0790   39.6590 N.am  239  THR239     -0.1951
    108  CA        18.8460   22.7130   39.5210 C.3   239  THR239      0.1897
    109  C         19.6810   23.8690   38.9970 C.2   239  THR239      0.2313
    110  O         19.1880   24.6810   38.2050 O.2   239  THR239     -0.2863
    111  CB        19.0560   21.5620   38.5350 C.3   239  THR239      0.1794
    112  OG1       18.6920   22.0370   37.2380 O.3   239  THR239     -0.2208
    113  CG2       18.2350   20.3450   38.9220 C.3   239  THR239      0.0378
    114  N         11.6410   23.6010   47.6880 N.3   256  CYS256     -0.1235
    115  CA        12.2650   23.0240   48.8880 C.3   256  CYS256      0.1677
    116  C         13.3240   23.9530   49.4810 C.2   256  CYS256      0.2270
    117  O         14.3080   24.2740   48.7990 O.2   256  CYS256     -0.2867
    118  CB        12.9050   21.6680   48.5720 C.3   256  CYS256      0.0956
    119  SG        14.0640   21.0470   49.8280 S.3   256  CYS256     -0.0801
    120  N         15.7310   23.4310   51.5560 N.3   258  ARG258     -0.1231
    121  CA        17.0820   22.8900   51.6530 C.3   258  ARG258      0.1694
    122  C         17.8520   23.0270   50.3460 C.2   258  ARG258      0.2591
    123  O         19.0840   23.0550   50.3680 O.2   258  ARG258     -0.2718
    124  CB        17.0410   21.4230   52.0950 C.3   258  ARG258      0.0321
    125  CG        16.7750   21.2920   53.5910 C.3   258  ARG258      0.0489
    126  CD        17.0800   19.9150   54.1180 C.3   258  ARG258      0.2205
    127  NE        18.5020   19.6060   54.0600 N.pl3 258  ARG258     -0.0865
    128  CZ        19.0420   18.5340   54.6270 C.cat 258  ARG258      0.5346
    129  NH1       18.2760   17.6830   55.2990 N.pl3 258  ARG258      0.1354
    130  NH2       20.3460   18.3180   54.5320 N.pl3 258  ARG258      0.1354
    131  N         17.1620   23.0900   49.2060 N.am  259  ILE259     -0.1980
    132  CA        17.8340   23.4880   47.9680 C.3   259  ILE259      0.1595
    133  C         18.6330   24.7600   48.2090 C.2   259  ILE259      0.2287
    134  O         19.8200   24.8560   47.8690 O.2   259  ILE259     -0.2864
    135  CB        16.8150   23.7080   46.8400 C.3   259  ILE259      0.0276
    136  CG1       15.9930   22.4640   46.5540 C.3   259  ILE259      0.0022
    137  CG2       17.5340   24.1690   45.5770 C.3   259  ILE259      0.0022
    138  CD1       14.7830   22.7920   45.6490 C.3   259  ILE259      0.0001
    139  N         21.5880   23.6940   50.9040 N.3   262  ASP262     -0.1225
    140  CA        22.5030   22.5920   50.5930 C.3   262  ASP262      0.1805
    141  C         23.2830   22.8650   49.3090 C.2   262  ASP262      0.2597
    142  O         24.5200   22.8080   49.2860 O.2   262  ASP262     -0.2718
    143  CB        21.7340   21.2640   50.4700 C.3   262  ASP262      0.1424
    144  CG        21.2440   20.7300   51.8160 C.2   262  ASP262      0.3668
    145  OD1       21.7570   21.1890   52.8660 O.co2 262  ASP262     -0.2456
    146  OD2       20.3540   19.8450   51.8200 O.co2 262  ASP262     -0.2456
    147  N         22.5630   23.1530   48.2230 N.am  263  ASP263     -0.1974
    148  CA        23.1390   23.3110   46.8980 C.3   263  ASP263      0.1709
    149  C         23.5890   24.7410   46.6320 C.2   263  ASP263      0.2293
    150  O         23.6670   25.1510   45.4710 O.2   263  ASP263     -0.2864
    151  CB        22.1310   22.8430   45.8390 C.3   263  ASP263      0.1436
    152  CG        21.7040   21.3510   46.0190 C.2   263  ASP263      0.3671
    153  OD1       22.5760   20.4860   46.2550 O.co2 263  ASP263     -0.2456
    154  OD2       20.4990   21.0400   45.9290 O.co2 263  ASP263     -0.2456
@<TRIPOS>BOND
     1   112   111    1
     2    88    89    1
     3    88    85    1
     4    91    89   ar
     5    84    85    1
     6    98    97    1
     7   110   109    2
     8    89    90   ar
     9    85    86    1
    10   111   113    1
    11   111   108    1
    12    95    94    2
    13    96    97    1
    14    96    93    1
    15    92    86   am
    16    92    93    1
    17    97    99    1
    18   109   108    1
    19    86    87    2
    20    93    94    1
    21    94   100   am
    22   108   107    1
    23   107   102   am
    24   100   101    1
    25   101   102    1
    26   101   104    1
    27   102   103    2
    28    74    73    1
    29   106   104    1
    30   104   105    1
    31    62    61    1
    32    62    63    2
    33    61    60    1
    34    61    64    1
    35    66    67    1
    36    65    64    1
    37    73    72    1
    38    71    72    1
    39    71    70    1
    40    67    70    1
    41    67    68    1
    42    10    11   ar
    43    10     8   ar
    44    11     9   ar
    45    68    69    2
    46     8     6   ar
    47     9     7   ar
    48   150   149    2
    49   137   135    1
    50   138   136    1
    51   151   152    1
    52   151   148    1
    53   154   152   ar
    54     7     6   ar
    55   152   153   ar
    56     6     5    1
    57    82    81    2
    58    78    77    2
    59     1     2    1
    60   136   135    1
    61    77    76    1
    62   149   148    1
    63    79    76    1
    64    79    80    1
    65    81    83   am
    66    81    80    1
    67   135   132    1
    68   148   147    1
    69     5     2    1
    70    76    75    1
    71    19    18    2
    72     2     3    1
    73   114   115    1
    74   134   133    2
    75   132   133    1
    76   132   131    1
    77    18    17    1
    78   147   141   am
    79   118   115    1
    80   118   119    1
    81    15    14    2
    82   117   116    2
    83   115   116    1
    84     3    12   am
    85     3     4    2
    86    12    13    1
    87   131   122   am
    88   142   141    2
    89   141   140    1
    90    21    20    1
    91    17    20    1
    92    17    16    1
    93    14    13    1
    94    30    28   ar
    95    30    31   ar
    96   122   123    2
    97   122   121    1
    98   143   140    1
    99   143   144    1
   100   140   139    1
   101    28    27   ar
   102    31    29   ar
   103   120   121    1
   104   121   124    1
   105   144   146   ar
   106   144   145   ar
   107   124   125    1
   108    27    29   ar
   109    27    26    1
   110    26    23    1
   111    22    23    1
   112   125   126    1
   113   127   126    1
   114   127   128    2
   115    23    24    1
   116    25    24    2
   117   130   128    1
   118   128   129    1
   119    48    49    1
   120    48    45    1
   121    45    44    1
   122    45    46    1
   123    44    42   am
   124    42    43    2
   125    42    41    1
   126    41    40    1
   127    47    46    2
   128    39    37    1
   129    40    34   am
   130    38    37    1
   131    36    37    1
   132    36    33    1
   133    34    33    1
   134    34    35    2
   135    58    59   ar
   136    58    56   ar
   137    59    57   ar
   138    33    32    1
   139    56    55   ar
   140    57    55   ar
   141    55    54    1
   142    50    51    1
   143    51    54    1
   144    51    52    1
   145    52    53    2
