@<TRIPOS>MOLECULE
tmp/6bxoA00.pdb
 173 163 0 0 0
SMALL
GASTEIGER

@<TRIPOS>ATOM
      1  N         12.3780   13.6380   46.6010 N.3    57  PHE57      -0.1227
      2  CA        13.1900   14.1470   47.6990 C.3    57  PHE57       0.1736
      3  C         12.5150   14.0670   49.0540 C.2    57  PHE57       0.2596
      4  O         13.2010   14.2320   50.0820 O.2    57  PHE57      -0.2718
      5  CB        13.6130   15.5890   47.3870 C.3    57  PHE57       0.0547
      6  CG        14.3470   15.6860   46.0950 C.ar   57  PHE57      -0.0202
      7  CD1       15.6110   15.1480   45.9930 C.ar   57  PHE57      -0.0042
      8  CD2       13.7520   16.2230   44.9650 C.ar   57  PHE57      -0.0042
      9  CE1       16.3040   15.1910   44.8080 C.ar   57  PHE57      -0.0003
     10  CE2       14.4430   16.2790   43.7790 C.ar   57  PHE57      -0.0003
     11  CZ        15.7190   15.7530   43.7030 C.ar   57  PHE57      -0.0000
     12  N         11.2240   13.7640   49.1010 N.am   58  GLY58      -0.1957
     13  CA        10.5410   13.7430   50.3780 C.3    58  GLY58       0.1869
     14  C          9.0530   13.5320   50.2100 C.2    58  GLY58       0.2309
     15  O          8.5400   13.3710   49.1020 O.2    58  GLY58      -0.2863
     16  N          7.1950   15.8540   50.5540 N.3    60  CYS60      -0.1235
     17  CA         6.8950   17.0700   49.8130 C.3    60  CYS60       0.1677
     18  C          6.8850   16.8540   48.3190 C.2    60  CYS60       0.2270
     19  O          6.6370   17.8130   47.5760 O.2    60  CYS60      -0.2867
     20  CB         7.9480   18.1300   50.1360 C.3    60  CYS60       0.0956
     21  SG         9.5510   17.5370   49.5780 S.3    60  CYS60      -0.0801
     22  N          9.6280    8.1130   53.7150 N.3    78  HIS78      -0.1241
     23  CA         9.2490    9.3980   54.2810 C.3    78  HIS78       0.1621
     24  C          8.0120    9.2320   55.1450 C.2    78  HIS78       0.2264
     25  O          7.2160    8.3130   54.9470 O.2    78  HIS78      -0.2867
     26  CB         9.0090   10.4350   53.1520 C.3    78  HIS78       0.0745
     27  CG        10.1730   10.5580   52.2250 C.ar   78  HIS78       0.0817
     28  ND1       10.0550   10.4480   50.8560 N.ar   78  HIS78      -0.2268
     29  CD2       11.4960   10.7120   52.4780 C.ar   78  HIS78       0.1154
     30  CE1       11.2500   10.5720   50.3010 C.ar   78  HIS78       0.1986
     31  NE2       12.1420   10.7390   51.2640 N.ar   78  HIS78      -0.2212
     32  N         15.8040   12.9090   62.3490 N.3   119  THR119     -0.1218
     33  CA        15.0100   12.7900   61.1380 C.3   119  THR119      0.1862
     34  C         14.1310   11.5480   61.2450 C.2   119  THR119      0.2287
     35  O         14.2240   10.7750   62.1980 O.2   119  THR119     -0.2866
     36  CB        15.9040   12.7390   59.8930 C.3   119  THR119      0.1770
     37  OG1       16.8380   11.6580   60.0050 O.3   119  THR119     -0.2211
     38  CG2       16.6630   14.0620   59.7200 C.3   119  THR119      0.0375
     39  N         12.6260   16.6980   62.7010 N.3   155  VAL155     -0.1231
     40  CA        12.8570   17.9250   61.9460 C.3   155  VAL155      0.1692
     41  C         13.0720   17.5800   60.4800 C.2   155  VAL155      0.2592
     42  O         13.5000   16.4730   60.1320 O.2   155  VAL155     -0.2718
     43  CB        14.0500   18.7450   62.4870 C.3   155  VAL155      0.0266
     44  CG1       13.7530   19.2280   63.8990 C.3   155  VAL155      0.0020
     45  CG2       15.3460   17.9280   62.4280 C.3   155  VAL155      0.0020
     46  N         12.7780   18.5560   59.6210 N.am  156  LEU156     -0.1966
     47  CA        13.0630   18.5440   58.1900 C.3   156  LEU156      0.1728
     48  C         13.9630   19.7210   57.8450 C.2   156  LEU156      0.2617
     49  O         14.1690   20.6270   58.6510 O.2   156  LEU156     -0.2715
     50  CB        11.7740   18.6300   57.3700 C.3   156  LEU156      0.0311
     51  CG        10.7870   17.4720   57.5460 C.3   156  LEU156      0.0022
     52  CD1        9.4270   17.8840   57.0040 C.3   156  LEU156      0.0001
     53  CD2       11.3190   16.2520   56.8130 C.3   156  LEU156      0.0001
     54  N         14.4950   19.7310   56.6220 N.am  157  GLY157     -0.1940
     55  CA        15.2850   20.8940   56.2270 C.3   157  GLY157      0.2014
     56  C         14.4710   22.1660   56.1320 C.2   157  GLY157      0.2639
     57  O         15.0440   23.2600   56.0280 O.2   157  GLY157     -0.2714
     58  N         13.1460   22.0340   56.2010 N.am  158  CYS158     -0.1967
     59  CA        12.2020   23.1180   56.0570 C.3   158  CYS158      0.1712
     60  C         11.2740   23.2340   57.2540 C.2   158  CYS158      0.2296
     61  O         10.2820   23.9530   57.1700 O.2   158  CYS158     -0.2864
     62  CB        11.3660   22.9210   54.7890 C.3   158  CYS158      0.0983
     63  SG        10.4220   21.3690   54.8410 S.3   158  CYS158     -0.0798
     64  N         20.9500   19.8040   59.0340 N.3   179  HIS179     -0.1241
     65  CA        19.8780   19.7510   60.0310 C.3   179  HIS179      0.1621
     66  C         20.2940   20.3670   61.3590 C.2   179  HIS179      0.2264
     67  O         19.5540   21.2240   61.8750 O.2   179  HIS179     -0.2867
     68  CB        19.3910   18.3120   60.2330 C.3   179  HIS179      0.0745
     69  CG        18.4720   17.8250   59.1650 C.ar  179  HIS179      0.0817
     70  ND1       18.8130   16.8190   58.2820 N.ar  179  HIS179     -0.2268
     71  CD2       17.2130   18.2020   58.8410 C.ar  179  HIS179      0.1154
     72  CE1       17.8010   16.6020   57.4580 C.ar  179  HIS179      0.1986
     73  NE2       16.8170   17.4230   57.7810 N.ar  179  HIS179     -0.2212
     74  N          8.3340   25.9460   42.5830 N.3   231  SER231     -0.1217
     75  CA         8.2860   24.5330   42.1850 C.3   231  SER231      0.1889
     76  C          6.8600   24.0090   42.1800 C.2   231  SER231      0.2288
     77  O          6.0860   24.2950   43.0920 O.2   231  SER231     -0.2866
     78  CB         9.1100   23.6470   43.1110 C.3   231  SER231      0.2089
     79  OG         8.9930   22.2940   42.6770 O.3   231  SER231     -0.2183
     80  N          6.1550   20.9110   42.6850 N.3   233  LYS233     -0.1245
     81  CA         6.1000   19.6890   43.4720 C.3   233  LYS233      0.1561
     82  C          5.0130   19.8060   44.5280 C.2   233  LYS233      0.2260
     83  O          4.6710   20.9110   44.9740 O.2   233  LYS233     -0.2867
     84  CB         7.4690   19.4060   44.1070 C.3   233  LYS233      0.0271
     85  CG         8.5090   18.9300   43.0730 C.3   233  LYS233      0.0035
     86  CD         9.8360   18.6290   43.7390 C.3   233  LYS233      0.0206
     87  CE        10.8260   18.0200   42.7280 C.3   233  LYS233      0.1093
     88  NZ        10.2430   16.8490   42.0210 N.3   233  LYS233     -0.1314
     89  N          5.9460   21.7050   47.7450 N.3   236  GLN236     -0.1245
     90  CA         6.8920   22.8240   47.6760 C.3   236  GLN236      0.1566
     91  C          6.3430   24.0470   46.9680 C.2   236  GLN236      0.2260
     92  O          7.1090   24.9660   46.7100 O.2   236  GLN236     -0.2867
     93  CB         8.1760   22.4190   46.9510 C.3   236  GLN236      0.0367
     94  CG         8.9030   21.2420   47.5840 C.3   236  GLN236      0.0905
     95  CD        10.2060   20.9000   46.8700 C.2   236  GLN236      0.2608
     96  OE1       10.7420   21.6970   46.0890 O.2   236  GLN236     -0.2717
     97  NE2       10.7410   19.7150   47.1720 N.am  236  GLN236     -0.0878
     98  N          9.5730   22.1810   37.8560 N.3   262  ASP262     -0.1225
     99  CA         9.4690   20.9910   38.7050 C.3   262  ASP262      0.1805
    100  C         10.7720   20.8420   39.4790 C.2   262  ASP262      0.2598
    101  O         10.8420   21.2030   40.6620 O.2   262  ASP262     -0.2718
    102  CB         9.1370   19.7590   37.8370 C.3   262  ASP262      0.1424
    103  CG         9.1480   18.4440   38.6160 C.2   262  ASP262      0.3668
    104  OD1        8.9050   18.4330   39.8290 O.co2 262  ASP262     -0.2456
    105  OD2        9.4190   17.3950   37.9970 O.co2 262  ASP262     -0.2456
    106  N         11.8180   20.3320   38.8280 N.am  263  LEU263     -0.1966
    107  CA        13.1350   20.2900   39.4330 C.3   263  LEU263      0.1728
    108  C         13.8310   21.6360   39.3140 C.2   263  LEU263      0.2616
    109  O         13.8210   22.2660   38.2510 O.2   263  LEU263     -0.2715
    110  CB        14.0020   19.2310   38.7580 C.3   263  LEU263      0.0311
    111  CG        13.5500   17.7970   38.9980 C.3   263  LEU263      0.0022
    112  CD1       14.2270   16.8910   37.9860 C.3   263  LEU263      0.0001
    113  CD2       13.9030   17.3950   40.4350 C.3   263  LEU263      0.0001
    114  N         14.5100   22.0360   40.3840 N.am  264  VAL264     -0.1963
    115  CA        15.2470   23.2930   40.4120 C.3   264  VAL264      0.1727
    116  C         16.7130   22.9300   40.2670 C.2   264  VAL264      0.2616
    117  O         17.2950   22.3380   41.1790 O.2   264  VAL264     -0.2715
    118  CB        15.0050   24.0530   41.7170 C.3   264  VAL264      0.0290
    119  CG1       15.8640   25.3230   41.7640 C.3   264  VAL264      0.0023
    120  CG2       13.5220   24.3570   41.8730 C.3   264  VAL264      0.0023
    121  N         17.3270   23.2790   39.1420 N.am  265  THR265     -0.1951
    122  CA        18.7250   22.9020   39.0000 C.3   265  THR265      0.1897
    123  C         19.5380   24.0640   38.4600 C.2   265  THR265      0.2313
    124  O         18.9960   24.9420   37.7890 O.2   265  THR265     -0.2863
    125  CB        18.8910   21.7140   38.0520 C.3   265  THR265      0.1794
    126  OG1       18.4670   22.0800   36.7370 O.3   265  THR265     -0.2208
    127  CG2       18.0850   20.5110   38.5510 C.3   265  THR265      0.0378
    128  N         10.9750   27.3010   46.4320 N.3   281  ALA281     -0.1231
    129  CA        10.8770   25.8510   46.4580 C.3   281  ALA281      0.1694
    130  C         11.6320   25.3370   47.6860 C.2   281  ALA281      0.2592
    131  O         11.8390   26.0800   48.6470 O.2   281  ALA281     -0.2718
    132  CB        11.4320   25.2480   45.1460 C.3   281  ALA281      0.0304
    133  N         12.0550   24.0740   47.6580 N.am  282  CYS282     -0.1970
    134  CA        12.7910   23.4590   48.7640 C.3   282  CYS282      0.1712
    135  C         13.8390   24.4070   49.3450 C.2   282  CYS282      0.2296
    136  O         14.7730   24.7900   48.6430 O.2   282  CYS282     -0.2864
    137  CB        13.4770   22.1880   48.2700 C.3   282  CYS282      0.0983
    138  SG        14.6260   21.4730   49.5110 S.3   282  CYS282     -0.0798
    139  N         16.2530   23.8210   51.3560 N.3   284  ARG284     -0.1231
    140  CA        17.5980   23.2810   51.4640 C.3   284  ARG284      0.1694
    141  C         18.4180   23.5940   50.2150 C.2   284  ARG284      0.2591
    142  O         19.6450   23.7450   50.3130 O.2   284  ARG284     -0.2718
    143  CB        17.5190   21.7640   51.7260 C.3   284  ARG284      0.0321
    144  CG        18.8400   21.0020   51.6220 C.3   284  ARG284      0.0489
    145  CD        19.7880   21.2700   52.7680 C.3   284  ARG284      0.2205
    146  NE        19.2260   20.9420   54.0780 N.pl3 284  ARG284     -0.0865
    147  CZ        19.2460   19.7290   54.6410 C.cat 284  ARG284      0.5346
    148  NH1       19.7810   18.6860   54.0110 N.pl3 284  ARG284      0.1354
    149  NH2       18.7200   19.5580   55.8500 N.pl3 284  ARG284      0.1354
    150  N         17.7610   23.7260   49.0460 N.am  285  ILE285     -0.1980
    151  CA        18.4850   24.1110   47.8290 C.3   285  ILE285      0.1595
    152  C         19.2430   25.4010   48.0560 C.2   285  ILE285      0.2287
    153  O         20.3970   25.5580   47.6400 O.2   285  ILE285     -0.2864
    154  CB        17.5150   24.2520   46.6480 C.3   285  ILE285      0.0276
    155  CG1       16.9480   22.8850   46.2750 C.3   285  ILE285      0.0022
    156  CG2       18.2290   24.8860   45.4330 C.3   285  ILE285      0.0022
    157  CD1       15.8300   22.9660   45.3230 C.3   285  ILE285      0.0001
    158  N         22.4340   24.6820   50.3720 N.3   288  ASP288     -0.1225
    159  CA        23.3000   23.5610   50.0190 C.3   288  ASP288      0.1805
    160  C         23.6650   23.6030   48.5380 C.2   288  ASP288      0.2597
    161  O         24.7500   24.0690   48.1710 O.2   288  ASP288     -0.2718
    162  CB        22.6150   22.2400   50.3600 C.3   288  ASP288      0.1424
    163  CG        23.4910   21.0280   50.0590 C.2   288  ASP288      0.3668
    164  OD1       24.7030   21.2050   49.8050 O.co2 288  ASP288     -0.2456
    165  OD2       22.9610   19.8970   50.0700 O.co2 288  ASP288     -0.2456
    166  N         22.7430   23.1580   47.6800 N.am  289  ASP289     -0.1974
    167  CA        23.0120   23.0780   46.2470 C.3   289  ASP289      0.1709
    168  C         23.4640   24.4070   45.6690 C.2   289  ASP289      0.2293
    169  O         24.1620   24.4250   44.6450 O.2   289  ASP289     -0.2864
    170  CB        21.7620   22.5960   45.5160 C.3   289  ASP289      0.1436
    171  CG        21.1610   21.3650   46.1570 C.2   289  ASP289      0.3671
    172  OD1       20.7730   21.4400   47.3480 O.co2 289  ASP289     -0.2456
    173  OD2       21.0860   20.3210   45.4740 O.co2 289  ASP289     -0.2456
@<TRIPOS>BOND
     1   126   125    1
     2   124   123    2
     3   102   103    1
     4   102    99    1
     5    98    99    1
     6   112   111    1
     7   105   103   ar
     8   125   127    1
     9   125   122    1
    10   109   108    2
    11   123   122    1
    12   103   104   ar
    13    99   100    1
    14   110   111    1
    15   110   107    1
    16   106   107    1
    17   106   100   am
    18   111   113    1
    19   122   121    1
    20   121   116   am
    21   108   107    1
    22   108   114   am
    23   100   101    2
    24   116   115    1
    25   116   117    2
    26   114   115    1
    27   115   118    1
    28   118   119    1
    29   118   120    1
    30    88    87    1
    31    76    75    1
    32    76    77    2
    33    75    74    1
    34    75    78    1
    35    79    78    1
    36    80    81    1
    37    87    86    1
    38    85    86    1
    39    85    84    1
    40    81    84    1
    41    81    82    1
    42    11    10   ar
    43    11     9   ar
    44    10     8   ar
    45    82    83    2
    46   169   168    2
    47     9     7   ar
    48     8     6   ar
    49   132   129    1
    50   157   155    1
    51   156   154    1
    52   173   171   ar
    53   170   171    1
    54   170   167    1
    55   168   167    1
    56     7     6   ar
    57    96    95    2
    58     6     5    1
    59   171   172   ar
    60   167   166    1
    61   155   154    1
    62   128   129    1
    63   129   130    1
    64     1     2    1
    65   154   151    1
    66    92    91    2
    67    95    97   am
    68    95    94    1
    69    93    94    1
    70    93    90    1
    71    91    90    1
    72     5     2    1
    73    19    18    2
    74   153   152    2
    75   133   130   am
    76   133   134    1
    77    90    89    1
    78   166   160   am
    79   130   131    2
    80     2     3    1
    81   151   152    1
    82   151   150    1
    83   161   160    2
    84   137   134    1
    85   137   138    1
    86    18    17    1
    87   160   159    1
    88   136   135    2
    89   134   135    1
    90   150   141   am
    91     3    12   am
    92     3     4    2
    93    12    13    1
    94    15    14    2
    95    21    20    1
    96   164   163   ar
    97    17    20    1
    98    17    16    1
    99   159   162    1
   100   159   158    1
   101   163   165   ar
   102   163   162    1
   103    14    13    1
   104   141   142    2
   105   141   140    1
   106    30    28   ar
   107    30    31   ar
   108    28    27   ar
   109    31    29   ar
   110   139   140    1
   111   140   143    1
   112   144   143    1
   113   144   145    1
   114    27    29   ar
   115    27    26    1
   116   145   146    1
   117    26    23    1
   118    22    23    1
   119   148   147    1
   120   146   147    2
   121    23    24    1
   122   147   149    1
   123    62    63    1
   124    62    59    1
   125    25    24    2
   126    57    56    2
   127    59    58    1
   128    59    60    1
   129    56    58   am
   130    56    55    1
   131    55    54    1
   132    54    48   am
   133    53    51    1
   134    52    51    1
   135    61    60    2
   136    50    51    1
   137    50    47    1
   138    72    73   ar
   139    72    70   ar
   140    73    71   ar
   141    48    47    1
   142    48    49    2
   143    47    46    1
   144    70    69   ar
   145    71    69   ar
   146    64    65    1
   147    69    68    1
   148    46    41   am
   149    38    36    1
   150    36    37    1
   151    36    33    1
   152    65    68    1
   153    65    66    1
   154    42    41    2
   155    41    40    1
   156    33    34    1
   157    33    32    1
   158    34    35    2
   159    66    67    2
   160    40    43    1
   161    40    39    1
   162    45    43    1
   163    43    44    1
