@<TRIPOS>MOLECULE
tmp/6bxtA00.pdb
 195 191 0 0 0
SMALL
GASTEIGER

@<TRIPOS>ATOM
      1  N         83.0900   -1.1620   71.3270 N.3    24  ASP24      -0.1239
      2  CA        84.1610   -1.3710   70.3590 C.3    24  ASP24       0.1674
      3  C         85.3290   -0.4210   70.6020 C.2    24  ASP24       0.2266
      4  O         86.4850   -0.7720   70.3660 O.2    24  ASP24      -0.2867
      5  CB        83.6270   -1.1970   68.9340 C.3    24  ASP24       0.1410
      6  CG        82.8180    0.0780   68.7610 C.2    24  ASP24       0.3668
      7  OD1       83.2540    1.1410   69.2520 O.co2  24  ASP24      -0.2456
      8  OD2       81.7400    0.0150   68.1350 O.co2  24  ASP24      -0.2456
      9  N         85.7100    2.4350   69.0600 N.3    26  PHE26      -0.1227
     10  CA        85.9550    3.2120   67.8490 C.3    26  PHE26       0.1736
     11  C         85.6930    4.7000   68.0600 C.2    26  PHE26       0.2596
     12  O         84.8090    5.0890   68.8220 O.2    26  PHE26      -0.2718
     13  CB        85.0800    2.7070   66.6980 C.3    26  PHE26       0.0547
     14  CG        85.3730    1.2920   66.2810 C.ar   26  PHE26      -0.0202
     15  CD1       86.6750    0.8280   66.1980 C.ar   26  PHE26      -0.0042
     16  CD2       84.3390    0.4270   65.9670 C.ar   26  PHE26      -0.0042
     17  CE1       86.9380   -0.4740   65.8120 C.ar   26  PHE26      -0.0003
     18  CE2       84.5960   -0.8750   65.5820 C.ar   26  PHE26      -0.0003
     19  CZ        85.8970   -1.3250   65.5040 C.ar   26  PHE26      -0.0000
     20  N         86.4770    5.5220   67.3730 N.am   27  THR27      -0.1953
     21  CA        86.2840    6.9660   67.3780 C.3    27  THR27       0.1897
     22  C         85.0520    7.3120   66.5410 C.2    27  THR27       0.2313
     23  O         84.7940    6.6640   65.5270 O.2    27  THR27      -0.2863
     24  CB        87.5270    7.6960   66.8150 C.3    27  THR27       0.1794
     25  OG1       88.6830    7.3390   67.5840 O.3    27  THR27      -0.2208
     26  CG2       87.3500    9.2120   66.8430 C.3    27  THR27       0.0378
     27  N         82.8630    9.0740   63.7190 N.3    29  LEU29      -0.1245
     28  CA        83.1880    9.6010   62.3990 C.3    29  LEU29       0.1561
     29  C         83.3170   11.1210   62.4400 C.2    29  LEU29       0.2260
     30  O         84.2870   11.6840   61.9340 O.2    29  LEU29      -0.2867
     31  CB        82.1200    9.1890   61.3800 C.3    29  LEU29       0.0270
     32  CG        82.3610    7.9190   60.5580 C.3    29  LEU29       0.0019
     33  CD1       82.9090    6.7760   61.4000 C.3    29  LEU29       0.0001
     34  CD2       81.0630    7.5020   59.8770 C.3    29  LEU29       0.0001
     35  N         86.7700    3.9120   54.7310 N.3    43  ALA43      -0.1231
     36  CA        87.5120    2.7370   54.2990 C.3    43  ALA43       0.1694
     37  C         86.6760    1.9700   53.2820 C.2    43  ALA43       0.2593
     38  O         85.9740    1.0200   53.6300 O.2    43  ALA43      -0.2718
     39  CB        87.8610    1.8610   55.4790 C.3    43  ALA43       0.0304
     40  N         86.7550    2.3970   52.0250 N.am   44  GLY44      -0.1942
     41  CA        85.8970    1.8810   50.9740 C.3    44  GLY44       0.2014
     42  C         86.2300    0.4760   50.5110 C.2    44  GLY44       0.2639
     43  O         87.1670   -0.1530   51.0010 O.2    44  GLY44      -0.2714
     44  N         85.4510   -0.0030   49.5450 N.am   45  THR45      -0.1950
     45  CA        85.6010   -1.3490   49.0070 C.3    45  THR45       0.1897
     46  C         85.8530   -1.3010   47.5040 C.2    45  THR45       0.2313
     47  O         85.8450   -0.2310   46.8930 O.2    45  THR45      -0.2863
     48  CB        84.3520   -2.2060   49.2880 C.3    45  THR45       0.1794
     49  OG1       84.4610   -3.4590   48.6020 O.3    45  THR45      -0.2208
     50  CG2       83.0900   -1.4840   48.8330 C.3    45  THR45       0.0378
     51  N         81.0840    1.3960   46.3980 N.3    49  PHE49      -0.1241
     52  CA        79.7820    1.8010   46.9270 C.3    49  PHE49       0.1605
     53  C         79.8670    2.0860   48.4260 C.2    49  PHE49       0.2264
     54  O         80.7330    1.5500   49.1190 O.2    49  PHE49      -0.2867
     55  CB        78.7270    0.7210   46.6570 C.3    49  PHE49       0.0534
     56  CG        79.0330   -0.6050   47.2970 C.ar   49  PHE49      -0.0203
     57  CD1       78.6920   -0.8530   48.6200 C.ar   49  PHE49      -0.0042
     58  CD2       79.6530   -1.6080   46.5720 C.ar   49  PHE49      -0.0042
     59  CE1       78.9740   -2.0720   49.2060 C.ar   49  PHE49      -0.0003
     60  CE2       79.9360   -2.8290   47.1520 C.ar   49  PHE49      -0.0003
     61  CZ        79.5950   -3.0630   48.4710 C.ar   49  PHE49      -0.0000
     62  N         78.2740    1.5050   51.9270 N.3    51  GLY51      -0.1210
     63  CA        77.3950    0.5750   52.6080 C.3    51  GLY51       0.1956
     64  C         78.1750   -0.5980   53.1660 C.2    51  GLY51       0.2612
     65  O         79.3570   -0.4710   53.4830 O.2    51  GLY51      -0.2717
     66  N         77.5130   -1.7440   53.2860 N.am   52  GLY52      -0.1942
     67  CA        78.1480   -2.9300   53.8280 C.3    52  GLY52       0.2014
     68  C         78.3230   -2.8290   55.3320 C.2    52  GLY52       0.2639
     69  O         77.4340   -2.3440   56.0340 O.2    52  GLY52      -0.2714
     70  N         79.4730   -3.2850   55.8210 N.am   53  VAL53      -0.1963
     71  CA        79.7590   -3.3020   57.2510 C.3    53  VAL53       0.1727
     72  C         81.0410   -2.5270   57.5450 C.2    53  VAL53       0.2617
     73  O         81.4640   -1.6950   56.7420 O.2    53  VAL53      -0.2715
     74  CB        79.8840   -4.7470   57.7740 C.3    53  VAL53       0.0290
     75  CG1       78.5850   -5.5000   57.5360 C.3    53  VAL53       0.0023
     76  CG2       81.0550   -5.4650   57.1070 C.3    53  VAL53       0.0023
     77  N         81.6520   -2.7980   58.6950 N.am   54  GLY54      -0.1940
     78  CA        82.8680   -2.1130   59.0880 C.3    54  GLY54       0.2014
     79  C         82.6420   -0.6190   59.1820 C.2    54  GLY54       0.2639
     80  O         81.5820   -0.1700   59.6190 O.2    54  GLY54      -0.2714
     81  N         83.6350    0.1520   58.7560 N.am   55  MET55      -0.1963
     82  CA        83.5480    1.6040   58.7980 C.3    55  MET55       0.1736
     83  C         82.7160    2.1480   57.6410 C.2    55  MET55       0.2616
     84  O         82.1160    3.2180   57.7470 O.2    55  MET55      -0.2715
     85  CB        84.9470    2.2170   58.7700 C.3    55  MET55       0.0427
     86  CG        84.9400    3.7270   58.7220 C.3    55  MET55       0.0599
     87  SD        86.3730    4.4610   59.5120 S.3    55  MET55      -0.1393
     88  CE        86.0390    6.1920   59.1890 C.3    55  MET55       0.0692
     89  N         82.6880    1.4150   56.5330 N.am   56  ASN56      -0.1972
     90  CA        81.8780    1.8080   55.3860 C.3    56  ASN56       0.1688
     91  C         80.3960    1.7380   55.7400 C.2    56  ASN56       0.2292
     92  O         79.5790    2.4880   55.2040 O.2    56  ASN56      -0.2864
     93  CB        82.1910    0.9160   54.1830 C.3    56  ASN56       0.1181
     94  CG        81.6680    1.4830   52.8730 C.2    56  ASN56       0.2629
     95  OD1       81.3050    2.6550   52.7880 O.2    56  ASN56      -0.2716
     96  ND2       81.6390    0.6510   51.8410 N.am   56  ASN56      -0.0877
     97  N         79.2100    2.4120   58.7640 N.3    58  GLU58      -0.1245
     98  CA        78.9300    3.5540   59.6270 C.3    58  GLU58       0.1567
     99  C         78.5270    4.7790   58.8200 C.2    58  GLU58       0.2260
    100  O         77.5380    5.4410   59.1390 O.2    58  GLU58      -0.2867
    101  CB        80.1470    3.8870   60.4920 C.3    58  GLU58       0.0388
    102  CG        80.2700    3.0390   61.7410 C.3    58  GLU58       0.1160
    103  CD        79.0920    3.2070   62.6810 C.2    58  GLU58       0.3649
    104  OE1       78.8250    4.3500   63.1110 O.co2  58  GLU58      -0.2457
    105  OE2       78.4260    2.1930   62.9780 O.co2  58  GLU58      -0.2457
    106  N         91.4950    0.4360   50.1430 N.3   165  ALA165     -0.1245
    107  CA        92.7980    0.0170   50.6410 C.3   165  ALA165      0.1562
    108  C         93.1980   -1.3350   50.0570 C.2   165  ALA165      0.2260
    109  O         92.3380   -2.1170   49.6520 O.2   165  ALA165     -0.2867
    110  CB        92.7840   -0.0430   52.1600 C.3   165  ALA165      0.0290
    111  N         90.9530    6.1810   59.5250 N.3   210  PRO210     -0.2102
    112  CA        91.0810    4.8950   60.2120 C.3   210  PRO210      0.1504
    113  C         92.3980    4.2430   59.8230 C.2   210  PRO210      0.2575
    114  O         93.0920    4.7770   58.9570 O.2   210  PRO210     -0.2718
    115  CB        89.8880    4.0950   59.6920 C.3   210  PRO210      0.0282
    116  CG        89.6490    4.6480   58.3300 C.3   210  PRO210      0.0208
    117  CD        89.9890    6.1140   58.4110 C.3   210  PRO210      0.0893
    118  N         92.7450    3.1210   60.4400 N.am  211  LEU211     -0.1980
    119  CA        93.9060    2.3630   59.9970 C.3   211  LEU211      0.1596
    120  C         93.4990    1.5420   58.7810 C.2   211  LEU211      0.2287
    121  O         92.9590    0.4440   58.9220 O.2   211  LEU211     -0.2864
    122  CB        94.4390    1.4610   61.1110 C.3   211  LEU211      0.0297
    123  CG        95.7400    0.7170   60.7960 C.3   211  LEU211      0.0022
    124  CD1       96.9060    1.6860   60.6700 C.3   211  LEU211      0.0001
    125  CD2       96.0300   -0.3230   61.8600 C.3   211  LEU211      0.0001
    126  N         92.9280   -0.8600   55.7660 N.3   213  GLY213     -0.1210
    127  CA        93.2890   -2.2370   55.4850 C.3   213  GLY213      0.1956
    128  C         93.5480   -3.0800   56.7180 C.2   213  GLY213      0.2612
    129  O         94.1690   -4.1380   56.6250 O.2   213  GLY213     -0.2717
    130  N         93.0640   -2.6210   57.8690 N.am  214  ALA214     -0.1965
    131  CA        93.3040   -3.3130   59.1340 C.3   214  ALA214      0.1728
    132  C         92.0560   -4.0330   59.6460 C.2   214  ALA214      0.2617
    133  O         92.0880   -4.6540   60.7080 O.2   214  ALA214     -0.2715
    134  CB        93.8050   -2.3320   60.1760 C.3   214  ALA214      0.0334
    135  N         90.9660   -3.9550   58.8860 N.am  215  GLY215     -0.1940
    136  CA        89.7280   -4.6180   59.2550 C.3   215  GLY215      0.2014
    137  C         89.5360   -5.9110   58.4860 C.2   215  GLY215      0.2639
    138  O         90.2380   -6.8930   58.7300 O.2   215  GLY215     -0.2714
    139  N         88.5880   -5.9100   57.5510 N.am  216  HIS216     -0.1959
    140  CA        88.2920   -7.1010   56.7600 C.3   216  HIS216      0.1787
    141  C         89.3060   -7.3230   55.6300 C.2   216  HIS216      0.2620
    142  O         89.3920   -8.4250   55.0870 O.2   216  HIS216     -0.2715
    143  CB        86.8790   -7.0230   56.1680 C.3   216  HIS216      0.0785
    144  CG        85.7940   -6.8920   57.1910 C.ar  216  HIS216      0.0821
    145  ND1       85.3830   -5.6760   57.6990 N.ar  216  HIS216     -0.2267
    146  CD2       85.0260   -7.8300   57.7960 C.ar  216  HIS216      0.1154
    147  CE1       84.4090   -5.8750   58.5720 C.ar  216  HIS216      0.1986
    148  NE2       84.1750   -7.1700   58.6480 N.ar  216  HIS216     -0.2212
    149  N         90.0620   -6.2850   55.2720 N.am  217  PHE217     -0.1974
    150  CA        91.1030   -6.4120   54.2440 C.3   217  PHE217      0.1639
    151  C         92.4340   -6.8840   54.8290 C.2   217  PHE217      0.2290
    152  O         93.4520   -6.8840   54.1350 O.2   217  PHE217     -0.2864
    153  CB        91.3340   -5.0790   53.5120 C.3   217  PHE217      0.0560
    154  CG        90.2510   -4.7070   52.5290 C.ar  217  PHE217     -0.0200
    155  CD1       89.1620   -5.5360   52.3050 C.ar  217  PHE217     -0.0042
    156  CD2       90.3460   -3.5270   51.8060 C.ar  217  PHE217     -0.0042
    157  CE1       88.1820   -5.1850   51.3930 C.ar  217  PHE217     -0.0003
    158  CE2       89.3720   -3.1730   50.8930 C.ar  217  PHE217     -0.0003
    159  CZ        88.2890   -4.0030   50.6850 C.ar  217  PHE217     -0.0000
    160  N         92.0820    7.4710   63.9710 N.3   250  MET250     -0.1230
    161  CA        91.0490    6.8760   64.8030 C.3   250  MET250      0.1702
    162  C         91.6080    5.7180   65.6180 C.2   250  MET250      0.2592
    163  O         92.7010    5.2240   65.3390 O.2   250  MET250     -0.2718
    164  CB        89.8860    6.3950   63.9360 C.3   250  MET250      0.0401
    165  CG        89.2340    7.4920   63.1110 C.3   250  MET250      0.0596
    166  SD        88.0170    6.8360   61.9590 S.3   250  MET250     -0.1393
    167  CE        86.7820    6.1860   63.0830 C.3   250  MET250      0.0692
    168  N         90.8440    5.2840   66.6160 N.am  251  TYR251     -0.1962
    169  CA        91.3020    4.2670   67.5550 C.3   251  TYR251      0.1771
    170  C         90.9660    2.8450   67.1270 C.2   251  TYR251      0.2619
    171  O         89.8630    2.5640   66.6570 O.2   251  TYR251     -0.2715
    172  CB        90.6990    4.5170   68.9370 C.3   251  TYR251      0.0574
    173  CG        90.9280    3.3750   69.9010 C.ar  251  TYR251     -0.0198
    174  CD1       92.0890    3.3030   70.6590 C.ar  251  TYR251     -0.0009
    175  CD2       89.9870    2.3630   70.0450 C.ar  251  TYR251     -0.0009
    176  CE1       92.3040    2.2570   71.5370 C.ar  251  TYR251      0.0417
    177  CE2       90.1930    1.3150   70.9180 C.ar  251  TYR251      0.0417
    178  CZ        91.3510    1.2660   71.6610 C.ar  251  TYR251      0.1957
    179  OH        91.5520    0.2230   72.5350 O.3   251  TYR251     -0.2866
    180  N         91.9340    1.9540   67.3090 N.am  252  GLU252     -0.1964
    181  CA        91.6930    0.5200   67.2560 C.3   252  GLU252      0.1718
    182  C         92.6110   -0.1290   68.2950 C.2   252  GLU252      0.2458
    183  O         93.6880    0.3980   68.5790 O.2   252  GLU252     -0.2730
    184  CB        91.9260   -0.0360   65.8460 C.3   252  GLU252      0.0428
    185  CG        93.2580    0.3420   65.2150 C.3   252  GLU252      0.1163
    186  CD        94.4200   -0.4770   65.7420 C.2   252  GLU252      0.3649
    187  OE1       94.1930   -1.6190   66.1940 O.co2 252  GLU252     -0.2457
    188  OE2       95.5630    0.0260   65.7010 O.co2 252  GLU252     -0.2457
    189  N         92.1850   -1.2700   68.8680 N.am  253  PRO253     -0.2727
    190  CA        92.7790   -1.8330   70.0920 C.3   253  PRO253      0.1402
    191  C         94.3040   -1.9770   70.0880 C.2   253  PRO253      0.2269
    192  O         94.9280   -1.7480   71.1240 O.2   253  PRO253     -0.2865
    193  CB        92.1240   -3.2160   70.1890 C.3   253  PRO253      0.0296
    194  CG        90.8600   -3.0920   69.4400 C.3   253  PRO253      0.0237
    195  CD        91.1430   -2.1540   68.3170 C.3   253  PRO253      0.0939
@<TRIPOS>BOND
     1    51    52    1
     2    58    60   ar
     3    58    56   ar
     4    55    52    1
     5    55    56    1
     6    47    46    2
     7    52    53    1
     8    60    61   ar
     9    56    57   ar
    10    46    45    1
    11    53    54    2
    12    61    59   ar
    13    49    48    1
    14    57    59   ar
    15    50    48    1
    16    45    48    1
    17    45    44    1
    18    44    42   am
    19   109   108    2
    20   108   107    1
    21   106   107    1
    22    42    41    1
    23    42    43    2
    24   107   110    1
    25   159   158   ar
    26   159   157   ar
    27   158   156   ar
    28    41    40    1
    29   157   155   ar
    30   156   154   ar
    31    96    94   am
    32    62    63    1
    33    40    37   am
    34   155   154   ar
    35   154   153    1
    36    63    64    1
    37    95    94    2
    38    94    93    1
    39    64    66   am
    40    64    65    2
    41    37    38    2
    42    37    36    1
    43    66    67    1
    44   153   150    1
    45    67    68    1
    46   152   151    2
    47    93    90    1
    48   150   151    1
    49   150   149    1
    50    36    35    1
    51    36    39    1
    52   142   141    2
    53    92    91    2
    54   149   141   am
    55    68    70   am
    56    68    69    2
    57    90    91    1
    58    90    89    1
    59   127   126    1
    60   127   128    1
    61   141   140    1
    62    70    71    1
    63   143   140    1
    64   143   144    1
    65    89    83   am
    66   129   128    2
    67   128   130   am
    68    73    72    2
    69   140   139    1
    70    76    74    1
    71   144   145   ar
    72   144   146   ar
    73    71    72    1
    74    71    74    1
    75    75    74    1
    76    72    77   am
    77   139   137   am
    78    83    84    2
    79    83    82    1
    80   145   147   ar
    81   146   148   ar
    82   130   131    1
    83   116   117    1
    84   116   115    1
    85   117   111    1
    86   137   138    2
    87   137   136    1
    88   147   148   ar
    89    77    78    1
    90    86    85    1
    91    86    87    1
    92    81    82    1
    93    81    79   am
    94    97    98    1
    95    85    82    1
    96   120   121    2
    97   120   119    1
    98    99   100    2
    99    99    98    1
   100   135   136    1
   101   135   132   am
   102   114   113    2
   103    78    79    1
   104   131   132    1
   105   131   134    1
   106    79    80    2
   107    88    87    1
   108   111   112    1
   109    98   101    1
   110   132   133    2
   111   115   112    1
   112   113   112    1
   113   113   118   am
   114    34    32    1
   115   119   118    1
   116   119   122    1
   117   101   102    1
   118    32    31    1
   119    32    33    1
   120   124   123    1
   121   123   122    1
   122   123   125    1
   123    31    28    1
   124   102   103    1
   125    30    29    2
   126   166   167    1
   127   166   165    1
   128    28    29    1
   129    28    27    1
   130   103   105   ar
   131   103   104   ar
   132   165   164    1
   133   164   161    1
   134   160   161    1
   135   161   162    1
   136   185   186    1
   137   185   184    1
   138   163   162    2
   139    19    18   ar
   140    19    17   ar
   141    23    22    2
   142    18    16   ar
   143   162   168   am
   144   188   186   ar
   145   186   187   ar
   146    17    15   ar
   147   184   181    1
   148    16    14   ar
   149    15    14   ar
   150    14    13    1
   151    22    21    1
   152   168   169    1
   153   171   170    2
   154    13    10    1
   155    24    26    1
   156    24    21    1
   157    24    25    1
   158   170   180   am
   159   170   169    1
   160   181   180    1
   161   181   182    1
   162    20    21    1
   163    20    11   am
   164   169   172    1
   165    10    11    1
   166    10     9    1
   167    11    12    2
   168     8     6   ar
   169   182   183    2
   170   182   189   am
   171   195   189    1
   172   195   194    1
   173     6     5    1
   174     6     7   ar
   175   189   190    1
   176     5     2    1
   177   172   173    1
   178   194   193    1
   179   173   175   ar
   180   173   174   ar
   181   175   177   ar
   182   191   190    1
   183   191   192    2
   184   190   193    1
   185     2     3    1
   186     2     1    1
   187     4     3    2
   188   174   176   ar
   189   177   178   ar
   190   176   178   ar
   191   178   179    1
