@<TRIPOS>MOLECULE
tmp/6bxwA00.pdb
 186 181 0 0 0
SMALL
GASTEIGER

@<TRIPOS>ATOM
      1  N         -8.6660    1.0900  -10.4360 N.3    26  PHE26      -0.1227
      2  CA        -7.2070    1.0680  -10.3260 C.3    26  PHE26       0.1736
      3  C         -6.7270    1.5610   -8.9620 C.2    26  PHE26       0.2596
      4  O         -7.2620    2.5200   -8.4110 O.2    26  PHE26      -0.2718
      5  CB        -6.5660    1.9320  -11.4140 C.3    26  PHE26       0.0547
      6  CG        -6.8680    1.4800  -12.8110 C.ar   26  PHE26      -0.0202
      7  CD1       -6.3060    0.3200  -13.3180 C.ar   26  PHE26      -0.0042
      8  CD2       -7.6950    2.2320  -13.6280 C.ar   26  PHE26      -0.0042
      9  CE1       -6.5790   -0.0900  -14.6100 C.ar   26  PHE26      -0.0003
     10  CE2       -7.9700    1.8290  -14.9200 C.ar   26  PHE26      -0.0003
     11  CZ        -7.4120    0.6680  -15.4120 C.ar   26  PHE26      -0.0000
     12  N         -5.6980    0.9100   -8.4300 N.am   27  THR27      -0.1953
     13  CA        -5.1100    1.3250   -7.1640 C.3    27  THR27       0.1897
     14  C         -4.2880    2.6080   -7.3550 C.2    27  THR27       0.2313
     15  O         -3.5130    2.7060   -8.3050 O.2    27  THR27      -0.2863
     16  CB        -4.2100    0.2190   -6.5780 C.3    27  THR27       0.1794
     17  OG1       -4.9630   -0.9960   -6.4570 O.3    27  THR27      -0.2208
     18  CG2       -3.6750    0.6220   -5.2100 C.3    27  THR27       0.0378
     19  N         -1.2610    5.2590   -6.9770 N.3    29  LEU29      -0.1245
     20  CA         0.1750    5.0410   -6.8110 C.3    29  LEU29       0.1561
     21  C          0.6170    5.3670   -5.3920 C.2    29  LEU29       0.2260
     22  O          1.4620    4.6780   -4.8280 O.2    29  LEU29      -0.2867
     23  CB         0.9760    5.8890   -7.8010 C.3    29  LEU29       0.0270
     24  CG         0.7100    5.6930   -9.2920 C.3    29  LEU29       0.0019
     25  CD1        1.7830    6.3920  -10.1120 C.3    29  LEU29       0.0001
     26  CD2        0.6170    4.2240   -9.6670 C.3    29  LEU29       0.0001
     27  N          6.1150    0.0490  -14.0140 N.3    43  ALA43      -0.1231
     28  CA         6.3350   -0.8880  -15.1050 C.3    43  ALA43       0.1694
     29  C          6.8840   -0.1040  -16.2890 C.2    43  ALA43       0.2593
     30  O          6.1350    0.4240  -17.1160 O.2    43  ALA43      -0.2718
     31  CB         5.0500   -1.6020  -15.4680 C.3    43  ALA43       0.0304
     32  N          8.2050   -0.0210  -16.3500 N.am   44  GLY44      -0.1942
     33  CA         8.8780    0.8790  -17.2640 C.3    44  GLY44       0.2014
     34  C          8.9420    0.4070  -18.7010 C.2    44  GLY44       0.2638
     35  O          8.6660   -0.7510  -19.0170 O.2    44  GLY44      -0.2714
     36  N          9.3150    1.3380  -19.5710 N.am   45  ALA45      -0.1977
     37  CA         9.5530    1.0570  -20.9770 C.3    45  ALA45       0.1597
     38  C         11.0090    0.6680  -21.1860 C.2    45  ALA45       0.2287
     39  O         11.8790    1.0700  -20.4190 O.2    45  ALA45      -0.2864
     40  CB         9.2090    2.2650  -21.8190 C.3    45  ALA45       0.0319
     41  N         12.0990    5.8910  -20.3330 N.3    49  PHE49      -0.1241
     42  CA        11.4620    7.1810  -20.0800 C.3    49  PHE49       0.1605
     43  C         10.2710    7.0140  -19.1380 C.2    49  PHE49       0.2264
     44  O          9.6800    5.9310  -19.0560 O.2    49  PHE49      -0.2867
     45  CB        11.0080    7.8250  -21.3960 C.3    49  PHE49       0.0534
     46  CG        10.0660    6.9720  -22.1930 C.ar   49  PHE49      -0.0203
     47  CD1        8.7100    6.9850  -21.9260 C.ar   49  PHE49      -0.0042
     48  CD2       10.5370    6.1580  -23.2090 C.ar   49  PHE49      -0.0042
     49  CE1        7.8380    6.1980  -22.6550 C.ar   49  PHE49      -0.0003
     50  CE2        9.6690    5.3700  -23.9400 C.ar   49  PHE49      -0.0003
     51  CZ         8.3220    5.3900  -23.6630 C.ar   49  PHE49      -0.0000
     52  N          6.6140    8.2250  -18.9260 N.3    51  GLY51      -0.1210
     53  CA         5.6390    8.7600  -19.8610 C.3    51  GLY51       0.1956
     54  C          4.8630    7.6260  -20.5010 C.2    51  GLY51       0.2612
     55  O          4.7730    6.5410  -19.9340 O.2    51  GLY51      -0.2717
     56  N          4.2990    7.8740  -21.6760 N.am   52  GLY52      -0.1942
     57  CA         3.5450    6.8550  -22.3850 C.3    52  GLY52       0.2014
     58  C          2.1920    6.5720  -21.7580 C.2    52  GLY52       0.2639
     59  O          1.5900    7.4420  -21.1260 O.2    52  GLY52      -0.2714
     60  N          1.7100    5.3470  -21.9460 N.am   53  GLY53      -0.1939
     61  CA         0.4220    4.9350  -21.4180 C.3    53  GLY53       0.2014
     62  C          0.5680    4.0230  -20.2180 C.2    53  GLY53       0.2639
     63  O          1.6560    3.8920  -19.6540 O.2    53  GLY53      -0.2714
     64  N         -0.5360    3.3990  -19.8220 N.am   54  GLY54      -0.1939
     65  CA        -0.5280    2.4500  -18.7260 C.3    54  GLY54       0.2014
     66  C         -0.0160    3.0410  -17.4280 C.2    54  GLY54       0.2639
     67  O         -0.1780    4.2360  -17.1590 O.2    54  GLY54      -0.2714
     68  N          0.6140    2.1910  -16.6260 N.am   55  LEU55      -0.1963
     69  CA         1.1080    2.5810  -15.3120 C.3    55  LEU55       0.1728
     70  C          2.1720    3.6760  -15.4130 C.2    55  LEU55       0.2616
     71  O          2.1810    4.6140  -14.6180 O.2    55  LEU55      -0.2715
     72  CB         1.6680    1.3590  -14.5790 C.3    55  LEU55       0.0311
     73  CG         2.2330    1.5830  -13.1760 C.3    55  LEU55       0.0022
     74  CD1        1.2090    2.2200  -12.2550 C.3    55  LEU55       0.0001
     75  CD2        2.7030    0.2710  -12.5850 C.3    55  LEU55       0.0001
     76  N          3.0590    3.5530  -16.3950 N.am   56  ASN56      -0.1972
     77  CA         4.1170    4.5370  -16.6140 C.3    56  ASN56       0.1688
     78  C          3.5260    5.9240  -16.8650 C.2    56  ASN56       0.2292
     79  O          4.0420    6.9280  -16.3770 O.2    56  ASN56      -0.2864
     80  CB         4.9960    4.0810  -17.7850 C.3    56  ASN56       0.1181
     81  CG         6.3480    4.7850  -17.8430 C.2    56  ASN56       0.2629
     82  OD1        6.8030    5.4060  -16.8810 O.2    56  ASN56      -0.2716
     83  ND2        7.0020    4.6700  -18.9880 N.am   56  ASN56      -0.0877
     84  N          0.7310    6.9590  -15.6390 N.3    58  GLN58      -0.1245
     85  CA         0.2060    7.4280  -14.3620 C.3    58  GLN58       0.1566
     86  C          1.3030    8.0070  -13.4890 C.2    58  GLN58       0.2260
     87  O          1.0640    8.9610  -12.7510 O.2    58  GLN58      -0.2867
     88  CB        -0.5000    6.3020  -13.6100 C.3    58  GLN58       0.0367
     89  CG        -1.8090    5.8910  -14.2240 C.3    58  GLN58       0.0905
     90  CD        -2.7840    7.0470  -14.3430 C.2    58  GLN58       0.2608
     91  OE1       -3.1020    7.7110  -13.3550 O.2    58  GLN58      -0.2717
     92  NE2       -3.2490    7.3040  -15.5590 N.am   58  GLN58      -0.0878
     93  N         10.4440   -5.1180  -17.5330 N.3   159  ALA159     -0.1245
     94  CA        10.0550   -6.5280  -17.5380 C.3   159  ALA159      0.1562
     95  C         10.3230   -7.1900  -18.8920 C.2   159  ALA159      0.2260
     96  O         10.4330   -6.5090  -19.9100 O.2   159  ALA159     -0.2867
     97  CB         8.5780   -6.6580  -17.1750 C.3   159  ALA159      0.0290
     98  N          2.7600   -3.6290   -9.4440 N.3   204  PRO204     -0.2102
     99  CA         1.8450   -4.1340  -10.4650 C.3   204  PRO204      0.1504
    100  C          2.2040   -5.5690  -10.7790 C.2   204  PRO204      0.2575
    101  O          3.1480   -6.0850  -10.1840 O.2   204  PRO204     -0.2718
    102  CB         2.1300   -3.2350  -11.6620 C.3   204  PRO204      0.0282
    103  CG         3.5920   -2.9700  -11.5410 C.3   204  PRO204      0.0208
    104  CD         3.8850   -2.8950  -10.0550 C.3   204  PRO204      0.0893
    105  N          1.4930   -6.1970  -11.7060 N.am  205  LEU205     -0.1980
    106  CA         1.9950   -7.4310  -12.2860 C.3   205  LEU205      0.1596
    107  C          2.9350   -7.0290  -13.4090 C.2   205  LEU205      0.2287
    108  O          2.5070   -6.6580  -14.5010 O.2   205  LEU205     -0.2864
    109  CB         0.8750   -8.3330  -12.7990 C.3   205  LEU205      0.0297
    110  CG         1.3660   -9.6910  -13.3160 C.3   205  LEU205      0.0022
    111  CD1        1.9160  -10.5530  -12.1840 C.3   205  LEU205      0.0001
    112  CD2        0.2600  -10.4180  -14.0530 C.3   205  LEU205      0.0001
    113  N          5.2320   -6.8740  -16.4750 N.3   207  GLY207     -0.1210
    114  CA         5.2050   -7.5680  -17.7450 C.3   207  GLY207      0.1956
    115  C          3.8080   -7.9710  -18.1680 C.2   207  GLY207      0.2612
    116  O          3.6480   -8.6450  -19.1810 O.2   207  GLY207     -0.2717
    117  N          2.8020   -7.5400  -17.4110 N.am  208  GLY208     -0.1942
    118  CA         1.4440   -8.0390  -17.5820 C.3   208  GLY208      0.2014
    119  C          0.4750   -7.2260  -18.4260 C.2   208  GLY208      0.2639
    120  O         -0.7080   -7.5700  -18.5020 O.2   208  GLY208     -0.2714
    121  N          0.9570   -6.1660  -19.0650 N.am  209  GLY209     -0.1939
    122  CA         0.1120   -5.3170  -19.8910 C.3   209  GLY209      0.2014
    123  C          0.5150   -5.3840  -21.3490 C.2   209  GLY209      0.2639
    124  O          0.3630   -6.4190  -21.9960 O.2   209  GLY209     -0.2714
    125  N          1.0440   -4.2830  -21.8690 N.am  210  ILE210     -0.1963
    126  CA         1.4370   -4.2310  -23.2710 C.3   210  ILE210      0.1727
    127  C          2.6280   -5.1550  -23.5540 C.2   210  ILE210      0.2616
    128  O          2.8750   -5.5240  -24.7000 O.2   210  ILE210     -0.2715
    129  CB         1.7780   -2.7760  -23.7010 C.3   210  ILE210      0.0290
    130  CG1        1.3000   -2.5130  -25.1320 C.3   210  ILE210      0.0022
    131  CG2        3.2720   -2.4790  -23.5570 C.3   210  ILE210      0.0023
    132  CD1       -0.2110   -2.4020  -25.2580 C.3   210  ILE210      0.0001
    133  N          3.3580   -5.5390  -22.5110 N.am  211  PHE211     -0.1974
    134  CA         4.5390   -6.3790  -22.6810 C.3   211  PHE211      0.1639
    135  C          4.2310   -7.8730  -22.8060 C.2   211  PHE211      0.2290
    136  O          5.0850   -8.6390  -23.2440 O.2   211  PHE211     -0.2864
    137  CB         5.5000   -6.1820  -21.5080 C.3   211  PHE211      0.0560
    138  CG         6.4670   -5.0440  -21.6870 C.ar  211  PHE211     -0.0200
    139  CD1        6.1810   -3.9740  -22.5240 C.ar  211  PHE211     -0.0042
    140  CD2        7.6730   -5.0540  -21.0160 C.ar  211  PHE211     -0.0042
    141  CE1        7.0860   -2.9360  -22.6750 C.ar  211  PHE211     -0.0003
    142  CE2        8.5740   -4.0260  -21.1600 C.ar  211  PHE211     -0.0003
    143  CZ         8.2850   -2.9650  -21.9890 C.ar  211  PHE211     -0.0000
    144  N         -1.9050  -14.4370  -18.4670 N.3   217  LEU217     -0.1245
    145  CA        -1.6760  -13.7660  -17.1940 C.3   217  LEU217      0.1561
    146  C         -1.3270  -14.7690  -16.1020 C.2   217  LEU217      0.2260
    147  O         -0.5670  -14.4610  -15.1840 O.2   217  LEU217     -0.2867
    148  CB        -2.9070  -12.9510  -16.7940 C.3   217  LEU217      0.0270
    149  CG        -3.1150  -11.6800  -17.6160 C.3   217  LEU217      0.0019
    150  CD1       -4.5040  -11.1050  -17.3970 C.3   217  LEU217      0.0001
    151  CD2       -2.0520  -10.6490  -17.2740 C.3   217  LEU217      0.0001
    152  N         -1.1870   -4.1490   -6.4950 N.3   244  MET244     -0.1230
    153  CA        -2.2340   -3.2560   -6.9630 C.3   244  MET244      0.1702
    154  C         -3.3460   -4.0660   -7.6100 C.2   244  MET244      0.2592
    155  O         -3.1150   -5.1750   -8.0900 O.2   244  MET244     -0.2718
    156  CB        -1.6550   -2.2350   -7.9370 C.3   244  MET244      0.0401
    157  CG        -0.5790   -1.3990   -7.2820 C.3   244  MET244      0.0596
    158  SD         0.1290   -0.0970   -8.3070 S.3   244  MET244     -0.1393
    159  CE         0.5520   -0.9600   -9.7970 C.3   244  MET244      0.0692
    160  N         -4.5570   -3.5210   -7.6140 N.am  245  TYR245     -0.1962
    161  CA        -5.7000   -4.2930   -8.0760 C.3   245  TYR245      0.1771
    162  C         -5.5880   -4.6810   -9.5490 C.2   245  TYR245      0.2620
    163  O         -5.2490   -3.8580  -10.4020 O.2   245  TYR245     -0.2715
    164  CB        -7.0040   -3.5320   -7.8550 C.3   245  TYR245      0.0574
    165  CG        -8.1710   -4.3150   -8.3940 C.ar  245  TYR245     -0.0198
    166  CD1       -8.5420   -5.5200   -7.8120 C.ar  245  TYR245     -0.0009
    167  CD2       -8.8650   -3.8830   -9.5110 C.ar  245  TYR245     -0.0009
    168  CE1       -9.5900   -6.2590   -8.3090 C.ar  245  TYR245      0.0417
    169  CE2       -9.9180   -4.6160  -10.0150 C.ar  245  TYR245      0.0417
    170  CZ       -10.2720   -5.8070   -9.4110 C.ar  245  TYR245      0.1957
    171  OH       -11.3220   -6.5500   -9.9010 O.3   245  TYR245     -0.2866
    172  N         -5.8960   -5.9460   -9.8210 N.am  246  ASP246     -0.1958
    173  CA        -5.8930   -6.5240  -11.1610 C.3   246  ASP246      0.1825
    174  C         -7.1180   -7.4280  -11.2590 C.2   246  ASP246      0.2464
    175  O         -7.2230   -8.3960  -10.5110 O.2   246  ASP246     -0.2730
    176  CB        -4.5950   -7.3060  -11.4040 C.3   246  ASP246      0.1450
    177  CG        -4.5900   -8.0760  -12.7190 C.2   246  ASP246      0.3671
    178  OD1       -5.4690   -7.8490  -13.5780 O.co2 246  ASP246     -0.2456
    179  OD2       -3.6780   -8.9140  -12.8980 O.co2 246  ASP246     -0.2456
    180  N         -8.0650   -7.1130  -12.1630 N.am  247  PRO247     -0.2727
    181  CA        -9.2800   -7.9370  -12.1830 C.3   247  PRO247      0.1402
    182  C         -9.0150   -9.4130  -12.5050 C.2   247  PRO247      0.2269
    183  O         -9.8420  -10.2660  -12.1730 O.2   247  PRO247     -0.2865
    184  CB       -10.1410   -7.2720  -13.2720 C.3   247  PRO247      0.0296
    185  CG        -9.2060   -6.4610  -14.0830 C.3   247  PRO247      0.0237
    186  CD        -8.1090   -6.0330  -13.1620 C.3   247  PRO247      0.0939
@<TRIPOS>BOND
     1   132   130    1
     2   130   129    1
     3   128   127    2
     4    50    51   ar
     5    50    48   ar
     6   129   131    1
     7   129   126    1
     8    51    49   ar
     9   127   126    1
    10   127   133   am
    11   126   125    1
    12   136   135    2
    13    48    46   ar
    14   135   134    1
    15   134   133    1
    16   134   137    1
    17   141   139   ar
    18   141   143   ar
    19    49    47   ar
    20   139   138   ar
    21    57    58    1
    22    57    56    1
    23    46    47   ar
    24    46    45    1
    25   124   123    2
    26   143   142   ar
    27    60    58   am
    28    60    61    1
    29   125   123   am
    30    40    37    1
    31    58    59    2
    32   138   137    1
    33   138   140   ar
    34    56    54   am
    35    61    62    1
    36    45    42    1
    37   123   122    1
    38    38    37    1
    39    38    39    2
    40   142   140   ar
    41    37    36    1
    42    54    55    2
    43    54    53    1
    44    41    42    1
    45    62    64   am
    46    62    63    2
    47    42    43    1
    48    96    95    2
    49   122   121    1
    50    53    52    1
    51    64    65    1
    52    36    34   am
    53   116   115    2
    54    43    44    2
    55   121   119   am
    56    35    34    2
    57    83    81   am
    58    95    94    1
    59    65    66    1
    60    34    33    1
    61   120   119    2
    62   144   145    1
    63   119   118    1
    64   115   114    1
    65   115   117   am
    66    81    80    1
    67    81    82    2
    68    80    77    1
    69   114   113    1
    70   149   150    1
    71   149   151    1
    72   149   148    1
    73   118   117    1
    74    94    93    1
    75    94    97    1
    76    66    67    2
    77    66    68   am
    78    33    32    1
    79   145   148    1
    80   145   146    1
    81    30    29    2
    82    78    77    1
    83    78    79    2
    84    68    69    1
    85    77    76    1
    86    76    70   am
    87    32    29   am
    88    29    28    1
    89   146   147    2
    90    84    85    1
    91    92    90   am
    92    31    28    1
    93    70    69    1
    94    70    71    2
    95    11    10   ar
    96    11     9   ar
    97    69    72    1
    98    28    27    1
    99    10     8   ar
   100     9     7   ar
   101    72    73    1
   102   108   107    2
   103    85    88    1
   104    85    86    1
   105    90    89    1
   106    90    91    2
   107    89    88    1
   108   185   184    1
   109   185   186    1
   110   112   110    1
   111     8     6   ar
   112   178   177   ar
   113    86    87    2
   114   107   106    1
   115     7     6   ar
   116   110   109    1
   117   110   111    1
   118   184   181    1
   119    73    75    1
   120    73    74    1
   121   186   180    1
   122   179   177   ar
   123     6     5    1
   124   109   106    1
   125   177   176    1
   126   182   181    1
   127   182   183    2
   128   106   105    1
   129   181   180    1
   130   180   174   am
   131   105   100   am
   132   102   103    1
   133   102    99    1
   134   103   104    1
   135     5     2    1
   136   176   173    1
   137   174   173    1
   138   174   175    2
   139   173   172    1
   140   100    99    1
   141   100   101    2
   142    99    98    1
   143     1     2    1
   144   163   162    2
   145     2     3    1
   146    25    24    1
   147   104    98    1
   148   169   167   ar
   149   169   170   ar
   150   171   170    1
   151   172   162   am
   152   159   158    1
   153    26    24    1
   154   162   161    1
   155   167   165   ar
   156   170   168   ar
   157    24    23    1
   158     3    12   am
   159     3     4    2
   160    12    13    1
   161   165   164    1
   162   165   166   ar
   163   168   166   ar
   164   158   157    1
   165    15    14    2
   166   155   154    2
   167   161   164    1
   168   161   160    1
   169   156   157    1
   170   156   153    1
   171    23    20    1
   172   160   154   am
   173   154   153    1
   174    14    13    1
   175    13    16    1
   176    19    20    1
   177   153   152    1
   178    20    21    1
   179    16    17    1
   180    16    18    1
   181    21    22    2
