@<TRIPOS>MOLECULE
tmp/6bxyA00.pdb
 212 203 0 0 0
SMALL
GASTEIGER

@<TRIPOS>ATOM
      1  N         -1.3300   -7.1410   -6.0110 N.3   133  SER133     -0.1202
      2  CA        -0.8610   -6.6310   -7.2990 C.3   133  SER133      0.2020
      3  C         -1.8390   -5.6000   -7.8770 C.2   133  SER133      0.2619
      4  O         -1.4500   -4.4730   -8.2250 O.2   133  SER133     -0.2717
      5  CB        -0.6550   -7.7960   -8.2640 C.3   133  SER133      0.2103
      6  OG        -1.8690   -8.4750   -8.4530 O.3   133  SER133     -0.2182
      7  N         -3.1240   -5.9540   -7.9720 N.am  134  SER134     -0.1951
      8  CA        -4.0580   -5.0050   -8.5940 C.3   134  SER134      0.1924
      9  C         -4.3060   -3.8310   -7.6390 C.2   134  SER134      0.2314
     10  O         -4.6050   -2.7130   -8.0920 O.2   134  SER134     -0.2863
     11  CB        -5.3740   -5.7090   -9.0360 C.3   134  SER134      0.2116
     12  OG        -6.0590   -6.3220   -7.9360 O.3   134  SER134     -0.2180
     13  N         -8.0740   -2.8530  -16.8240 N.3   156  LEU156     -0.1231
     14  CA        -8.2880   -4.1300  -16.1660 C.3   156  LEU156      0.1693
     15  C         -8.4340   -5.1890  -17.2390 C.2   156  LEU156      0.2593
     16  O         -9.2620   -5.0280  -18.1530 O.2   156  LEU156     -0.2718
     17  CB        -9.5720   -4.1110  -15.3430 C.3   156  LEU156      0.0284
     18  CG        -9.5550   -3.0910  -14.1700 C.3   156  LEU156      0.0019
     19  CD1      -10.9880   -3.2910  -13.6480 C.3   156  LEU156      0.0001
     20  CD2       -8.4740   -3.4970  -13.1120 C.3   156  LEU156      0.0001
     21  N         -7.6360   -6.2310  -17.1430 N.am  157  SER157     -0.1938
     22  CA        -7.9430   -7.4440  -17.8940 C.3   157  SER157      0.2055
     23  C         -8.5370   -8.4770  -16.9510 C.2   157  SER157      0.2643
     24  O         -8.9640   -8.1660  -15.8100 O.2   157  SER157     -0.2714
     25  CB        -6.6920   -7.9920  -18.5910 C.3   157  SER157      0.2130
     26  OG        -5.7580   -8.5940  -17.6790 O.3   157  SER157     -0.2179
     27  N         -8.6090   -9.7330  -17.4220 N.am  158  GLU158     -0.1963
     28  CA        -9.2260  -10.7000  -16.5100 C.3   158  GLU158      0.1733
     29  C         -8.2510  -11.2210  -15.4880 C.2   158  GLU158      0.2616
     30  O         -8.6790  -11.8930  -14.5410 O.2   158  GLU158     -0.2715
     31  CB        -9.8510  -11.8600  -17.2930 C.3   158  GLU158      0.0429
     32  CG       -11.0980  -11.3460  -18.0730 C.3   158  GLU158      0.1163
     33  CD       -11.8650  -12.4380  -18.7930 C.2   158  GLU158      0.3649
     34  OE1      -11.2500  -13.2060  -19.5610 O.co2 158  GLU158     -0.2457
     35  OE2      -13.0900  -12.4980  -18.6080 O.co2 158  GLU158     -0.2457
     36  N         -6.9650  -10.8940  -15.6060 N.am  159  ASP159     -0.1957
     37  CA        -6.0230  -11.2930  -14.5500 C.3   159  ASP159      0.1840
     38  C         -4.8880  -10.2880  -14.3360 C.2   159  ASP159      0.2622
     39  O         -3.8620  -10.6370  -13.7180 O.2   159  ASP159     -0.2715
     40  CB        -5.4000  -12.6880  -14.8510 C.3   159  ASP159      0.1450
     41  CG        -4.5960  -13.2490  -13.6730 C.2   159  ASP159      0.3671
     42  OD1       -5.1170  -13.2300  -12.5310 O.co2 159  ASP159     -0.2456
     43  OD2       -3.4550  -13.6900  -13.9120 O.co2 159  ASP159     -0.2456
     44  N         -5.0710   -9.0350  -14.7300 N.am  160  HIS160     -0.1959
     45  CA        -3.9870   -8.0830  -14.5450 C.3   160  HIS160      0.1787
     46  C         -4.6000   -6.6950  -14.5600 C.2   160  HIS160      0.2620
     47  O         -5.7290   -6.5100  -15.0210 O.2   160  HIS160     -0.2715
     48  CB        -2.9260   -8.2700  -15.6720 C.3   160  HIS160      0.0785
     49  CG        -1.6970   -7.4540  -15.4840 C.ar  160  HIS160      0.0821
     50  ND1       -1.0750   -7.3330  -14.2510 N.ar  160  HIS160     -0.2267
     51  CD2       -0.9520   -6.7320  -16.3630 C.ar  160  HIS160      0.1154
     52  CE1       -0.0190   -6.5360  -14.3710 C.ar  160  HIS160      0.1986
     53  NE2        0.0950   -6.1720  -15.6430 N.ar  160  HIS160     -0.2212
     54  N         -3.8370   -5.7150  -14.0590 N.am  161  ALA161     -0.1977
     55  CA        -4.2650   -4.3050  -14.0340 C.3   161  ALA161      0.1597
     56  C         -3.0890   -3.4100  -14.3560 C.2   161  ALA161      0.2287
     57  O         -1.9570   -3.7590  -14.0540 O.2   161  ALA161     -0.2864
     58  CB        -4.7990   -3.9140  -12.6350 C.3   161  ALA161      0.0319
     59  N        -14.7620   -1.4250   -9.4530 N.3   217  PHE217     -0.1241
     60  CA       -13.6360   -2.2960   -9.1450 C.3   217  PHE217      0.1605
     61  C        -13.4170   -2.4400   -7.6310 C.2   217  PHE217      0.2264
     62  O        -13.1850   -3.5350   -7.1360 O.2   217  PHE217     -0.2867
     63  CB       -12.3570   -1.7480   -9.8110 C.3   217  PHE217      0.0534
     64  CG       -11.1260   -2.4720   -9.4040 C.ar  217  PHE217     -0.0203
     65  CD1      -10.8200   -3.7120   -9.9900 C.ar  217  PHE217     -0.0042
     66  CD2      -10.2550   -1.9410   -8.4550 C.ar  217  PHE217     -0.0042
     67  CE1       -9.6850   -4.4380   -9.6110 C.ar  217  PHE217     -0.0003
     68  CE2       -9.1430   -2.6480   -8.0400 C.ar  217  PHE217     -0.0003
     69  CZ        -8.8240   -3.8960   -8.6250 C.ar  217  PHE217     -0.0000
     70  N        -16.0210   -4.7340   -6.1820 N.3   220  CYS220     -0.1235
     71  CA       -15.6470   -6.1280   -6.4770 C.3   220  CYS220      0.1677
     72  C        -14.4640   -6.5920   -5.6440 C.2   220  CYS220      0.2270
     73  O        -14.3550   -7.7870   -5.3250 O.2   220  CYS220     -0.2867
     74  CB       -15.2980   -6.3050   -7.9740 C.3   220  CYS220      0.0956
     75  SG       -16.7240   -6.1820   -9.0530 S.3   220  CYS220     -0.0801
     76  N        -18.8680   -3.8590  -17.4300 N.3   255  TYR255     -0.1241
     77  CA       -18.0840   -4.6200  -16.4450 C.3   255  TYR255      0.1605
     78  C        -18.6380   -6.0400  -16.2930 C.2   255  TYR255      0.2264
     79  O        -19.2790   -6.3960  -15.2860 O.2   255  TYR255     -0.2867
     80  CB       -18.0890   -3.8600  -15.1240 C.3   255  TYR255      0.0534
     81  CG       -16.9720   -4.1710  -14.1880 C.ar  255  TYR255     -0.0201
     82  CD1      -16.2450   -5.3530  -14.2970 C.ar  255  TYR255     -0.0009
     83  CD2      -16.6480   -3.2650  -13.1720 C.ar  255  TYR255     -0.0009
     84  CE1      -15.1860   -5.6280  -13.3880 C.ar  255  TYR255      0.0417
     85  CE2      -15.6250   -3.5220  -12.2600 C.ar  255  TYR255      0.0417
     86  CZ       -14.8940   -4.7090  -12.3750 C.ar  255  TYR255      0.1957
     87  OH       -13.8660   -5.0360  -11.5020 O.3   255  TYR255     -0.2866
     88  N        -17.3720   -8.9190  -15.3290 N.3   257  MET257     -0.1245
     89  CA       -17.0560   -9.7190  -14.1360 C.3   257  MET257      0.1570
     90  C        -17.8010   -9.2170  -12.8990 C.2   257  MET257      0.2261
     91  O        -18.0960  -10.0130  -12.0060 O.2   257  MET257     -0.2867
     92  CB       -15.5660   -9.7310  -13.8480 C.3   257  MET257      0.0387
     93  CG       -14.8040  -10.6350  -14.8370 C.3   257  MET257      0.0595
     94  SD       -13.0380  -10.6670  -14.4870 S.3   257  MET257     -0.1393
     95  CE       -12.5190   -9.0100  -14.9710 C.3   257  MET257      0.0692
     96  N        -20.0200  -11.4220  -10.5300 N.3   261  ASN261     -0.1240
     97  CA       -19.8680  -11.3530   -9.0730 C.3   261  ASN261      0.1653
     98  C        -21.2170  -11.1220   -8.4010 C.2   261  ASN261      0.2266
     99  O        -21.5490  -11.7800   -7.4010 O.2   261  ASN261     -0.2867
    100  CB       -18.8750  -10.2130   -8.7230 C.3   261  ASN261      0.1155
    101  CG       -18.4480  -10.1970   -7.2550 C.2   261  ASN261      0.2627
    102  OD1      -19.1730  -10.6810   -6.3730 O.2   261  ASN261     -0.2716
    103  ND2      -17.2670   -9.6150   -6.9810 N.am  261  ASN261     -0.0877
    104  N        -23.3090  -14.2390   -8.5010 N.3   264  ASP264     -0.1239
    105  CA       -22.8770  -15.2110   -7.5130 C.3   264  ASP264      0.1674
    106  C        -23.3990  -14.8250   -6.1260 C.2   264  ASP264      0.2266
    107  O        -23.7740  -15.6940   -5.3270 O.2   264  ASP264     -0.2867
    108  CB       -21.3580  -15.2750   -7.5010 C.3   264  ASP264      0.1410
    109  CG       -20.7790  -16.0720   -8.6600 C.2   264  ASP264      0.3668
    110  OD1      -21.5170  -16.6460   -9.5190 O.co2 264  ASP264     -0.2456
    111  OD2      -19.5410  -16.1430   -8.6800 O.co2 264  ASP264     -0.2456
    112  N        -14.1930  -15.0290  -18.6020 N.3   298  TYR298     -0.1241
    113  CA       -14.9590  -15.2860  -17.3740 C.3   298  TYR298      0.1605
    114  C        -16.4590  -15.1520  -17.5210 C.2   298  TYR298      0.2264
    115  O        -17.1790  -15.7950  -16.7350 O.2   298  TYR298     -0.2867
    116  CB       -14.5040  -14.3970  -16.2060 C.3   298  TYR298      0.0534
    117  CG       -13.3070  -15.0080  -15.5040 C.ar  298  TYR298     -0.0201
    118  CD1      -13.4190  -16.1900  -14.8120 C.ar  298  TYR298     -0.0009
    119  CD2      -12.0760  -14.4260  -15.5690 C.ar  298  TYR298     -0.0009
    120  CE1      -12.3120  -16.7770  -14.1810 C.ar  298  TYR298      0.0417
    121  CE2      -10.9340  -15.0080  -14.9310 C.ar  298  TYR298      0.0417
    122  CZ       -11.0820  -16.1800  -14.2510 C.ar  298  TYR298      0.1957
    123  OH        -9.9960  -16.7510  -13.6130 O.3   298  TYR298     -0.2866
    124  N        -17.3860  -18.5770  -17.9760 N.3   301  MET301     -0.1230
    125  CA       -17.0100  -19.4040  -16.8230 C.3   301  MET301      0.1702
    126  C        -17.9760  -19.1830  -15.6530 C.2   301  MET301      0.2592
    127  O        -18.3190  -20.1310  -14.9500 O.2   301  MET301     -0.2718
    128  CB       -15.5920  -19.0820  -16.3440 C.3   301  MET301      0.0401
    129  CG       -14.5300  -19.5780  -17.2560 C.3   301  MET301      0.0596
    130  SD       -14.2310  -21.3690  -16.8950 S.3   301  MET301     -0.1393
    131  CE       -12.9220  -21.5380  -18.1480 C.3   301  MET301      0.0692
    132  N        -18.4050  -17.9320  -15.4220 N.am  302  TYR302     -0.1976
    133  CA       -19.4220  -17.6720  -14.3980 C.3   302  TYR302      0.1639
    134  C        -20.6510  -18.4880  -14.6900 C.2   302  TYR302      0.2290
    135  O        -21.2450  -19.1010  -13.7880 O.2   302  TYR302     -0.2864
    136  CB       -19.8290  -16.1910  -14.3930 C.3   302  TYR302      0.0560
    137  CG       -18.9750  -15.3210  -13.5550 C.ar  302  TYR302     -0.0198
    138  CD1      -19.0360  -15.3920  -12.1610 C.ar  302  TYR302     -0.0009
    139  CD2      -18.1160  -14.3890  -14.1440 C.ar  302  TYR302     -0.0009
    140  CE1      -18.2530  -14.5600  -11.3870 C.ar  302  TYR302      0.0417
    141  CE2      -17.3370  -13.5590  -13.3800 C.ar  302  TYR302      0.0417
    142  CZ       -17.3910  -13.6430  -12.0260 C.ar  302  TYR302      0.1957
    143  OH       -16.5910  -12.8050  -11.2500 O.3   302  TYR302     -0.2866
    144  N        -20.0820  -22.2300  -14.1380 N.3   305  GLY305     -0.1225
    145  CA       -20.0840  -22.5430  -12.7070 C.3   305  GLY305      0.1811
    146  C        -21.4870  -22.6630  -12.1500 C.2   305  GLY305      0.2280
    147  O        -21.8090  -23.6190  -11.4420 O.2   305  GLY305     -0.2866
    148  N        -23.0530  -25.9350  -10.5240 N.3   309  ARG309     -0.1245
    149  CA       -23.6140  -26.0260   -9.1690 C.3   309  ARG309      0.1563
    150  C        -25.0230  -26.5420   -9.1980 C.2   309  ARG309      0.2260
    151  O        -25.4380  -27.2590   -8.2800 O.2   309  ARG309     -0.2867
    152  CB       -23.5760  -24.6570   -8.4680 C.3   309  ARG309      0.0307
    153  CG       -22.1740  -24.1870   -8.2000 C.3   309  ARG309      0.0489
    154  CD       -22.1770  -22.9580   -7.2910 C.3   309  ARG309      0.2205
    155  NE       -22.7150  -21.7850   -7.9720 N.pl3 309  ARG309     -0.0865
    156  CZ       -21.9980  -20.9950   -8.7660 C.cat 309  ARG309      0.5346
    157  NH1      -20.7200  -21.2580   -9.0050 N.pl3 309  ARG309      0.1354
    158  NH2      -22.5580  -19.9370   -9.3160 N.pl3 309  ARG309      0.1354
    159  N        -18.8460  -24.1730  -21.1090 N.3   320  TRP320     -0.1241
    160  CA       -17.4070  -24.4490  -21.1950 C.3   320  TRP320      0.1605
    161  C        -16.9580  -24.5120  -22.6410 C.2   320  TRP320      0.2264
    162  O        -15.8580  -24.0400  -22.9710 O.2   320  TRP320     -0.2867
    163  CB       -17.0300  -25.7630  -20.4950 C.3   320  TRP320      0.0550
    164  CG       -16.9680  -25.5820  -19.0310 C.ar  320  TRP320      0.0003
    165  CD1      -16.3900  -24.5300  -18.3390 C.ar  320  TRP320      0.0946
    166  CD2      -17.5310  -26.4530  -18.0540 C.ar  320  TRP320      0.0152
    167  NE1      -16.5490  -24.7230  -16.9800 N.ar  320  TRP320     -0.2442
    168  CE2      -17.2490  -25.8900  -16.7740 C.ar  320  TRP320      0.0810
    169  CE3      -18.1890  -27.6830  -18.1250 C.ar  320  TRP320      0.0012
    170  CZ2      -17.6450  -26.5270  -15.5690 C.ar  320  TRP320      0.0191
    171  CZ3      -18.6050  -28.3030  -16.9440 C.ar  320  TRP320      0.0001
    172  CH2      -18.3400  -27.7080  -15.6740 C.ar  320  TRP320      0.0015
    173  N         -7.2700  -22.7950  -14.5090 N.3   342  GLU342     -0.1245
    174  CA        -8.7280  -22.9430  -14.4690 C.3   342  GLU342      0.1567
    175  C         -9.1850  -23.9790  -15.4980 C.2   342  GLU342      0.2260
    176  O         -9.9850  -24.8520  -15.1720 O.2   342  GLU342     -0.2867
    177  CB        -9.4830  -21.6250  -14.7100 C.3   342  GLU342      0.0388
    178  CG        -8.9780  -20.4290  -13.8890 C.3   342  GLU342      0.1160
    179  CD        -9.4730  -20.4000  -12.4770 C.2   342  GLU342      0.3649
    180  OE1       -9.2920  -19.3370  -11.8320 O.co2 342  GLU342     -0.2457
    181  OE2      -10.0520  -21.4120  -12.0000 O.co2 342  GLU342     -0.2457
    182  N         -8.2680  -27.4850  -14.2940 N.3   345  GLU345     -0.1231
    183  CA        -9.1440  -28.0470  -13.2740 C.3   345  GLU345      0.1699
    184  C        -10.5210  -28.3830  -13.8290 C.2   345  GLU345      0.2592
    185  O        -11.1480  -29.3420  -13.3760 O.2   345  GLU345     -0.2718
    186  CB        -9.3060  -27.0380  -12.1260 C.3   345  GLU345      0.0402
    187  CG        -7.9760  -26.8180  -11.4290 C.3   345  GLU345      0.1161
    188  CD        -8.0580  -25.7750  -10.2950 C.2   345  GLU345      0.3649
    189  OE1       -7.0330  -25.5900   -9.6070 O.co2 345  GLU345     -0.2457
    190  OE2       -9.1350  -25.1970  -10.0600 O.co2 345  GLU345     -0.2457
    191  N        -11.0570  -27.5400  -14.6970 N.am  346  VAL346     -0.1980
    192  CA       -12.3300  -27.8900  -15.3400 C.3   346  VAL346      0.1595
    193  C        -12.1980  -29.2270  -16.0770 C.2   346  VAL346      0.2287
    194  O        -13.0510  -30.1190  -15.9350 O.2   346  VAL346     -0.2864
    195  CB       -12.7840  -26.7560  -16.2830 C.3   346  VAL346      0.0276
    196  CG1      -14.0220  -27.2130  -17.1000 C.3   346  VAL346      0.0022
    197  CG2      -13.1880  -25.5090  -15.4390 C.3   346  VAL346      0.0022
    198  N        -10.8680  -32.1250  -13.2140 N.3   349  ASP349     -0.1225
    199  CA       -11.5620  -32.3070  -11.9360 C.3   349  ASP349      0.1805
    200  C        -13.0610  -32.0880  -12.1170 C.2   349  ASP349      0.2597
    201  O        -13.8390  -33.0040  -11.8480 O.2   349  ASP349     -0.2718
    202  CB       -11.0020  -31.3580  -10.8450 C.3   349  ASP349      0.1424
    203  CG       -11.3540  -31.8220   -9.4140 C.2   349  ASP349      0.3668
    204  OD1      -11.0120  -31.1040   -8.4330 O.co2 349  ASP349     -0.2456
    205  OD2      -11.9430  -32.9220   -9.2580 O.co2 349  ASP349     -0.2456
    206  N        -13.4900  -30.9440  -12.6550 N.am  350  VAL350     -0.1980
    207  CA       -14.9120  -30.5980  -12.5850 C.3   350  VAL350      0.1595
    208  C        -15.7340  -31.4710  -13.5450 C.2   350  VAL350      0.2287
    209  O        -16.7520  -32.0710  -13.1770 O.2   350  VAL350     -0.2864
    210  CB       -15.0970  -29.0940  -12.8900 C.3   350  VAL350      0.0276
    211  CG1      -16.5470  -28.6910  -12.6480 C.3   350  VAL350      0.0022
    212  CG2      -14.1710  -28.2460  -11.9480 C.3   350  VAL350      0.0022
@<TRIPOS>BOND
     1   162   161    2
     2   161   160    1
     3   160   159    1
     4   160   163    1
     5   163   164    1
     6    34    33   ar
     7   164   165   ar
     8   164   166   ar
     9    33    35   ar
    10    33    32    1
    11   112   113    1
    12    25    22    1
    13    25    26    1
    14   165   167   ar
    15    16    15    2
    16   131   130    1
    17   169   166   ar
    18   169   171   ar
    19    32    31    1
    20   166   168   ar
    21   124   125    1
    22    22    21    1
    23    22    23    1
    24   114   113    1
    25   114   115    2
    26    76    77    1
    27    27    23   am
    28    27    28    1
    29   113   116    1
    30    31    28    1
    31   129   130    1
    32   129   128    1
    33    15    21   am
    34    15    14    1
    35   196   195    1
    36   167   168   ar
    37    23    24    2
    38   171   172   ar
    39    13    14    1
    40   125   128    1
    41   125   126    1
    42   168   170   ar
    43    28    29    1
    44    77    78    1
    45    77    80    1
    46    51    53   ar
    47    51    49   ar
    48    78    79    2
    49   195   197    1
    50   195   192    1
    51   116   117    1
    52    14    17    1
    53   193   194    2
    54   193   192    1
    55   172   170   ar
    56    48    49    1
    57    48    45    1
    58   126   132   am
    59   126   127    2
    60    53    52   ar
    61    36    29   am
    62    36    37    1
    63   119   117   ar
    64   119   121   ar
    65   117   118   ar
    66   175   176    2
    67   175   174    1
    68    29    30    2
    69    49    50   ar
    70   132   133    1
    71    17    18    1
    72   192   191    1
    73    88    89    1
    74    80    81    1
    75    47    46    2
    76    95    94    1
    77   121   122   ar
    78    40    37    1
    79    40    41    1
    80    93    94    1
    81    93    92    1
    82   118   120   ar
    83    44    45    1
    84    44    38   am
    85   177   174    1
    86   177   178    1
    87   191   184   am
    88   134   133    1
    89   134   135    2
    90    46    45    1
    91    46    54   am
    92    37    38    1
    93   173   174    1
    94   133   136    1
    95   136   137    1
    96    52    50   ar
    97    56    57    2
    98    56    55    1
    99    38    39    2
   100    82    81   ar
   101    82    84   ar
   102   182   183    1
   103   122   120   ar
   104   122   123    1
   105    81    83   ar
   106    18    19    1
   107    18    20    1
   108   139   137   ar
   109   139   141   ar
   110   144   145    1
   111    89    92    1
   112    89    90    1
   113    54    55    1
   114    55    58    1
   115    43    41   ar
   116   178   179    1
   117   184   185    2
   118   184   183    1
   119    41    42   ar
   120   137   138   ar
   121   208   209    2
   122   208   207    1
   123    84    86   ar
   124   141   142   ar
   125   183   186    1
   126   198   199    1
   127    83    85   ar
   128    90    91    2
   129   210   211    1
   130   210   207    1
   131   210   212    1
   132   145   146    1
   133   206   207    1
   134   206   200   am
   135   179   181   ar
   136   179   180   ar
   137    86    85   ar
   138    86    87    1
   139   138   140   ar
   140   146   147    2
   141   186   187    1
   142   200   199    1
   143   200   201    2
   144   142   140   ar
   145   142   143    1
   146   199   202    1
   147   187   188    1
   148   202   203    1
   149    96    97    1
   150   148   149    1
   151   188   190   ar
   152   188   189   ar
   153    65    67   ar
   154    65    64   ar
   155    63    64    1
   156    63    60    1
   157    67    69   ar
   158   110   109   ar
   159    59    60    1
   160   203   205   ar
   161   203   204   ar
   162    64    66   ar
   163   158   156    1
   164   150   149    1
   165   150   151    2
   166   149   152    1
   167    60    61    1
   168    97   100    1
   169    97    98    1
   170    75    74    1
   171    11     8    1
   172    11    12    1
   173   157   156    1
   174   156   155    2
   175   100   101    1
   176   111   109   ar
   177   109   108    1
   178    69    68   ar
   179     8     7    1
   180     8     9    1
   181   104   105    1
   182   152   153    1
   183    66    68   ar
   184     6     5    1
   185    98    99    2
   186     5     2    1
   187     4     3    2
   188   153   154    1
   189    10     9    2
   190    74    71    1
   191   155   154    1
   192     7     3   am
   193     3     2    1
   194    61    62    2
   195   105   108    1
   196   105   106    1
   197     2     1    1
   198   101   103   am
   199   101   102    2
   200    71    70    1
   201    71    72    1
   202   106   107    2
   203    72    73    2
