@<TRIPOS>MOLECULE
tmp/6byaD00.pdb
 155 152 0 0 0
SMALL
GASTEIGER

@<TRIPOS>ATOM
      1  N        -13.2560  -30.2080  -13.6090 N.3    25  HIS25      -0.1226
      2  CA       -13.7680  -28.9810  -12.9610 C.3    25  HIS25       0.1752
      3  C        -14.9790  -29.2470  -12.0510 C.2    25  HIS25       0.2596
      4  O        -15.7980  -28.3440  -11.8340 O.2    25  HIS25      -0.2718
      5  CB       -14.0510  -27.8480  -13.9790 C.3    25  HIS25       0.0759
      6  CG       -12.9000  -27.5780  -14.8920 C.ar   25  HIS25       0.0818
      7  ND1      -12.8870  -28.0510  -16.1930 N.ar   25  HIS25      -0.2268
      8  CD2      -11.7330  -26.9350  -14.6470 C.ar   25  HIS25       0.1154
      9  CE1      -11.7270  -27.6650  -16.7010 C.ar   25  HIS25       0.1986
     10  NE2      -11.0000  -26.9910  -15.8090 N.ar   25  HIS25      -0.2212
     11  N        -15.0710  -30.4890  -11.5020 N.am   26  HIS26      -0.1961
     12  CA       -16.1260  -30.9700  -10.5870 C.3    26  HIS26       0.1787
     13  C        -17.5670  -30.6870  -11.1050 C.2    26  HIS26       0.2620
     14  O        -18.4930  -30.4510  -10.3110 O.2    26  HIS26      -0.2715
     15  CB       -15.9060  -30.4250   -9.1490 C.3    26  HIS26       0.0785
     16  CG       -14.5280  -30.6740   -8.6050 C.ar   26  HIS26       0.0821
     17  ND1      -14.1340  -31.9340   -8.1700 N.ar   26  HIS26      -0.2267
     18  CD2      -13.4920  -29.8170   -8.4500 C.ar   26  HIS26       0.1154
     19  CE1      -12.8810  -31.8010   -7.7710 C.ar   26  HIS26       0.1986
     20  NE2      -12.4520  -30.5430   -7.9140 N.ar   26  HIS26      -0.2212
     21  N        -17.7390  -30.7250  -12.4440 N.am   27  ILE27      -0.1963
     22  CA       -19.0100  -30.4460  -13.1250 C.3    27  ILE27       0.1727
     23  C        -20.0540  -31.5500  -12.8740 C.2    27  ILE27       0.2616
     24  O        -21.2550  -31.2860  -12.9970 O.2    27  ILE27      -0.2715
     25  CB       -18.8440  -30.1100  -14.6530 C.3    27  ILE27       0.0290
     26  CG1      -18.3470  -31.3330  -15.4820 C.3    27  ILE27       0.0022
     27  CG2      -17.9530  -28.8610  -14.8670 C.3    27  ILE27       0.0023
     28  CD1      -18.6910  -31.2730  -16.9680 C.3    27  ILE27       0.0001
     29  N        -19.5850  -32.7680  -12.5020 N.am   28  PHE28      -0.1960
     30  CA       -20.4090  -33.9480  -12.2080 C.3    28  PHE28       0.1771
     31  C        -20.5250  -34.2500  -10.7130 C.2    28  PHE28       0.2619
     32  O        -21.2170  -35.2100  -10.3560 O.2    28  PHE28      -0.2715
     33  CB       -19.8470  -35.1940  -12.9290 C.3    28  PHE28       0.0574
     34  CG       -19.8190  -35.0820  -14.4290 C.ar   28  PHE28      -0.0200
     35  CD1      -21.0020  -35.0960  -15.1670 C.ar   28  PHE28      -0.0042
     36  CD2      -18.6090  -34.9730  -15.1120 C.ar   28  PHE28      -0.0042
     37  CE1      -20.9760  -34.9790  -16.5580 C.ar   28  PHE28      -0.0003
     38  CE2      -18.5850  -34.8550  -16.5030 C.ar   28  PHE28      -0.0003
     39  CZ       -19.7690  -34.8610  -17.2150 C.ar   28  PHE28      -0.0000
     40  N        -19.8270  -33.4580   -9.8510 N.am   29  ALA29      -0.1963
     41  CA       -19.7650  -33.6220   -8.3890 C.3    29  ALA29       0.1728
     42  C        -21.1270  -33.5910   -7.7030 C.2    29  ALA29       0.2616
     43  O        -21.4170  -34.4650   -6.8830 O.2    29  ALA29      -0.2715
     44  CB       -18.8480  -32.5760   -7.7730 C.3    29  ALA29       0.0334
     45  N        -21.9460  -32.5680   -8.0200 N.am   30  VAL30      -0.1977
     46  CA       -23.2880  -32.4230   -7.4570 C.3    30  VAL30       0.1596
     47  C        -24.3270  -32.2680   -8.5790 C.2    30  VAL30       0.2287
     48  O        -23.9680  -32.1310   -9.7570 O.2    30  VAL30      -0.2864
     49  CB       -23.4120  -31.3300   -6.3490 C.3    30  VAL30       0.0276
     50  CG1      -22.4310  -31.5770   -5.2010 C.3    30  VAL30       0.0022
     51  CG2      -23.2590  -29.9190   -6.9130 C.3    30  VAL30       0.0022
     52  N        -26.9600  -30.7770  -11.0930 N.3    32  VAL32      -0.1245
     53  CA       -27.0160  -29.5420  -11.9000 C.3    32  VAL32       0.1561
     54  C        -28.1010  -28.6000  -11.3240 C.2    32  VAL32       0.2260
     55  O        -27.8690  -27.3940  -11.2020 O.2    32  VAL32      -0.2867
     56  CB       -27.2540  -29.8400  -13.4030 C.3    32  VAL32       0.0252
     57  CG1      -27.3210  -28.5610  -14.2310 C.3    32  VAL32       0.0019
     58  CG2      -26.0900  -30.6870  -13.9230 C.3    32  VAL32       0.0019
     59  N        -26.6550  -26.8890   -7.9330 N.3    35  THR35      -0.1203
     60  CA       -25.7320  -25.7590   -8.1500 C.3    35  THR35       0.1994
     61  C        -26.5110  -24.6070   -8.7940 C.2    35  THR35       0.2617
     62  O        -26.5440  -23.5000   -8.2470 O.2    35  THR35      -0.2717
     63  CB       -24.5110  -26.1440   -9.0140 C.3    35  THR35       0.1784
     64  OG1      -24.1250  -27.4610   -8.6450 O.3    35  THR35      -0.2211
     65  CG2      -23.3540  -25.1940   -8.7860 C.3    35  THR35       0.0376
     66  N        -27.1710  -24.8970   -9.9380 N.am   36  TYR36      -0.1975
     67  CA       -27.9850  -23.9590  -10.7000 C.3    36  TYR36       0.1639
     68  C        -29.4820  -24.3830  -10.6750 C.2    36  TYR36       0.2290
     69  O        -29.9230  -25.1540  -11.5390 O.2    36  TYR36      -0.2864
     70  CB       -27.4370  -23.8120  -12.1310 C.3    36  TYR36       0.0560
     71  CG       -26.0360  -23.2690  -12.1820 C.ar   36  TYR36      -0.0198
     72  CD1      -25.5630  -22.2030  -11.4610 C.ar   36  TYR36      -0.0009
     73  CD2      -25.1010  -23.9370  -12.9770 C.ar   36  TYR36      -0.0009
     74  CE1      -24.2530  -21.7160  -11.5290 C.ar   36  TYR36       0.0417
     75  CE2      -23.7970  -23.4910  -13.0820 C.ar   36  TYR36       0.0417
     76  CZ       -23.3680  -22.4440  -12.3350 C.ar   36  TYR36       0.1957
     77  OH       -22.0360  -22.0100  -12.3800 O.3    36  TYR36      -0.2866
     78  N        -32.1200  -23.2780  -13.7990 N.3    39  LEU39      -0.1245
     79  CA       -32.1020  -23.9870  -15.0860 C.3    39  LEU39       0.1561
     80  C        -33.1290  -25.1300  -15.1800 C.2    39  LEU39       0.2260
     81  O        -33.3450  -25.6520  -16.2740 O.2    39  LEU39      -0.2867
     82  CB       -30.6820  -24.5040  -15.4240 C.3    39  LEU39       0.0270
     83  CG       -29.5490  -23.4710  -15.5960 C.3    39  LEU39       0.0019
     84  CD1      -28.2150  -24.1640  -15.7790 C.3    39  LEU39       0.0001
     85  CD2      -29.7970  -22.5400  -16.7810 C.3    39  LEU39       0.0001
     86  N        -33.6030  -27.4730  -18.3790 N.3    43  TYR43      -0.1241
     87  CA       -32.8410  -28.7110  -18.1680 C.3    43  TYR43       0.1605
     88  C        -33.6910  -29.9860  -18.1830 C.2    43  TYR43       0.2264
     89  O        -33.2560  -30.9730  -18.7830 O.2    43  TYR43      -0.2867
     90  CB       -31.9880  -28.6420  -16.8850 C.3    43  TYR43       0.0534
     91  CG       -30.8720  -29.6640  -16.8530 C.ar   43  TYR43      -0.0201
     92  CD1      -29.6160  -29.3700  -17.3760 C.ar   43  TYR43      -0.0009
     93  CD2      -31.0720  -30.9290  -16.3060 C.ar   43  TYR43      -0.0009
     94  CE1      -28.5890  -30.3130  -17.3650 C.ar   43  TYR43       0.0417
     95  CE2      -30.0560  -31.8830  -16.2990 C.ar   43  TYR43       0.0417
     96  CZ       -28.8130  -31.5690  -16.8220 C.ar   43  TYR43       0.1957
     97  OH       -27.8060  -32.5040  -16.8060 O.3    43  TYR43      -0.2866
     98  N        -24.8860  -39.2210  -16.5080 N.3    81  MET81      -0.1245
     99  CA       -24.2450  -37.9300  -16.2000 C.3    81  MET81       0.1570
    100  C        -23.5720  -37.3700  -17.4680 C.2    81  MET81       0.2261
    101  O        -23.7440  -36.1840  -17.7830 O.2    81  MET81      -0.2867
    102  CB       -23.1830  -38.0870  -15.0930 C.3    81  MET81       0.0387
    103  CG       -23.7190  -38.6010  -13.7920 C.3    81  MET81       0.0595
    104  SD       -22.3930  -38.9570  -12.6270 S.3    81  MET81      -0.1393
    105  CE       -23.0990  -40.3850  -11.7820 C.3    81  MET81       0.0692
    106  N        -24.8950  -34.2600  -20.0710 N.3    85  CYS85      -0.1235
    107  CA       -23.9950  -33.1180  -20.2820 C.3    85  CYS85       0.1677
    108  C        -23.8620  -32.8050  -21.7930 C.2    85  CYS85       0.2270
    109  O        -23.9560  -31.6360  -22.1850 O.2    85  CYS85      -0.2867
    110  CB       -22.6340  -33.3740  -19.6320 C.3    85  CYS85       0.0956
    111  SG       -21.4610  -31.9970  -19.7790 S.3    85  CYS85      -0.0801
    112  N        -27.3940  -31.5070  -23.3070 N.3    88  TYR88      -0.1227
    113  CA       -27.7210  -30.1490  -22.8960 C.3    88  TYR88       0.1736
    114  C        -26.7830  -29.0870  -23.4820 C.2    88  TYR88       0.2595
    115  O        -27.2560  -28.1310  -24.1090 O.2    88  TYR88      -0.2718
    116  CB       -27.8050  -30.0460  -21.3590 C.3    88  TYR88       0.0548
    117  CG       -28.4260  -28.7510  -20.8780 C.ar   88  TYR88      -0.0200
    118  CD1      -29.7990  -28.5330  -20.9790 C.ar   88  TYR88      -0.0009
    119  CD2      -27.6410  -27.7390  -20.3320 C.ar   88  TYR88      -0.0009
    120  CE1      -30.3730  -27.3310  -20.5680 C.ar   88  TYR88       0.0417
    121  CE2      -28.2040  -26.5300  -19.9200 C.ar   88  TYR88       0.0417
    122  CZ       -29.5720  -26.3320  -20.0390 C.ar   88  TYR88       0.1957
    123  OH       -30.1400  -25.1540  -19.6200 O.3    88  TYR88      -0.2866
    124  N        -25.4600  -29.2530  -23.2710 N.am   89  ASN89      -0.1974
    125  CA       -24.4280  -28.3020  -23.7070 C.3    89  ASN89       0.1688
    126  C        -24.0590  -28.4010  -25.1950 C.2    89  ASN89       0.2292
    127  O        -23.4740  -27.4550  -25.7330 O.2    89  ASN89      -0.2864
    128  CB       -23.1780  -28.4160  -22.8240 C.3    89  ASN89       0.1181
    129  CG       -23.4400  -28.1480  -21.3610 C.2    89  ASN89       0.2629
    130  OD1      -23.7690  -27.0250  -20.9600 O.2    89  ASN89      -0.2716
    131  ND2      -23.3200  -29.1800  -20.5310 N.am   89  ASN89      -0.0877
    132  N        -17.0560  -27.6410  -24.8070 N.3    94  ALA94      -0.1231
    133  CA       -15.9190  -27.9940  -23.9530 C.3    94  ALA94       0.1694
    134  C        -16.4200  -28.9690  -22.8860 C.2    94  ALA94       0.2592
    135  O        -15.6550  -29.8080  -22.4070 O.2    94  ALA94      -0.2718
    136  CB       -15.3510  -26.7460  -23.2930 C.3    94  ALA94       0.0304
    137  N        -17.7260  -28.8570  -22.5510 N.am   95  TYR95      -0.1976
    138  CA       -18.4620  -29.6760  -21.5940 C.3    95  TYR95       0.1639
    139  C        -18.6110  -31.1190  -22.0900 C.2    95  TYR95       0.2290
    140  O        -18.4260  -32.0440  -21.2920 O.2    95  TYR95      -0.2864
    141  CB       -19.8370  -29.0470  -21.2910 C.3    95  TYR95       0.0560
    142  CG       -19.7550  -27.7410  -20.5260 C.ar   95  TYR95      -0.0198
    143  CD1      -19.5670  -27.7290  -19.1460 C.ar   95  TYR95      -0.0009
    144  CD2      -19.8810  -26.5200  -21.1790 C.ar   95  TYR95      -0.0009
    145  CE1      -19.4870  -26.5310  -18.4380 C.ar   95  TYR95       0.0417
    146  CE2      -19.8020  -25.3150  -20.4810 C.ar   95  TYR95       0.0417
    147  CZ       -19.6040  -25.3250  -19.1090 C.ar   95  TYR95       0.1957
    148  OH       -19.5360  -24.1400  -18.4110 O.3    95  TYR95      -0.2866
    149  N        -15.2100  -32.7480  -21.8370 N.3    98  THR98      -0.1218
    150  CA       -14.9970  -33.0560  -20.4170 C.3    98  THR98       0.1862
    151  C        -15.7600  -34.3400  -20.0250 C.2    98  THR98       0.2287
    152  O        -15.1830  -35.2090  -19.3710 O.2    98  THR98      -0.2866
    153  CB       -15.3330  -31.8260  -19.5450 C.3    98  THR98       0.1770
    154  OG1      -14.4670  -30.7520  -19.9130 O.3    98  THR98      -0.2211
    155  CG2      -15.1900  -32.1000  -18.0510 C.3    98  THR98       0.0375
@<TRIPOS>BOND
     1   127   126    2
     2   126   125    1
     3   132   133    1
     4   115   114    2
     5   133   136    1
     6   133   134    1
     7   125   124    1
     8   125   128    1
     9   114   124   am
    10   114   113    1
    11   112   113    1
    12   113   116    1
    13   134   137   am
    14   134   135    2
    15   128   129    1
    16   137   138    1
    17   109   108    2
    18   139   138    1
    19   139   140    2
    20   149   150    1
    21   108   107    1
    22   138   141    1
    23   129   130    2
    24   129   131   am
    25   116   117    1
    26   141   142    1
    27   144   142   ar
    28   144   146   ar
    29   118   117   ar
    30   118   120   ar
    31   117   119   ar
    32   120   122   ar
    33   142   143   ar
    34   146   147   ar
    35   150   151    1
    36   150   153    1
    37   119   121   ar
    38   107   106    1
    39   107   110    1
    40   122   121   ar
    41   122   123    1
    42   151   152    2
    43   154   153    1
    44   111   110    1
    45   153   155    1
    46   143   145   ar
    47   147   145   ar
    48   147   148    1
    49    89    88    2
    50    86    87    1
    51    88    87    1
    52    87    90    1
    53   101   100    2
    54   100    99    1
    55    92    94   ar
    56    92    91   ar
    57    94    96   ar
    58    39    37   ar
    59    39    38   ar
    60    28    26    1
    61    90    91    1
    62    91    93   ar
    63    96    97    1
    64    96    95   ar
    65    85    83    1
    66     9     7   ar
    67     9    10   ar
    68    37    35   ar
    69    98    99    1
    70    38    36   ar
    71    93    95   ar
    72    81    80    2
    73    99   102    1
    74     7     6   ar
    75    10     8   ar
    76    84    83    1
    77    83    82    1
    78    26    25    1
    79    82    79    1
    80    80    79    1
    81    35    34   ar
    82    36    34   ar
    83   102   103    1
    84    79    78    1
    85     6     8   ar
    86     6     5    1
    87    27    25    1
    88    25    22    1
    89    34    33    1
    90    57    56    1
    91     5     2    1
    92    58    56    1
    93   103   104    1
    94     1     2    1
    95    56    53    1
    96    22    23    1
    97    22    21    1
    98    75    73   ar
    99    75    76   ar
   100    24    23    2
   101    73    71   ar
   102     2     3    1
   103    33    30    1
   104    23    29   am
   105   104   105    1
   106    29    30    1
   107    21    13   am
   108    77    76    1
   109    76    74   ar
   110    30    31    1
   111    71    70    1
   112    71    72   ar
   113    70    67    1
   114     3     4    2
   115     3    11   am
   116    53    54    1
   117    53    52    1
   118    69    68    2
   119    74    72   ar
   120    11    12    1
   121    54    55    2
   122    13    12    1
   123    13    14    2
   124    31    32    2
   125    31    40   am
   126    67    68    1
   127    67    66    1
   128    12    15    1
   129    66    61   am
   130    40    41    1
   131    48    47    2
   132    15    16    1
   133    63    65    1
   134    63    64    1
   135    63    60    1
   136    61    62    2
   137    61    60    1
   138    16    18   ar
   139    16    17   ar
   140    47    46    1
   141    18    20   ar
   142    41    44    1
   143    41    42    1
   144    17    19   ar
   145    60    59    1
   146    45    42   am
   147    45    46    1
   148    20    19   ar
   149    42    43    2
   150    46    49    1
   151    51    49    1
   152    49    50    1
