@<TRIPOS>MOLECULE
tmp/6byaB00.pdb
 161 158 0 0 0
SMALL
GASTEIGER

@<TRIPOS>ATOM
      1  N         -3.7590   19.3210  -15.3570 N.3    27  HIS27      -0.1226
      2  CA        -4.0370   20.5120  -16.1720 C.3    27  HIS27       0.1752
      3  C         -5.5050   20.5870  -16.5540 C.2    27  HIS27       0.2596
      4  O         -5.8490   21.2330  -17.5520 O.2    27  HIS27      -0.2718
      5  CB        -3.1040   20.5560  -17.4220 C.3    27  HIS27       0.0759
      6  CG        -1.7820   19.9390  -17.1310 C.ar   27  HIS27       0.0818
      7  ND1       -1.4300   18.7160  -17.6700 N.ar   27  HIS27      -0.2268
      8  CD2       -0.8450   20.3020  -16.2240 C.ar   27  HIS27       0.1154
      9  CE1       -0.2620   18.4090  -17.1210 C.ar   27  HIS27       0.1986
     10  NE2        0.1160   19.3320  -16.2390 N.ar   27  HIS27      -0.2212
     11  N         -6.3570   19.8550  -15.8010 N.am   28  HIS28      -0.1961
     12  CA        -7.8120   19.7660  -16.0090 C.3    28  HIS28       0.1787
     13  C         -8.1430   19.2780  -17.4410 C.2    28  HIS28       0.2620
     14  O         -9.1470   19.7070  -18.0170 O.2    28  HIS28      -0.2715
     15  CB        -8.5090   21.1090  -15.6880 C.3    28  HIS28       0.0785
     16  CG        -8.2790   21.5900  -14.2870 C.ar   28  HIS28       0.0821
     17  ND1       -8.8820   20.9750  -13.2110 N.ar   28  HIS28      -0.2267
     18  CD2       -7.5230   22.6220  -13.8370 C.ar   28  HIS28       0.1154
     19  CE1       -8.4760   21.6370  -12.1430 C.ar   28  HIS28       0.1986
     20  NE2       -7.6820   22.6580  -12.4750 N.ar   28  HIS28      -0.2212
     21  N         -7.2710   18.4030  -18.0260 N.am   29  ILE29      -0.1963
     22  CA        -7.4970   17.9370  -19.4090 C.3    29  ILE29       0.1727
     23  C         -8.7160   16.9780  -19.4870 C.2    29  ILE29       0.2616
     24  O         -9.3680   16.9540  -20.5130 O.2    29  ILE29      -0.2715
     25  CB        -6.2310   17.3860  -20.1420 C.3    29  ILE29       0.0290
     26  CG1       -5.8030   16.0120  -19.6190 C.3    29  ILE29       0.0022
     27  CG2       -5.0590   18.4020  -20.1240 C.3    29  ILE29       0.0023
     28  CD1       -4.7870   15.2940  -20.5420 C.3    29  ILE29       0.0001
     29  N         -9.0790   16.2800  -18.3900 N.am   30  PHE30      -0.1960
     30  CA       -10.2440   15.3720  -18.4110 C.3    30  PHE30       0.1771
     31  C        -11.5250   16.0150  -17.8790 C.2    30  PHE30       0.2619
     32  O        -12.5580   15.3620  -17.8510 O.2    30  PHE30      -0.2715
     33  CB        -9.9340   14.0470  -17.6760 C.3    30  PHE30       0.0574
     34  CG        -8.6720   13.4130  -18.1880 C.ar   30  PHE30      -0.0200
     35  CD1       -8.6530   12.7540  -19.4170 C.ar   30  PHE30      -0.0042
     36  CD2       -7.4790   13.5250  -17.4780 C.ar   30  PHE30      -0.0042
     37  CE1       -7.4590   12.2020  -19.9160 C.ar   30  PHE30      -0.0003
     38  CE2       -6.2890   12.9920  -17.9960 C.ar   30  PHE30      -0.0003
     39  CZ        -6.2880   12.3350  -19.2140 C.ar   30  PHE30      -0.0000
     40  N        -11.4680   17.2980  -17.5110 N.am   31  ALA31      -0.1963
     41  CA       -12.5890   18.0180  -16.9300 C.3    31  ALA31       0.1728
     42  C        -13.8770   17.9790  -17.7530 C.2    31  ALA31       0.2616
     43  O        -14.9270   17.7020  -17.2030 O.2    31  ALA31      -0.2715
     44  CB       -12.1990   19.4670  -16.6210 C.3    31  ALA31       0.0334
     45  N        -13.8090   18.3470  -19.0340 N.am   32  VAL32      -0.1977
     46  CA       -14.9600   18.4500  -19.9210 C.3    32  VAL32       0.1596
     47  C        -14.6910   17.7580  -21.2570 C.2    32  VAL32       0.2287
     48  O        -13.5360   17.4740  -21.5930 O.2    32  VAL32      -0.2864
     49  CB       -15.4170   19.9280  -20.1190 C.3    32  VAL32       0.0276
     50  CG1      -15.5810   20.6390  -18.7760 C.3    32  VAL32       0.0022
     51  CG2      -14.4750   20.7080  -21.0600 C.3    32  VAL32       0.0022
     52  N        -13.7600   16.7240  -24.7960 N.3    34  VAL34      -0.1245
     53  CA       -12.6910   17.2230  -25.6960 C.3    34  VAL34       0.1561
     54  C        -13.2910   18.1790  -26.7630 C.2    34  VAL34       0.2260
     55  O        -12.7210   19.2430  -27.0500 O.2    34  VAL34      -0.2867
     56  CB       -11.8950   16.0380  -26.3320 C.3    34  VAL34       0.0252
     57  CG1      -10.9390   16.5060  -27.4320 C.3    34  VAL34       0.0019
     58  CG2      -11.1160   15.2980  -25.2610 C.3    34  VAL34       0.0019
     59  N        -14.1530   21.7660  -25.5050 N.3    37  THR37      -0.1203
     60  CA       -12.9330   22.5930  -25.5280 C.3    37  THR37       0.1994
     61  C        -12.4970   22.9110  -26.9990 C.2    37  THR37       0.2617
     62  O        -12.1330   24.0490  -27.3000 O.2    37  THR37      -0.2717
     63  CB       -11.7960   21.8930  -24.7720 C.3    37  THR37       0.1784
     64  OG1      -12.2670   21.4440  -23.5030 O.3    37  THR37      -0.2211
     65  CG2      -10.5930   22.7970  -24.5640 C.3    37  THR37       0.0376
     66  N        -12.5130   21.8990  -27.8840 N.am   38  TYR38      -0.1975
     67  CA       -12.0700   22.0410  -29.2660 C.3    38  TYR38       0.1639
     68  C        -13.1500   21.5590  -30.2520 C.2    38  TYR38       0.2290
     69  O        -13.0080   20.4600  -30.7790 O.2    38  TYR38      -0.2864
     70  CB       -10.7730   21.2330  -29.4800 C.3    38  TYR38       0.0560
     71  CG        -9.6820   21.5330  -28.4820 C.ar   38  TYR38      -0.0198
     72  CD1       -8.9080   22.6790  -28.5950 C.ar   38  TYR38      -0.0009
     73  CD2       -9.3860   20.6420  -27.4570 C.ar   38  TYR38      -0.0009
     74  CE1       -7.8840   22.9480  -27.6970 C.ar   38  TYR38       0.0417
     75  CE2       -8.3790   20.9130  -26.5360 C.ar   38  TYR38       0.0417
     76  CZ        -7.6470   22.0800  -26.6480 C.ar   38  TYR38       0.1957
     77  OH        -6.6360   22.3480  -25.7730 O.3    38  TYR38      -0.2866
     78  N        -12.3020   19.9080  -33.7430 N.3    41  LEU41      -0.1245
     79  CA       -11.7370   18.5610  -33.7800 C.3    41  LEU41       0.1561
     80  C        -12.7250   17.4470  -34.0120 C.2    41  LEU41       0.2260
     81  O        -12.2840   16.3030  -34.1560 O.2    41  LEU41      -0.2867
     82  CB       -10.9900   18.2570  -32.4560 C.3    41  LEU41       0.0270
     83  CG        -9.6040   18.8300  -32.2620 C.3    41  LEU41       0.0019
     84  CD1       -8.9870   18.2780  -30.9680 C.3    41  LEU41       0.0001
     85  CD2       -8.6980   18.5550  -33.4600 C.3    41  LEU41       0.0001
     86  N        -11.1550   13.7850  -34.4430 N.3    45  TYR45      -0.1241
     87  CA       -11.1020   13.1000  -33.1580 C.3    45  TYR45       0.1605
     88  C        -12.0210   11.8720  -33.0890 C.2    45  TYR45       0.2264
     89  O        -11.6180   10.8320  -32.5570 O.2    45  TYR45      -0.2867
     90  CB       -11.3710   14.0910  -32.0220 C.3    45  TYR45       0.0534
     91  CG       -11.3030   13.4860  -30.6440 C.ar   45  TYR45      -0.0201
     92  CD1      -10.1040   13.4410  -29.9410 C.ar   45  TYR45      -0.0009
     93  CD2      -12.4400   12.9720  -30.0320 C.ar   45  TYR45      -0.0009
     94  CE1      -10.0360   12.8900  -28.6570 C.ar   45  TYR45       0.0417
     95  CE2      -12.3860   12.4220  -28.7460 C.ar   45  TYR45       0.0417
     96  CZ       -11.1830   12.3870  -28.0640 C.ar   45  TYR45       0.1957
     97  OH       -11.1380   11.8490  -26.8080 O.3    45  TYR45      -0.2866
     98  N        -11.4020    7.4720  -21.0610 N.3    83  MET83      -0.1245
     99  CA       -10.8520    8.8260  -21.1320 C.3    83  MET83       0.1570
    100  C         -9.3490    8.7750  -21.3330 C.2    83  MET83       0.2261
    101  O         -8.8410    9.5100  -22.1630 O.2    83  MET83      -0.2867
    102  CB       -11.1260    9.5990  -19.8480 C.3    83  MET83       0.0387
    103  CG       -12.5790    9.7690  -19.5180 C.3    83  MET83       0.0595
    104  SD       -12.6720   10.6520  -17.9410 S.3    83  MET83      -0.1393
    105  CE       -14.1900    9.9600  -17.2760 C.3    83  MET83       0.0692
    106  N         -7.1200    9.5860  -24.8550 N.3    87  CYS87      -0.1235
    107  CA        -6.0610   10.5680  -24.7310 C.3    87  CYS87       0.1677
    108  C         -4.7310   10.0500  -25.3110 C.2    87  CYS87       0.2270
    109  O         -4.0680   10.7710  -26.0460 O.2    87  CYS87      -0.2867
    110  CB        -5.9160   11.0050  -23.2750 C.3    87  CYS87       0.0956
    111  SG        -4.7010   12.3190  -23.0300 S.3    87  CYS87      -0.0801
    112  N         -5.4190    9.3940  -29.3720 N.3    90  TYR90      -0.1227
    113  CA        -5.4810   10.6070  -30.1740 C.3    90  TYR90       0.1736
    114  C         -4.1880   11.4290  -30.1330 C.2    90  TYR90       0.2595
    115  O         -3.7300   11.8650  -31.1730 O.2    90  TYR90      -0.2718
    116  CB        -6.7080   11.4480  -29.8110 C.3    90  TYR90       0.0548
    117  CG        -6.8130   12.6830  -30.6630 C.ar   90  TYR90      -0.0200
    118  CD1       -7.2720   12.6120  -31.9800 C.ar   90  TYR90      -0.0009
    119  CD2       -6.3830   13.9210  -30.1830 C.ar   90  TYR90      -0.0009
    120  CE1       -7.2920   13.7410  -32.7960 C.ar   90  TYR90       0.0417
    121  CE2       -6.3920   15.0490  -30.9920 C.ar   90  TYR90       0.0417
    122  CZ        -6.8550   14.9560  -32.2910 C.ar   90  TYR90       0.1957
    123  OH        -6.8930   16.0920  -33.0430 O.3    90  TYR90      -0.2866
    124  N         -3.5840   11.6210  -28.9610 N.am   91  ASN91      -0.1974
    125  CA        -2.3810   12.4490  -28.8720 C.3    91  ASN91       0.1688
    126  C         -1.0510   11.7240  -29.1230 C.2    91  ASN91       0.2292
    127  O         -0.0700   12.3940  -29.4380 O.2    91  ASN91      -0.2864
    128  CB        -2.3570   13.1760  -27.5480 C.3    91  ASN91       0.1181
    129  CG        -3.5610   14.0650  -27.4070 C.2    91  ASN91       0.2629
    130  OD1       -3.7770   14.9750  -28.2050 O.2    91  ASN91      -0.2716
    131  ND2       -4.4190   13.7740  -26.4430 N.am   91  ASN91      -0.0877
    132  N          3.6390   11.6320  -26.2670 N.3    95  SER95      -0.1202
    133  CA         3.2820   13.0020  -25.8700 C.3    95  SER95       0.2020
    134  C          3.2440   13.1760  -24.3320 C.2    95  SER95       0.2619
    135  O          3.1940   12.1890  -23.5840 O.2    95  SER95      -0.2717
    136  CB         1.9280   13.4060  -26.4640 C.3    95  SER95       0.2103
    137  OG         0.8530   12.6800  -25.8890 O.3    95  SER95      -0.2182
    138  N          3.2340   14.4440  -23.8750 N.am   96  ALA96      -0.1965
    139  CA         3.0700   14.8310  -22.4810 C.3    96  ALA96       0.1728
    140  C          1.6350   14.4560  -22.0460 C.2    96  ALA96       0.2616
    141  O          1.4040   14.1870  -20.8720 O.2    96  ALA96      -0.2715
    142  CB         3.2630   16.3330  -22.3450 C.3    96  ALA96       0.0334
    143  N          0.6930   14.4030  -22.9950 N.am   97  TYR97      -0.1974
    144  CA        -0.6910   14.0200  -22.7360 C.3    97  TYR97       0.1639
    145  C         -0.7830   12.5740  -22.2590 C.2    97  TYR97       0.2290
    146  O         -1.5090   12.3070  -21.3140 O.2    97  TYR97      -0.2864
    147  CB        -1.5260   14.1880  -24.0030 C.3    97  TYR97       0.0560
    148  CG        -1.8050   15.6280  -24.3660 C.ar   97  TYR97      -0.0198
    149  CD1       -2.5540   16.4460  -23.5250 C.ar   97  TYR97      -0.0009
    150  CD2       -1.3930   16.1530  -25.5960 C.ar   97  TYR97      -0.0009
    151  CE1       -2.8830   17.7440  -23.8890 C.ar   97  TYR97       0.0417
    152  CE2       -1.7110   17.4590  -25.9660 C.ar   97  TYR97       0.0417
    153  CZ        -2.4780   18.2450  -25.1190 C.ar   97  TYR97       0.1957
    154  OH        -2.8000   19.5410  -25.4780 O.3    97  TYR97      -0.2866
    155  N          0.3780   12.3590  -18.6770 N.3   100  THR100     -0.1218
    156  CA        -0.7360   12.8760  -17.8770 C.3   100  THR100      0.1862
    157  C         -1.8590   11.8440  -17.7830 C.2   100  THR100      0.2287
    158  O         -2.2780   11.5530  -16.6850 O.2   100  THR100     -0.2866
    159  CB        -1.1880   14.2400  -18.4250 C.3   100  THR100      0.1770
    160  OG1       -0.0550   15.1100  -18.3310 O.3   100  THR100     -0.2211
    161  CG2       -2.3940   14.8390  -17.6530 C.3   100  THR100      0.0375
@<TRIPOS>BOND
     1    86    87    1
     2    81    80    2
     3    80    79    1
     4    79    78    1
     5    79    82    1
     6    85    83    1
     7    87    88    1
     8    87    90    1
     9    88    89    2
    10   123   122    1
    11   120   122   ar
    12   120   118   ar
    13    82    83    1
    14   122   121   ar
    15    83    84    1
    16    90    91    1
    17   118   117   ar
    18   115   114    2
    19   121   119   ar
    20    69    68    2
    21   117   119   ar
    22   117   116    1
    23    91    93   ar
    24    91    92   ar
    25    68    67    1
    26   113   114    1
    27   113   116    1
    28   113   112    1
    29   114   124   am
    30    93    95   ar
    31    92    94   ar
    32    70    67    1
    33    70    71    1
    34   127   126    2
    35    67    66    1
    36   126   125    1
    37   124   125    1
    38   125   128    1
    39    95    96   ar
    40    94    96   ar
    41    72    71   ar
    42    72    74   ar
    43    71    73   ar
    44   130   129    2
    45    96    97    1
    46    66    61   am
    47    74    76   ar
    48   128   129    1
    49    73    75   ar
    50    57    56    1
    51   129   131   am
    52    62    61    2
    53    55    54    2
    54    61    60    1
    55    54    53    1
    56    76    75   ar
    57    76    77    1
    58   136   137    1
    59   136   133    1
    60    56    53    1
    61    56    58    1
    62   132   133    1
    63   109   108    2
    64   152   150   ar
    65   152   153   ar
    66   133   134    1
    67    53    52    1
    68   150   148   ar
    69    60    59    1
    70    60    63    1
    71   154   153    1
    72   108   107    1
    73   153   151   ar
    74   106   107    1
    75    63    65    1
    76    63    64    1
    77   107   110    1
    78   148   147    1
    79   148   149   ar
    80   134   138   am
    81   134   135    2
    82   147   144    1
    83   151   149   ar
    84   138   139    1
    85   110   111    1
    86   143   144    1
    87   143   140   am
    88   144   145    1
    89   139   142    1
    90   139   140    1
    91   145   146    2
    92   101   100    2
    93   140   141    2
    94    48    47    2
    95   100    99    1
    96    47    46    1
    97    99    98    1
    98    99   102    1
    99    51    49    1
   100    28    26    1
   101    24    23    2
   102    25    27    1
   103    25    26    1
   104    25    22    1
   105    49    46    1
   106    49    50    1
   107    46    45    1
   108    37    35   ar
   109    37    39   ar
   110   102   103    1
   111   103   104    1
   112    23    22    1
   113    23    29   am
   114    35    34   ar
   115    22    21    1
   116    39    38   ar
   117    45    42   am
   118   155   156    1
   119   159   160    1
   120   159   156    1
   121   159   161    1
   122    30    29    1
   123    30    31    1
   124    30    33    1
   125    34    33    1
   126    34    36   ar
   127    21    13   am
   128    14    13    2
   129    38    36   ar
   130   104   105    1
   131    31    32    2
   132    31    40   am
   133   156   157    1
   134   157   158    2
   135    42    43    2
   136    42    41    1
   137     7     6   ar
   138     7     9   ar
   139     4     3    2
   140    40    41    1
   141    13    12    1
   142     5     6    1
   143     5     2    1
   144     6     8   ar
   145     9    10   ar
   146    41    44    1
   147     3     2    1
   148     3    11   am
   149    10     8   ar
   150     2     1    1
   151    12    11    1
   152    12    15    1
   153    15    16    1
   154    16    18   ar
   155    16    17   ar
   156    18    20   ar
   157    17    19   ar
   158    20    19   ar
