@<TRIPOS>MOLECULE
tmp/6bycA00.pdb
 142 149 0 0 0
SMALL
GASTEIGER

@<TRIPOS>ATOM
      1  N        -24.1470  -50.1280    2.0280 N.3   160  TYR160     -0.1241
      2  CA       -25.2690  -51.0370    2.3560 C.3   160  TYR160      0.1605
      3  C        -25.9030  -51.6550    1.1210 C.2   160  TYR160      0.2264
      4  O        -26.0630  -50.9780    0.0940 O.2   160  TYR160     -0.2867
      5  CB       -26.3640  -50.3020    3.1580 C.3   160  TYR160      0.0534
      6  CG       -25.9080  -50.0630    4.5600 C.ar  160  TYR160     -0.0201
      7  CD1      -25.9770  -51.0790    5.5130 C.ar  160  TYR160     -0.0009
      8  CD2      -25.3180  -48.8610    4.9180 C.ar  160  TYR160     -0.0009
      9  CE1      -25.5010  -50.8900    6.8050 C.ar  160  TYR160      0.0417
     10  CE2      -24.8420  -48.6610    6.2060 C.ar  160  TYR160      0.0417
     11  CZ       -24.9330  -49.6720    7.1400 C.ar  160  TYR160      0.1957
     12  OH       -24.4610  -49.4450    8.4140 O.3   160  TYR160     -0.2866
     13  N        -29.0410  -46.1310    4.7850 N.3   186  TRP186     -0.1227
     14  CA       -28.0680  -46.3660    5.8500 C.3   186  TRP186      0.1737
     15  C        -28.8040  -47.0730    6.9790 C.2   186  TRP186      0.2595
     16  O        -30.0030  -47.3290    6.8680 O.2   186  TRP186     -0.2718
     17  CB       -27.4410  -45.0430    6.3230 C.3   186  TRP186      0.0564
     18  CG       -26.0020  -45.1660    6.6420 C.ar  186  TRP186      0.0003
     19  CD1      -25.4410  -45.3650    7.8720 C.ar  186  TRP186      0.0946
     20  CD2      -24.9130  -45.1140    5.7020 C.ar  186  TRP186      0.0152
     21  NE1      -24.0590  -45.4320    7.7630 N.ar  186  TRP186     -0.2442
     22  CE2      -23.7120  -45.2700    6.4430 C.ar  186  TRP186      0.0810
     23  CE3      -24.8400  -44.9150    4.3180 C.ar  186  TRP186      0.0012
     24  CZ2      -22.4490  -45.2600    5.8390 C.ar  186  TRP186      0.0191
     25  CZ3      -23.5770  -44.9050    3.7090 C.ar  186  TRP186      0.0001
     26  CH2      -22.4030  -45.0780    4.4730 C.ar  186  TRP186      0.0015
     27  N        -28.1280  -47.4140    8.0660 N.am  187  ASP187     -0.1960
     28  CA       -28.8530  -48.2000    9.0730 C.3   187  ASP187      0.1840
     29  C        -29.7000  -47.3680   10.0630 C.2   187  ASP187      0.2622
     30  O        -30.1740  -47.9030   11.0550 O.2   187  ASP187     -0.2715
     31  CB       -27.8830  -49.1420    9.8290 C.3   187  ASP187      0.1450
     32  CG       -26.8150  -48.4150   10.6120 C.2   187  ASP187      0.3671
     33  OD1      -26.6520  -47.1760   10.4630 O.co2 187  ASP187     -0.2456
     34  OD2      -26.1260  -49.1060   11.3910 O.co2 187  ASP187     -0.2456
     35  N        -29.9220  -46.0860    9.7640 N.am  188  TRP188     -0.1974
     36  CA       -30.8950  -45.2520   10.4810 C.3   188  TRP188      0.1640
     37  C        -31.7480  -44.4460    9.5040 C.2   188  TRP188      0.2290
     38  O        -32.4100  -43.5050    9.9110 O.2   188  TRP188     -0.2864
     39  CB       -30.1900  -44.2770   11.4450 C.3   188  TRP188      0.0576
     40  CG       -28.8720  -43.8000   10.9010 C.ar  188  TRP188      0.0006
     41  CD1      -27.6430  -44.1160   11.3820 C.ar  188  TRP188      0.0946
     42  CD2      -28.6420  -42.9250    9.7610 C.ar  188  TRP188      0.0152
     43  NE1      -26.6640  -43.5260   10.6250 N.ar  188  TRP188     -0.2442
     44  CE2      -27.2460  -42.7910    9.6240 C.ar  188  TRP188      0.0810
     45  CE3      -29.4750  -42.2940    8.8310 C.ar  188  TRP188      0.0012
     46  CZ2      -26.6620  -42.0190    8.6270 C.ar  188  TRP188      0.0191
     47  CZ3      -28.8970  -41.5460    7.8220 C.ar  188  TRP188      0.0001
     48  CH2      -27.5040  -41.3980    7.7320 C.ar  188  TRP188      0.0015
     49  N        -20.5520  -35.7760    9.6820 N.3   382  TRP382     -0.1241
     50  CA       -20.1420  -37.0840    9.1780 C.3   382  TRP382      0.1605
     51  C        -20.1240  -37.2500    7.6400 C.2   382  TRP382      0.2264
     52  O        -21.0320  -36.7930    6.9330 O.2   382  TRP382     -0.2867
     53  CB       -21.0800  -38.0970    9.8440 C.3   382  TRP382      0.0550
     54  CG       -21.2070  -39.4550    9.2790 C.ar  382  TRP382      0.0003
     55  CD1      -20.4370  -40.5550    9.5670 C.ar  382  TRP382      0.0946
     56  CD2      -22.2520  -39.9050    8.4330 C.ar  382  TRP382      0.0152
     57  NE1      -20.9250  -41.6590    8.8940 N.ar  382  TRP382     -0.2442
     58  CE2      -22.0380  -41.2840    8.1900 C.ar  382  TRP382      0.0810
     59  CE3      -23.3430  -39.2710    7.8260 C.ar  382  TRP382      0.0012
     60  CZ2      -22.8870  -42.0410    7.3840 C.ar  382  TRP382      0.0191
     61  CZ3      -24.1890  -40.0250    7.0270 C.ar  382  TRP382      0.0001
     62  CH2      -23.9550  -41.3970    6.8170 C.ar  382  TRP382      0.0015
     63  N        -17.5030  -49.4440   18.8960 N.3   524  TRP524     -0.1241
     64  CA       -18.7750  -50.0570   18.5580 C.3   524  TRP524      0.1605
     65  C        -18.9230  -51.5210   19.0100 C.2   524  TRP524      0.2264
     66  O        -19.8040  -52.2260   18.5300 O.2   524  TRP524     -0.2867
     67  CB       -18.9780  -49.9570   17.0370 C.3   524  TRP524      0.0550
     68  CG       -19.4780  -48.6190   16.5960 C.ar  524  TRP524      0.0003
     69  CD1      -18.8220  -47.7070   15.7960 C.ar  524  TRP524      0.0946
     70  CD2      -20.7220  -48.0220   16.9490 C.ar  524  TRP524      0.0152
     71  NE1      -19.6070  -46.5810   15.6240 N.ar  524  TRP524     -0.2442
     72  CE2      -20.7900  -46.7700   16.2980 C.ar  524  TRP524      0.0810
     73  CE3      -21.8220  -48.4490   17.7140 C.ar  524  TRP524      0.0012
     74  CZ2      -21.8930  -45.9310   16.4160 C.ar  524  TRP524      0.0191
     75  CZ3      -22.9180  -47.6110   17.8240 C.ar  524  TRP524      0.0001
     76  CH2      -22.9510  -46.3710   17.1590 C.ar  524  TRP524      0.0015
     77  N        -23.2260  -52.0270   21.5760 N.3   527  TRP527     -0.1227
     78  CA       -24.2450  -52.0070   20.5180 C.3   527  TRP527      0.1737
     79  C        -23.9230  -52.9490   19.3750 C.2   527  TRP527      0.2596
     80  O        -24.7150  -53.8690   19.0920 O.2   527  TRP527     -0.2718
     81  CB       -24.5240  -50.6070   19.9190 C.3   527  TRP527      0.0564
     82  CG       -25.6280  -50.8000   18.9470 C.ar  527  TRP527      0.0003
     83  CD1      -25.5280  -50.9370   17.5920 C.ar  527  TRP527      0.0946
     84  CD2      -27.0190  -50.9820   19.2750 C.ar  527  TRP527      0.0152
     85  NE1      -26.7790  -51.2050   17.0490 N.ar  527  TRP527     -0.2442
     86  CE2      -27.7090  -51.2270   18.0600 C.ar  527  TRP527      0.0810
     87  CE3      -27.7450  -50.9390   20.4720 C.ar  527  TRP527      0.0012
     88  CZ2      -29.0980  -51.4260   18.0110 C.ar  527  TRP527      0.0191
     89  CZ3      -29.1520  -51.1630   20.4330 C.ar  527  TRP527      0.0001
     90  CH2      -29.8010  -51.3880   19.2090 C.ar  527  TRP527      0.0015
     91  N        -22.8020  -52.7020   18.6900 N.am  528  GLY528     -0.1957
     92  CA       -22.4000  -53.5370   17.5650 C.3   528  GLY528      0.1869
     93  C        -21.5450  -54.7420   17.9260 C.2   528  GLY528      0.2309
     94  O        -21.2650  -54.9790   19.0920 O.2   528  GLY528     -0.2863
     95  N        -16.7640  -41.6420   17.7750 N.3   547  GLU547     -0.1245
     96  CA       -18.0850  -42.2780   17.7080 C.3   547  GLU547      0.1567
     97  C        -18.2580  -43.3420   18.7990 C.2   547  GLU547      0.2260
     98  O        -17.3040  -44.0210   19.1590 O.2   547  GLU547     -0.2867
     99  CB       -18.3380  -42.9660   16.3620 C.3   547  GLU547      0.0388
    100  CG       -18.5070  -42.0550   15.1460 C.3   547  GLU547      0.1160
    101  CD       -19.0040  -42.8520   13.9540 C.2   547  GLU547      0.3649
    102  OE1      -19.4530  -44.0030   14.1680 O.co2 547  GLU547     -0.2457
    103  OE2      -18.9220  -42.3610   12.8140 O.co2 547  GLU547     -0.2457
    104  N        -31.4450  -51.0890   11.6100 N.3   581  PHE581     -0.1241
    105  CA       -30.2330  -51.8160   12.0330 C.3   581  PHE581      0.1605
    106  C        -30.2940  -53.2920   11.6760 C.2   581  PHE581      0.2264
    107  O        -31.3270  -53.9200   11.7960 O.2   581  PHE581     -0.2867
    108  CB       -29.9690  -51.6960   13.5380 C.3   581  PHE581      0.0534
    109  CG       -28.6800  -52.3690   13.9740 C.ar  581  PHE581     -0.0203
    110  CD1      -27.4490  -51.8520   13.5820 C.ar  581  PHE581     -0.0042
    111  CD2      -28.6960  -53.4990   14.7680 C.ar  581  PHE581     -0.0042
    112  CE1      -26.2470  -52.4620   13.9620 C.ar  581  PHE581     -0.0003
    113  CE2      -27.4980  -54.1220   15.1620 C.ar  581  PHE581     -0.0003
    114  CZ       -26.2670  -53.5950   14.7550 C.ar  581  PHE581     -0.0000
    115  N        -22.4810  -41.0510   18.7720 N.3   639  TRP639     -0.1241
    116  CA       -23.3070  -41.3060   17.6040 C.3   639  TRP639      0.1605
    117  C        -24.7480  -41.4780   18.0910 C.2   639  TRP639      0.2264
    118  O        -24.9950  -42.4510   18.7910 O.2   639  TRP639     -0.2867
    119  CB       -22.8380  -42.5840   16.8500 C.3   639  TRP639      0.0550
    120  CG       -23.5710  -42.6840   15.5790 C.ar  639  TRP639      0.0003
    121  CD1      -24.7700  -43.3180   15.3470 C.ar  639  TRP639      0.0946
    122  CD2      -23.1880  -42.0740   14.3530 C.ar  639  TRP639      0.0152
    123  NE1      -25.1390  -43.1450   14.0290 N.ar  639  TRP639     -0.2442
    124  CE2      -24.1950  -42.3580   13.4070 C.ar  639  TRP639      0.0810
    125  CE3      -22.0900  -41.3030   13.9650 C.ar  639  TRP639      0.0012
    126  CZ2      -24.1420  -41.8780   12.0960 C.ar  639  TRP639      0.0191
    127  CZ3      -22.0210  -40.8600   12.6560 C.ar  639  TRP639      0.0001
    128  CH2      -23.0550  -41.1370   11.7370 C.ar  639  TRP639      0.0015
    129  N        -29.8010  -43.8750   16.7000 N.3   650  TRP650     -0.1241
    130  CA       -28.9340  -43.6100   17.8350 C.3   650  TRP650      0.1605
    131  C        -29.0290  -42.1300   18.2230 C.2   650  TRP650      0.2264
    132  O        -28.2300  -41.6320   19.0090 O.2   650  TRP650     -0.2867
    133  CB       -27.4920  -44.0290   17.4920 C.3   650  TRP650      0.0550
    134  CG       -27.3480  -45.5110   17.1790 C.ar  650  TRP650      0.0003
    135  CD1      -26.8300  -46.4920   17.9970 C.ar  650  TRP650      0.0946
    136  CD2      -27.7050  -46.1700   15.9510 C.ar  650  TRP650      0.0152
    137  NE1      -26.8550  -47.7090   17.3520 N.ar  650  TRP650     -0.2442
    138  CE2      -27.3980  -47.5390   16.1020 C.ar  650  TRP650      0.0810
    139  CE3      -28.2630  -45.7280   14.7400 C.ar  650  TRP650      0.0012
    140  CZ2      -27.6280  -48.4690   15.0920 C.ar  650  TRP650      0.0191
    141  CZ3      -28.4900  -46.6550   13.7260 C.ar  650  TRP650      0.0001
    142  CH2      -28.1820  -48.0110   13.9100 C.ar  650  TRP650      0.0015
@<TRIPOS>BOND
     1     4     3    2
     2     3     2    1
     3     1     2    1
     4     2     5    1
     5     5     6    1
     6    25    23   ar
     7    25    26   ar
     8    23    20   ar
     9    26    24   ar
    10     6     8   ar
    11     6     7   ar
    12    13    14    1
    13     8    10   ar
    14     7     9   ar
    15    20    22   ar
    16    20    18   ar
    17    24    22   ar
    18    14    17    1
    19    14    15    1
    20    10    11   ar
    21    17    18    1
    22    22    21   ar
    23    18    19   ar
    24     9    11   ar
    25    62    61   ar
    26    62    60   ar
    27    16    15    2
    28    52    51    2
    29    15    27   am
    30    61    59   ar
    31    11    12    1
    32    60    58   ar
    33    51    50    1
    34    48    47   ar
    35    48    46   ar
    36    21    19   ar
    37    47    45   ar
    38    59    56   ar
    39    27    28    1
    40    58    56   ar
    41    58    57   ar
    42    56    54   ar
    43    46    44   ar
    44    45    42   ar
    45    57    55   ar
    46    28    31    1
    47    28    29    1
    48    50    49    1
    49    50    53    1
    50    54    55   ar
    51    54    53    1
    52    37    38    2
    53    37    36    1
    54    44    42   ar
    55    44    43   ar
    56    42    40   ar
    57    35    29   am
    58    35    36    1
    59    31    32    1
    60    29    30    2
    61    33    32   ar
    62    36    39    1
    63    32    34   ar
    64    43    41   ar
    65    40    41   ar
    66    40    39    1
    67   104   105    1
    68   106   107    2
    69   106   105    1
    70   128   126   ar
    71   128   127   ar
    72   105   108    1
    73   126   124   ar
    74   127   125   ar
    75   103   101   ar
    76   124   123   ar
    77   124   122   ar
    78   108   109    1
    79   110   112   ar
    80   110   109   ar
    81   141   142   ar
    82   141   139   ar
    83   142   140   ar
    84   101   102   ar
    85   101   100    1
    86   112   114   ar
    87   125   122   ar
    88   109   111   ar
    89   123   121   ar
    90   122   120   ar
    91   139   136   ar
    92   114   113   ar
    93   111   113   ar
    94   140   138   ar
    95   100    99    1
    96   121   120   ar
    97   120   119    1
    98    71    69   ar
    99    71    72   ar
   100    69    68   ar
   101   136   138   ar
   102   136   134   ar
   103   138   137   ar
   104    72    74   ar
   105    72    70   ar
   106    99    96    1
   107    74    76   ar
   108    68    70   ar
   109    68    67    1
   110   129   130    1
   111   119   116    1
   112    70    73   ar
   113    67    64    1
   114    85    83   ar
   115    85    86   ar
   116    76    75   ar
   117   134   133    1
   118   134   135   ar
   119   137   135   ar
   120   133   130    1
   121    92    93    1
   122    92    91    1
   123    83    82   ar
   124   116   117    1
   125   116   115    1
   126    96    95    1
   127    96    97    1
   128    73    75   ar
   129   130   131    1
   130    93    94    2
   131    88    86   ar
   132    88    90   ar
   133    86    84   ar
   134   117   118    2
   135   131   132    2
   136    66    65    2
   137    64    63    1
   138    64    65    1
   139    91    79   am
   140    97    98    2
   141    82    84   ar
   142    82    81    1
   143    80    79    2
   144    90    89   ar
   145    84    87   ar
   146    79    78    1
   147    81    78    1
   148    89    87   ar
   149    78    77    1
