@<TRIPOS>MOLECULE
tmp/6byeB00.pdb
 169 176 0 0 0
SMALL
GASTEIGER

@<TRIPOS>ATOM
      1  N         -4.9040  -21.1960   47.5270 N.3   160  TYR160     -0.1241
      2  CA        -5.4920  -21.8770   48.6730 C.3   160  TYR160      0.1605
      3  C         -6.3940  -20.9800   49.5150 C.2   160  TYR160      0.2264
      4  O         -6.1090  -19.8010   49.7310 O.2   160  TYR160     -0.2867
      5  CB        -4.3850  -22.4740   49.5440 C.3   160  TYR160      0.0534
      6  CG        -3.7440  -23.6860   48.9110 C.ar  160  TYR160     -0.0201
      7  CD1       -4.3130  -24.9470   49.0470 C.ar  160  TYR160     -0.0009
      8  CD2       -2.5860  -23.5660   48.1530 C.ar  160  TYR160     -0.0009
      9  CE1       -3.7380  -26.0570   48.4590 C.ar  160  TYR160      0.0417
     10  CE2       -2.0040  -24.6710   47.5600 C.ar  160  TYR160      0.0417
     11  CZ        -2.5830  -25.9140   47.7170 C.ar  160  TYR160      0.1957
     12  OH        -2.0080  -27.0170   47.1290 O.3   160  TYR160     -0.2866
     13  N          0.2200  -22.7580   51.8490 N.3   186  TRP186     -0.1227
     14  CA         0.2720  -23.7810   50.8130 C.3   186  TRP186      0.1737
     15  C          0.0650  -25.1330   51.4900 C.2   186  TRP186      0.2595
     16  O         -0.0920  -25.1910   52.7090 O.2   186  TRP186     -0.2718
     17  CB         1.6040  -23.7250   50.0580 C.3   186  TRP186      0.0564
     18  CG         1.4700  -24.0050   48.5880 C.ar  186  TRP186      0.0003
     19  CD1        1.6780  -25.1950   47.9530 C.ar  186  TRP186      0.0946
     20  CD2        1.0940  -23.0680   47.5690 C.ar  186  TRP186      0.0152
     21  NE1        1.4530  -25.0580   46.6030 N.ar  186  TRP186     -0.2442
     22  CE2        1.0930  -23.7610   46.3420 C.ar  186  TRP186      0.0810
     23  CE3        0.7560  -21.7100   47.5750 C.ar  186  TRP186      0.0012
     24  CZ2        0.7690  -23.1440   45.1340 C.ar  186  TRP186      0.0191
     25  CZ3        0.4340  -21.0980   46.3740 C.ar  186  TRP186      0.0001
     26  CH2        0.4440  -21.8150   45.1710 C.ar  186  TRP186      0.0015
     27  N          0.0640  -26.2180   50.7220 N.am  187  ASP187     -0.1960
     28  CA        -0.2130  -27.5300   51.3060 C.3   187  ASP187      0.1840
     29  C          1.0130  -28.1750   51.9540 C.2   187  ASP187      0.2622
     30  O          1.0000  -29.3640   52.2720 O.2   187  ASP187     -0.2715
     31  CB        -0.8180  -28.4700   50.2540 C.3   187  ASP187      0.1450
     32  CG         0.1260  -28.7630   49.1010 C.2   187  ASP187      0.3671
     33  OD1        1.2170  -28.1600   49.0350 O.co2 187  ASP187     -0.2456
     34  OD2       -0.2360  -29.6020   48.2480 O.co2 187  ASP187     -0.2456
     35  N          2.0660  -27.3860   52.1500 N.am  188  TRP188     -0.1974
     36  CA         3.2050  -27.8090   52.9600 C.3   188  TRP188      0.1640
     37  C          3.7620  -26.6840   53.8280 C.2   188  TRP188      0.2290
     38  O          4.8560  -26.8070   54.3780 O.2   188  TRP188     -0.2864
     39  CB         4.3220  -28.3560   52.0700 C.3   188  TRP188      0.0576
     40  CG         4.4670  -27.6220   50.7690 C.ar  188  TRP188      0.0006
     41  CD1        4.2410  -28.1270   49.5230 C.ar  188  TRP188      0.0946
     42  CD2        4.8310  -26.2450   50.5840 C.ar  188  TRP188      0.0152
     43  NE1        4.4600  -27.1600   48.5730 N.ar  188  TRP188     -0.2442
     44  CE2        4.8200  -25.9950   49.1990 C.ar  188  TRP188      0.0810
     45  CE3        5.1700  -25.2020   51.4530 C.ar  188  TRP188      0.0012
     46  CZ2        5.1330  -24.7500   48.6630 C.ar  188  TRP188      0.0191
     47  CZ3        5.4790  -23.9650   50.9180 C.ar  188  TRP188      0.0001
     48  CH2        5.4620  -23.7500   49.5370 C.ar  188  TRP188      0.0015
     49  N         10.6830  -23.2420   42.0680 N.3   382  TRP382     -0.1241
     50  CA         9.2440  -23.2390   41.8330 C.3   382  TRP382      0.1605
     51  C          8.6080  -21.8530   41.9790 C.2   382  TRP382      0.2264
     52  O          8.9250  -21.0990   42.8980 O.2   382  TRP382     -0.2867
     53  CB         8.6150  -24.2690   42.7790 C.3   382  TRP382      0.0550
     54  CG         7.1460  -24.1950   43.0050 C.ar  382  TRP382      0.0003
     55  CD1        6.1660  -24.7260   42.2200 C.ar  382  TRP382      0.0946
     56  CD2        6.4890  -23.6540   44.1570 C.ar  382  TRP382      0.0152
     57  NE1        4.9330  -24.5000   42.7840 N.ar  382  TRP382     -0.2442
     58  CE2        5.1050  -23.8470   43.9760 C.ar  382  TRP382      0.0810
     59  CE3        6.9350  -23.0020   45.3110 C.ar  382  TRP382      0.0012
     60  CZ2        4.1640  -23.4120   44.9060 C.ar  382  TRP382      0.0191
     61  CZ3        6.0000  -22.5740   46.2340 C.ar  382  TRP382      0.0001
     62  CH2        4.6290  -22.7800   46.0260 C.ar  382  TRP382      0.0015
     63  N          4.2530  -21.7840   37.2680 N.3   448  ASN448     -0.1225
     64  CA         3.9230  -23.1410   37.6680 C.3   448  ASN448      0.1785
     65  C          2.4400  -23.4590   37.4640 C.2   448  ASN448      0.2597
     66  O          1.5780  -22.8280   38.0710 O.2   448  ASN448     -0.2718
     67  CB         4.3050  -23.3580   39.1330 C.3   448  ASN448      0.1169
     68  CG         3.7980  -24.6740   39.6780 C.2   448  ASN448      0.2627
     69  OD1        4.3380  -25.7340   39.3660 O.2   448  ASN448     -0.2716
     70  ND2        2.7590  -24.6140   40.5070 N.am  448  ASN448     -0.0877
     71  N          2.1630  -24.4220   36.5870 N.am  449  GLU449     -0.1979
     72  CA         0.8540  -25.0770   36.4840 C.3   449  GLU449      0.1602
     73  C         -0.3640  -24.2280   36.0980 C.2   449  GLU449      0.2287
     74  O         -1.4950  -24.6910   36.2430 O.2   449  GLU449     -0.2864
     75  CB         0.5350  -25.7760   37.8070 C.3   449  GLU449      0.0415
     76  CG         1.3310  -27.0400   38.0390 C.3   449  GLU449      0.1163
     77  CD         1.1370  -27.6010   39.4330 C.2   449  GLU449      0.3649
     78  OE1        0.6490  -26.8580   40.3110 O.co2 449  GLU449     -0.2457
     79  OE2        1.4650  -28.7880   39.6470 O.co2 449  GLU449     -0.2457
     80  N         -7.9170  -28.7940   36.0180 N.3   457  TRP457     -0.1241
     81  CA        -8.4850  -28.6820   37.3640 C.3   457  TRP457      0.1605
     82  C         -9.9720  -28.3460   37.3140 C.2   457  TRP457      0.2264
     83  O        -10.3910  -27.4360   36.5990 O.2   457  TRP457     -0.2867
     84  CB        -7.7420  -27.6340   38.1980 C.3   457  TRP457      0.0550
     85  CG        -6.2980  -27.9540   38.4430 C.ar  457  TRP457      0.0003
     86  CD1       -5.6550  -29.1250   38.1610 C.ar  457  TRP457      0.0946
     87  CD2       -5.3180  -27.0910   39.0330 C.ar  457  TRP457      0.0152
     88  NE1       -4.3350  -29.0420   38.5340 N.ar  457  TRP457     -0.2442
     89  CE2       -4.1020  -27.8020   39.0700 C.ar  457  TRP457      0.0810
     90  CE3       -5.3490  -25.7830   39.5260 C.ar  457  TRP457      0.0012
     91  CZ2       -2.9290  -27.2500   39.5810 C.ar  457  TRP457      0.0191
     92  CZ3       -4.1840  -25.2370   40.0350 C.ar  457  TRP457      0.0001
     93  CH2       -2.9910  -25.9700   40.0590 C.ar  457  TRP457      0.0015
     94  N          0.7560  -36.3220   39.2690 N.3   524  TRP524     -0.1241
     95  CA         0.2460  -36.3520   40.6310 C.3   524  TRP524      0.1605
     96  C         -0.9440  -37.2990   40.7660 C.2   524  TRP524      0.2264
     97  O         -1.7460  -37.1640   41.6850 O.2   524  TRP524     -0.2867
     98  CB        -0.1370  -34.9410   41.0840 C.3   524  TRP524      0.0550
     99  CG         1.0540  -34.0820   41.4060 C.ar  524  TRP524      0.0003
    100  CD1        1.5580  -33.0630   40.6510 C.ar  524  TRP524      0.0946
    101  CD2        1.8900  -34.1710   42.5680 C.ar  524  TRP524      0.0152
    102  NE1        2.6570  -32.5130   41.2680 N.ar  524  TRP524     -0.2442
    103  CE2        2.8810  -33.1750   42.4460 C.ar  524  TRP524      0.0810
    104  CE3        1.8970  -34.9970   43.6960 C.ar  524  TRP524      0.0012
    105  CZ2        3.8660  -32.9810   43.4130 C.ar  524  TRP524      0.0191
    106  CZ3        2.8790  -34.8040   44.6540 C.ar  524  TRP524      0.0001
    107  CH2        3.8480  -33.8020   44.5070 C.ar  524  TRP524      0.0015
    108  N         -0.1360  -40.1480   44.8310 N.3   527  TRP527     -0.1241
    109  CA        -0.3960  -39.2230   45.9410 C.3   527  TRP527      0.1605
    110  C         -1.6990  -38.4410   45.7870 C.2   527  TRP527      0.2264
    111  O         -2.6050  -38.5760   46.6100 O.2   527  TRP527     -0.2867
    112  CB         0.7440  -38.2240   46.1640 C.3   527  TRP527      0.0550
    113  CG         0.4120  -37.3540   47.3200 C.ar  527  TRP527      0.0003
    114  CD1       -0.0970  -36.0890   47.2850 C.ar  527  TRP527      0.0946
    115  CD2        0.4580  -37.7310   48.6970 C.ar  527  TRP527      0.0152
    116  NE1       -0.3250  -35.6380   48.5640 N.ar  527  TRP527     -0.2442
    117  CE2        0.0050  -36.6310   49.4490 C.ar  527  TRP527      0.0810
    118  CE3        0.8580  -38.8890   49.3700 C.ar  527  TRP527      0.0012
    119  CZ2       -0.0540  -36.6520   50.8390 C.ar  527  TRP527      0.0191
    120  CZ3        0.7980  -38.9100   50.7480 C.ar  527  TRP527      0.0001
    121  CH2        0.3430  -37.8000   51.4690 C.ar  527  TRP527      0.0015
    122  N          7.6280  -32.5930   37.9470 N.3   547  GLU547     -0.1245
    123  CA         7.0700  -32.7610   39.2890 C.3   547  GLU547      0.1567
    124  C          6.4590  -34.1390   39.5120 C.2   547  GLU547      0.2260
    125  O          5.8090  -34.6930   38.6270 O.2   547  GLU547     -0.2867
    126  CB         5.9980  -31.7080   39.5820 C.3   547  GLU547      0.0388
    127  CG         6.5080  -30.3620   40.0560 C.3   547  GLU547      0.1160
    128  CD         5.3840  -29.4760   40.5490 C.2   547  GLU547      0.3649
    129  OE1        4.3240  -30.0290   40.9100 O.co2 547  GLU547     -0.2457
    130  OE2        5.5580  -28.2390   40.5760 O.co2 547  GLU547     -0.2457
    131  N         -1.7750  -30.8020   53.8350 N.3   581  PHE581     -0.1241
    132  CA        -2.4430  -31.3690   52.6650 C.3   581  PHE581      0.1605
    133  C         -3.9250  -31.6110   52.9500 C.2   581  PHE581      0.2264
    134  O         -4.2900  -32.0300   54.0480 O.2   581  PHE581     -0.2867
    135  CB        -1.7780  -32.6730   52.2210 C.3   581  PHE581      0.0534
    136  CG        -2.3980  -33.2760   50.9880 C.ar  581  PHE581     -0.0203
    137  CD1       -2.3650  -32.5980   49.7790 C.ar  581  PHE581     -0.0042
    138  CD2       -3.0230  -34.5120   51.0390 C.ar  581  PHE581     -0.0042
    139  CE1       -2.9350  -33.1430   48.6420 C.ar  581  PHE581     -0.0003
    140  CE2       -3.5980  -35.0620   49.9060 C.ar  581  PHE581     -0.0003
    141  CZ        -3.5540  -34.3760   48.7060 C.ar  581  PHE581     -0.0000
    142  N          9.1210  -33.5950   43.5540 N.3   639  TRP639     -0.1241
    143  CA         8.5980  -32.6730   44.5480 C.3   639  TRP639      0.1605
    144  C          8.6880  -33.3330   45.9190 C.2   639  TRP639      0.2264
    145  O          8.1150  -34.4040   46.1150 O.2   639  TRP639     -0.2867
    146  CB         7.1490  -32.3000   44.2300 C.3   639  TRP639      0.0550
    147  CG         6.6630  -31.1830   45.0690 C.ar  639  TRP639      0.0003
    148  CD1        6.0890  -31.2710   46.3010 C.ar  639  TRP639      0.0946
    149  CD2        6.7200  -29.7920   44.7480 C.ar  639  TRP639      0.0152
    150  NE1        5.7860  -30.0160   46.7690 N.ar  639  TRP639     -0.2442
    151  CE2        6.1640  -29.0900   45.8320 C.ar  639  TRP639      0.0810
    152  CE3        7.1810  -29.0710   43.6440 C.ar  639  TRP639      0.0012
    153  CZ2        6.0620  -27.7010   45.8480 C.ar  639  TRP639      0.0191
    154  CZ3        7.0840  -27.6910   43.6620 C.ar  639  TRP639      0.0001
    155  CH2        6.5260  -27.0220   44.7560 C.ar  639  TRP639      0.0015
    156  N          6.5660  -33.1320   51.1790 N.3   650  TRP650     -0.1241
    157  CA         7.1380  -34.0170   50.1740 C.3   650  TRP650      0.1605
    158  C          8.6540  -33.8520   50.0720 C.2   650  TRP650      0.2264
    159  O          9.2710  -34.3390   49.1260 O.2   650  TRP650     -0.2867
    160  CB         6.5010  -33.7580   48.8070 C.3   650  TRP650      0.0550
    161  CG         5.0150  -33.9700   48.7650 C.ar  650  TRP650      0.0003
    162  CD1        4.3570  -35.0420   48.2350 C.ar  650  TRP650      0.0946
    163  CD2        3.9990  -33.0690   49.2370 C.ar  650  TRP650      0.0152
    164  NE1        2.9990  -34.8770   48.3660 N.ar  650  TRP650     -0.2442
    165  CE2        2.7540  -33.6790   48.9720 C.ar  650  TRP650      0.0810
    166  CE3        4.0220  -31.8180   49.8590 C.ar  650  TRP650      0.0012
    167  CZ2        1.5450  -33.0720   49.3140 C.ar  650  TRP650      0.0191
    168  CZ3        2.8200  -31.2220   50.1950 C.ar  650  TRP650      0.0001
    169  CH2        1.5980  -31.8500   49.9220 C.ar  650  TRP650      0.0015
@<TRIPOS>BOND
     1    80    81    1
     2    73    74    2
     3    73    72    1
     4    72    71    1
     5    72    75    1
     6    71    65   am
     7    83    82    2
     8    63    64    1
     9    82    81    1
    10    81    84    1
    11    65    64    1
    12    65    66    2
    13    64    67    1
    14    75    76    1
    15   122   123    1
    16    76    77    1
    17    86    85   ar
    18    86    88   ar
    19    84    85    1
    20    85    87   ar
    21    88    89   ar
    22   125   124    2
    23    87    89   ar
    24    87    90   ar
    25    89    91   ar
    26    67    68    1
    27    94    95    1
    28   123   124    1
    29   123   126    1
    30    69    68    2
    31    77    79   ar
    32    77    78   ar
    33    90    92   ar
    34    91    93   ar
    35   126   127    1
    36    68    70   am
    37    92    93   ar
    38   127   128    1
    39   128   130   ar
    40   128   129   ar
    41    95    96    1
    42    95    98    1
    43   100   102   ar
    44   100    99   ar
    45    96    97    2
    46    98    99    1
    47   102   103   ar
    48    99   101   ar
    49    50    51    1
    50    50    49    1
    51    50    53    1
    52    51    52    2
    53    55    57   ar
    54    55    54   ar
    55   103   101   ar
    56   103   105   ar
    57   101   104   ar
    58    53    54    1
    59    57    58   ar
    60    54    56   ar
    61   105   107   ar
    62   142   143    1
    63   152   154   ar
    64   152   149   ar
    65   154   155   ar
    66   104   106   ar
    67    58    56   ar
    68    58    60   ar
    69    56    59   ar
    70   146   143    1
    71   146   147    1
    72   107   106   ar
    73   143   144    1
    74   149   147   ar
    75   149   151   ar
    76   155   153   ar
    77   108   109    1
    78    60    62   ar
    79   147   148   ar
    80    24    26   ar
    81    24    22   ar
    82    26    25   ar
    83    59    61   ar
    84   110   109    1
    85   110   111    2
    86   151   153   ar
    87   151   150   ar
    88   144   145    2
    89   109   112    1
    90    62    61   ar
    91   112   113    1
    92   148   150   ar
    93    22    21   ar
    94    22    20   ar
    95    25    23   ar
    96    21    19   ar
    97    12    11    1
    98   114   113   ar
    99   114   116   ar
   100   113   115   ar
   101     1     2    1
   102    10    11   ar
   103    10     8   ar
   104    20    23   ar
   105    20    18   ar
   106    11     9   ar
   107    19    18   ar
   108     8     6   ar
   109   162   164   ar
   110   162   161   ar
   111    34    32   ar
   112   164   165   ar
   113     9     7   ar
   114   116   117   ar
   115    43    44   ar
   116    43    41   ar
   117    18    17    1
   118   139   141   ar
   119   139   137   ar
   120    46    44   ar
   121    46    48   ar
   122     2     3    1
   123     2     5    1
   124   115   118   ar
   125   115   117   ar
   126   141   140   ar
   127   161   160    1
   128   161   163   ar
   129   160   157    1
   130     6     7   ar
   131     6     5    1
   132   165   163   ar
   133   165   167   ar
   134    33    32   ar
   135    32    31    1
   136   159   158    2
   137    44    42   ar
   138   163   166   ar
   139   167   169   ar
   140   118   120   ar
   141   117   119   ar
   142     3     4    2
   143    41    40   ar
   144    48    47   ar
   145   137   136   ar
   146   166   168   ar
   147   140   138   ar
   148   169   168   ar
   149    17    14    1
   150   158   157    1
   151   157   156    1
   152    31    28    1
   153    42    40   ar
   154    42    45   ar
   155    27    28    1
   156    27    15   am
   157   120   121   ar
   158    40    39    1
   159    14    15    1
   160    14    13    1
   161   119   121   ar
   162    47    45   ar
   163   136   138   ar
   164   136   135    1
   165    28    29    1
   166    15    16    2
   167    29    35   am
   168    29    30    2
   169    39    36    1
   170    35    36    1
   171   135   132    1
   172   132   133    1
   173   132   131    1
   174   133   134    2
   175    36    37    1
   176    37    38    2
