@<TRIPOS>MOLECULE
tmp/6bykB01.pdb
 111 103 0 0 0
SMALL
GASTEIGER

@<TRIPOS>ATOM
      1  N        -28.4460  -39.6380   -4.7240 N.3    45  SER45      -0.1217
      2  CA       -27.2580  -39.0320   -5.3140 C.3    45  SER45       0.1889
      3  C        -26.1330  -40.0480   -5.4780 C.2    45  SER45       0.2288
      4  O        -25.6050  -40.2320   -6.5730 O.2    45  SER45      -0.2866
      5  CB       -26.7860  -37.8610   -4.4480 C.3    45  SER45       0.2089
      6  OG       -25.5780  -37.3060   -4.9370 O.3    45  SER45      -0.2183
      7  N        -24.8900  -41.8790   -9.0480 N.3    49  LYS49      -0.1245
      8  CA       -23.5320  -41.4540   -9.3540 C.3    49  LYS49       0.1561
      9  C        -22.6710  -42.6650   -9.6820 C.2    49  LYS49       0.2260
     10  O        -21.9230  -42.6600  -10.6560 O.2    49  LYS49      -0.2867
     11  CB       -22.9180  -40.6690   -8.1930 C.3    49  LYS49       0.0271
     12  CG       -21.4320  -40.3430   -8.3760 C.3    49  LYS49       0.0035
     13  CD       -21.1170  -39.7210   -9.7400 C.3    49  LYS49       0.0206
     14  CE       -19.6300  -39.7570  -10.0520 C.3    49  LYS49       0.1093
     15  NZ       -19.3850  -39.6190  -11.5150 N.3    49  LYS49      -0.1314
     16  N        -19.4340  -43.8690  -17.7800 N.3    56  ARG56      -0.1245
     17  CA       -18.4150  -42.8760  -18.0830 C.3    56  ARG56       0.1563
     18  C        -17.0650  -43.5660  -18.1920 C.2    56  ARG56       0.2260
     19  O        -16.4560  -43.5810  -19.2610 O.2    56  ARG56      -0.2867
     20  CB       -18.3800  -41.7820  -17.0130 C.3    56  ARG56       0.0307
     21  CG       -19.6650  -40.9670  -16.9200 C.3    56  ARG56       0.0489
     22  CD       -19.5490  -39.8770  -15.8770 C.3    56  ARG56       0.2205
     23  NE       -18.6910  -38.7870  -16.3310 N.pl3  56  ARG56      -0.0865
     24  CZ       -18.0580  -37.9440  -15.5210 C.cat  56  ARG56       0.5346
     25  NH1      -18.1750  -38.0640  -14.2050 N.pl3  56  ARG56       0.1354
     26  NH2      -17.2990  -36.9830  -16.0230 N.pl3  56  ARG56       0.1354
     27  N        -27.9800  -28.5110   -8.8010 N.3   120  LYS120     -0.1245
     28  CA       -26.6040  -28.9590   -8.9890 C.3   120  LYS120      0.1561
     29  C        -26.6060  -30.3130   -9.6780 C.2   120  LYS120      0.2260
     30  O        -25.9430  -30.5130  -10.6980 O.2   120  LYS120     -0.2867
     31  CB       -25.8750  -29.0450   -7.6430 C.3   120  LYS120      0.0271
     32  CG       -24.5540  -29.8190   -7.6640 C.3   120  LYS120      0.0035
     33  CD       -24.1140  -30.1900   -6.2540 C.3   120  LYS120      0.0206
     34  CE       -22.9890  -31.2170   -6.2630 C.3   120  LYS120      0.1093
     35  NZ       -23.3600  -32.4650   -6.9940 N.3   120  LYS120     -0.1314
     36  N        -25.1560  -31.6360  -13.1350 N.3   124  ASP124     -0.1225
     37  CA       -24.2590  -32.7830  -13.2100 C.3   124  ASP124      0.1805
     38  C        -24.6230  -33.7300  -14.3470 C.2   124  ASP124      0.2597
     39  O        -23.7590  -34.1310  -15.1280 O.2   124  ASP124     -0.2718
     40  CB       -24.2660  -33.5510  -11.8830 C.3   124  ASP124      0.1424
     41  CG       -23.5930  -32.7870  -10.7610 C.2   124  ASP124      0.3668
     42  OD1      -22.6550  -32.0160  -11.0480 O.co2 124  ASP124     -0.2456
     43  OD2      -23.9940  -32.9640   -9.5900 O.co2 124  ASP124     -0.2456
     44  N        -25.8960  -34.0920  -14.4460 N.am  125  TYR125     -0.1976
     45  CA       -26.2910  -35.1110  -15.4040 C.3   125  TYR125      0.1639
     46  C        -26.5470  -34.5460  -16.7940 C.2   125  TYR125      0.2290
     47  O        -26.7740  -35.3010  -17.7370 O.2   125  TYR125     -0.2864
     48  CB       -27.5130  -35.8630  -14.8860 C.3   125  TYR125      0.0560
     49  CG       -27.1570  -36.7920  -13.7410 C.ar  125  TYR125     -0.0198
     50  CD1      -27.1180  -36.3310  -12.4330 C.ar  125  TYR125     -0.0009
     51  CD2      -26.8310  -38.1200  -13.9720 C.ar  125  TYR125     -0.0009
     52  CE1      -26.7830  -37.1650  -11.3840 C.ar  125  TYR125      0.0417
     53  CE2      -26.4920  -38.9670  -12.9270 C.ar  125  TYR125      0.0417
     54  CZ       -26.4700  -38.4820  -11.6320 C.ar  125  TYR125      0.1957
     55  OH       -26.1360  -39.3070  -10.5790 O.3   125  TYR125     -0.2866
     56  N        -24.1010  -32.3500  -17.7880 N.3   127  ARG127     -0.1231
     57  CA       -22.6810  -32.3580  -18.1000 C.3   127  ARG127      0.1694
     58  C        -22.2760  -33.7330  -18.5890 C.2   127  ARG127      0.2592
     59  O        -21.4920  -33.8590  -19.5290 O.2   127  ARG127     -0.2718
     60  CB       -21.8570  -31.9700  -16.8810 C.3   127  ARG127      0.0321
     61  CG       -20.3740  -32.2570  -17.0030 C.3   127  ARG127      0.0489
     62  CD       -19.6440  -31.5960  -15.8680 C.3   127  ARG127      0.2205
     63  NE       -20.3710  -31.7870  -14.6140 N.pl3 127  ARG127     -0.0865
     64  CZ       -19.8250  -32.1990  -13.4720 C.cat 127  ARG127      0.5346
     65  NH1      -18.5240  -32.4520  -13.3940 N.pl3 127  ARG127      0.1354
     66  NH2      -20.5840  -32.3460  -12.3930 N.pl3 127  ARG127      0.1354
     67  N        -22.8130  -34.7620  -17.9360 N.am  128  TYR128     -0.1976
     68  CA       -22.5850  -36.1370  -18.3600 C.3   128  TYR128      0.1639
     69  C        -23.0840  -36.3420  -19.7790 C.2   128  TYR128      0.2290
     70  O        -22.3560  -36.8500  -20.6270 O.2   128  TYR128     -0.2864
     71  CB       -23.2860  -37.1250  -17.4320 C.3   128  TYR128      0.0560
     72  CG       -22.8160  -37.0760  -16.0020 C.ar  128  TYR128     -0.0198
     73  CD1      -21.5320  -36.6530  -15.6780 C.ar  128  TYR128     -0.0009
     74  CD2      -23.6620  -37.4540  -14.9740 C.ar  128  TYR128     -0.0009
     75  CE1      -21.1110  -36.6120  -14.3640 C.ar  128  TYR128      0.0417
     76  CE2      -23.2590  -37.4130  -13.6690 C.ar  128  TYR128      0.0417
     77  CZ       -21.9890  -36.9950  -13.3650 C.ar  128  TYR128      0.1957
     78  OH       -21.6320  -36.9730  -12.0440 O.3   128  TYR128     -0.2866
     79  N        -20.9080  -34.8670  -22.4020 N.3   131  GLU131     -0.1245
     80  CA       -19.6400  -35.5460  -22.6360 C.3   131  GLU131      0.1567
     81  C        -19.7270  -36.5480  -23.7840 C.2   131  GLU131      0.2260
     82  O        -18.6970  -36.9940  -24.2910 O.2   131  GLU131     -0.2867
     83  CB       -19.1690  -36.2580  -21.3670 C.3   131  GLU131      0.0388
     84  CG       -18.4190  -35.3630  -20.3940 C.3   131  GLU131      0.1160
     85  CD       -18.0930  -36.0640  -19.0910 C.2   131  GLU131      0.3649
     86  OE1      -18.5380  -37.2170  -18.9050 O.co2 131  GLU131     -0.2457
     87  OE2      -17.3890  -35.4620  -18.2500 O.co2 131  GLU131     -0.2457
     88  N        -18.3420  -28.9220   -8.4220 N.3   173  ASN173     -0.1240
     89  CA       -18.7930  -29.4400   -9.7090 C.3   173  ASN173      0.1653
     90  C        -18.8810  -28.3870  -10.8080 C.2   173  ASN173      0.2266
     91  O        -18.5420  -28.6640  -11.9620 O.2   173  ASN173     -0.2867
     92  CB       -20.1500  -30.1180   -9.5420 C.3   173  ASN173      0.1155
     93  CG       -20.0600  -31.3860   -8.7230 C.2   173  ASN173      0.2627
     94  OD1      -19.0580  -31.6280   -8.0500 O.2   173  ASN173     -0.2716
     95  ND2      -21.1050  -32.2010   -8.7690 N.am  173  ASN173     -0.0877
     96  N        -15.6140  -27.5670  -12.0150 N.3   176  VAL176     -0.1245
     97  CA       -15.1880  -28.7130  -12.8050 C.3   176  VAL176      0.1561
     98  C        -15.8530  -28.6550  -14.1750 C.2   176  VAL176      0.2260
     99  O        -15.2150  -28.9410  -15.1860 O.2   176  VAL176     -0.2867
    100  CB       -15.5100  -30.0440  -12.0860 C.3   176  VAL176      0.0252
    101  CG1      -15.4990  -31.2260  -13.0440 C.3   176  VAL176      0.0019
    102  CG2      -14.5010  -30.2860  -10.9790 C.3   176  VAL176      0.0019
    103  N        -13.5680  -28.7730  -17.6190 N.3   180  GLU180     -0.1245
    104  CA       -13.6790  -29.9050  -18.5310 C.3   180  GLU180      0.1567
    105  C        -14.5310  -29.6030  -19.7580 C.2   180  GLU180      0.2260
    106  O        -14.0860  -29.7850  -20.8910 O.2   180  GLU180     -0.2867
    107  CB       -14.2650  -31.1070  -17.8020 C.3   180  GLU180      0.0388
    108  CG       -13.5390  -31.4620  -16.5330 C.3   180  GLU180      0.1160
    109  CD       -13.2350  -32.9400  -16.4580 C.2   180  GLU180      0.3649
    110  OE1      -14.1350  -33.7140  -16.0650 O.co2 180  GLU180     -0.2457
    111  OE2      -12.1010  -33.3320  -16.8130 O.co2 180  GLU180     -0.2457
@<TRIPOS>BOND
     1    82    81    2
     2    81    80    1
     3    80    79    1
     4    80    83    1
     5    83    84    1
     6   106   105    2
     7    70    69    2
     8    84    85    1
     9    69    68    1
    10   105   104    1
    11    59    58    2
    12    19    18    2
    13    85    86   ar
    14    85    87   ar
    15    58    57    1
    16    58    67   am
    17   104   107    1
    18   104   103    1
    19    68    67    1
    20    68    71    1
    21    18    17    1
    22    57    56    1
    23    57    60    1
    24    17    16    1
    25    17    20    1
    26   107   108    1
    27    47    46    2
    28    71    72    1
    29    20    21    1
    30    61    60    1
    31    61    62    1
    32    21    22    1
    33   111   109   ar
    34    46    45    1
    35   108   109    1
    36   109   110   ar
    37    23    22    1
    38    23    24    2
    39    26    24    1
    40    72    73   ar
    41    72    74   ar
    42    62    63    1
    43    73    75   ar
    44    24    25    1
    45    45    48    1
    46    45    44    1
    47    99    98    2
    48    39    38    2
    49    74    76   ar
    50    48    49    1
    51    63    64    2
    52    44    38   am
    53    75    77   ar
    54    38    37    1
    55    98    97    1
    56    51    49   ar
    57    51    53   ar
    58    49    50   ar
    59    76    77   ar
    60    64    65    1
    61    64    66    1
    62    77    78    1
    63    37    36    1
    64    37    40    1
    65   101   100    1
    66    53    54   ar
    67    97   100    1
    68    97    96    1
    69    50    52   ar
    70   100   102    1
    71    91    90    2
    72    40    41    1
    73    54    52   ar
    74    54    55    1
    75    15    14    1
    76    42    41   ar
    77    90    89    1
    78    41    43   ar
    79    30    29    2
    80    10     9    2
    81    14    13    1
    82    13    12    1
    83    89    92    1
    84    89    88    1
    85     9     8    1
    86    29    28    1
    87    92    93    1
    88     8     7    1
    89     8    11    1
    90    28    27    1
    91    28    31    1
    92    95    93   am
    93    93    94    2
    94    12    11    1
    95    32    31    1
    96    32    33    1
    97    35    34    1
    98     4     3    2
    99    34    33    1
   100     3     2    1
   101     2     1    1
   102     2     5    1
   103     6     5    1
