@<TRIPOS>MOLECULE
tmp/6bylC01.pdb
 122 113 0 0 0
SMALL
GASTEIGER

@<TRIPOS>ATOM
      1  N         29.8340    2.0620   51.4720 N.3    45  SER45      -0.1217
      2  CA        30.6100    3.2150   51.9030 C.3    45  SER45       0.1889
      3  C         32.0570    2.8290   52.1890 C.2    45  SER45       0.2288
      4  O         32.9830    3.4860   51.7190 O.2    45  SER45      -0.2866
      5  CB        29.9710    3.8480   53.1410 C.3    45  SER45       0.2089
      6  OG        30.7740    4.8940   53.6590 O.3    45  SER45      -0.2183
      7  N         35.3820    3.9340   50.1730 N.3    49  LYS49      -0.1245
      8  CA        36.1510    4.7960   51.0650 C.3    49  LYS49       0.1561
      9  C         37.6130    4.3640   51.1040 C.2    49  LYS49       0.2260
     10  O         38.5080    5.1790   51.3300 O.2    49  LYS49      -0.2867
     11  CB        35.5550    4.7880   52.4760 C.3    49  LYS49       0.0271
     12  CG        36.4720    5.3620   53.5500 C.3    49  LYS49       0.0035
     13  CD        36.9100    6.7820   53.2180 C.3    49  LYS49       0.0206
     14  CE        38.0810    7.2210   54.0890 C.3    49  LYS49       0.1093
     15  NZ        38.6880    8.4930   53.6070 N.3    49  LYS49      -0.1314
     16  N         44.2430    8.8070   47.4840 N.3    56  ARG56      -0.1245
     17  CA        44.3680   10.1110   48.1200 C.3    56  ARG56       0.1563
     18  C         45.6650   10.1590   48.9130 C.2    56  ARG56       0.2260
     19  O         46.3780   11.1620   48.9000 O.2    56  ARG56      -0.2867
     20  CB        43.1770   10.3980   49.0330 C.3    56  ARG56       0.0307
     21  CG        41.8470   10.5500   48.3160 C.3    56  ARG56       0.0489
     22  CD        40.7550   10.9400   49.2980 C.3    56  ARG56       0.2205
     23  NE        41.1040   12.1560   50.0280 N.pl3  56  ARG56      -0.0865
     24  CZ        40.4510   12.6020   51.0960 C.cat  56  ARG56       0.5346
     25  NH1       39.4090   11.9310   51.5630 N.pl3  56  ARG56       0.1354
     26  NH2       40.8400   13.7190   51.6950 N.pl3  56  ARG56       0.1354
     27  N         48.6540   12.6910   48.2000 N.3    60  ARG60      -0.1245
     28  CA        49.2200   13.5760   49.2090 C.3    60  ARG60       0.1563
     29  C         50.7370   13.4240   49.2890 C.2    60  ARG60       0.2260
     30  O         51.4630   14.4100   49.4030 O.2    60  ARG60      -0.2867
     31  CB        48.5900   13.3070   50.5760 C.3    60  ARG60       0.0307
     32  CG        47.1880   13.8680   50.7330 C.3    60  ARG60       0.0489
     33  CD        46.8920   14.1600   52.1920 C.3    60  ARG60       0.2205
     34  NE        45.8900   13.2590   52.7450 N.pl3  60  ARG60      -0.0865
     35  CZ        44.6110   13.5810   52.9090 C.cat  60  ARG60       0.5346
     36  NH1       44.1800   14.7880   52.5660 N.pl3  60  ARG60       0.1354
     37  NH2       43.7640   12.6990   53.4200 N.pl3  60  ARG60       0.1354
     38  N         25.2880   12.7500   52.2780 N.3   124  LYS124     -0.1245
     39  CA        26.5560   12.9930   52.9500 C.3   124  LYS124      0.1561
     40  C         27.7130   12.3950   52.1570 C.2   124  LYS124      0.2260
     41  O         28.7730   13.0080   52.0340 O.2   124  LYS124     -0.2867
     42  CB        26.5350   12.4140   54.3630 C.3   124  LYS124      0.0271
     43  CG        27.9140   12.1950   54.9500 C.3   124  LYS124      0.0035
     44  CD        27.8440   11.3580   56.2120 C.3   124  LYS124      0.0206
     45  CE        29.2330   10.9690   56.6830 C.3   124  LYS124      0.1093
     46  NZ        29.9480   10.1460   55.6690 N.3   124  LYS124     -0.1314
     47  N         30.8670   14.1720   50.2530 N.3   128  ASP128     -0.1225
     48  CA        32.2230   13.7360   50.5730 C.3   128  ASP128      0.1805
     49  C         33.0690   13.5380   49.3220 C.2   128  ASP128      0.2597
     50  O         34.1700   14.0790   49.2130 O.2   128  ASP128     -0.2718
     51  CB        32.1930   12.4380   51.3820 C.3   128  ASP128      0.1424
     52  CG        31.9070   12.6720   52.8510 C.2   128  ASP128      0.3668
     53  OD1       32.3410   13.7150   53.3850 O.co2 128  ASP128     -0.2456
     54  OD2       31.2510   11.8110   53.4740 O.co2 128  ASP128     -0.2456
     55  N         32.5460   12.7610   48.3800 N.am  129  TYR129     -0.1976
     56  CA        33.2840   12.4200   47.1710 C.3   129  TYR129      0.1639
     57  C         33.4580   13.6080   46.2300 C.2   129  TYR129      0.2290
     58  O         34.3080   13.5770   45.3410 O.2   129  TYR129     -0.2864
     59  CB        32.5970   11.2620   46.4480 C.3   129  TYR129      0.0560
     60  CG        32.9200    9.9260   47.0730 C.ar  129  TYR129     -0.0198
     61  CD1       33.9590    9.1460   46.5860 C.ar  129  TYR129     -0.0009
     62  CD2       32.2070    9.4590   48.1690 C.ar  129  TYR129     -0.0009
     63  CE1       34.2690    7.9310   47.1610 C.ar  129  TYR129      0.0417
     64  CE2       32.5100    8.2440   48.7510 C.ar  129  TYR129      0.0417
     65  CZ        33.5430    7.4840   48.2420 C.ar  129  TYR129      0.1957
     66  OH        33.8510    6.2740   48.8170 O.3   129  TYR129     -0.2866
     67  N         34.0820   16.5160   47.7070 N.3   131  ARG131     -0.1231
     68  CA        35.1250   17.1650   48.4880 C.3   131  ARG131      0.1694
     69  C         36.4910   16.5890   48.1360 C.2   131  ARG131      0.2592
     70  O         37.4900   17.3090   48.1020 O.2   131  ARG131     -0.2718
     71  CB        34.8520   17.0110   49.9860 C.3   131  ARG131      0.0321
     72  CG        35.9130   17.6360   50.8740 C.3   131  ARG131      0.0489
     73  CD        35.4460   17.7130   52.3190 C.3   131  ARG131      0.2205
     74  NE        35.1760   16.3960   52.8880 N.pl3 131  ARG131     -0.0865
     75  CZ        36.0660   15.6810   53.5680 C.cat 131  ARG131      0.5346
     76  NH1       37.2890   16.1540   53.7640 N.pl3 131  ARG131      0.1354
     77  NH2       35.7340   14.4920   54.0520 N.pl3 131  ARG131      0.1354
     78  N         36.5240   15.2860   47.8730 N.am  132  TYR132     -0.1976
     79  CA        37.7570   14.6130   47.4780 C.3   132  TYR132      0.1639
     80  C         38.2640   15.1800   46.1560 C.2   132  TYR132      0.2290
     81  O         39.4650   15.3780   45.9720 O.2   132  TYR132     -0.2864
     82  CB        37.5410   13.1010   47.3540 C.3   132  TYR132      0.0560
     83  CG        36.9840   12.4310   48.5950 C.ar  132  TYR132     -0.0198
     84  CD1       37.0110   13.0650   49.8290 C.ar  132  TYR132     -0.0009
     85  CD2       36.4350   11.1560   48.5280 C.ar  132  TYR132     -0.0009
     86  CE1       36.5010   12.4520   50.9610 C.ar  132  TYR132      0.0417
     87  CE2       35.9250   10.5350   49.6530 C.ar  132  TYR132      0.0417
     88  CZ        35.9610   11.1870   50.8680 C.ar  132  TYR132      0.1957
     89  OH        35.4520   10.5730   51.9900 O.3   132  TYR132     -0.2866
     90  N         39.8950   18.6110   46.3140 N.3   135  GLU135     -0.1245
     91  CA        41.2100   18.6290   46.9380 C.3   135  GLU135      0.1567
     92  C         42.3240   18.4960   45.9030 C.2   135  GLU135      0.2260
     93  O         43.4500   18.9330   46.1350 O.2   135  GLU135     -0.2867
     94  CB        41.3200   17.5160   47.9770 C.3   135  GLU135      0.0388
     95  CG        40.3920   17.6820   49.1640 C.3   135  GLU135      0.1160
     96  CD        40.4790   16.5150   50.1190 C.2   135  GLU135      0.3649
     97  OE1       40.8980   15.4250   49.6730 O.co2 135  GLU135     -0.2457
     98  OE2       40.1400   16.6840   51.3110 O.co2 135  GLU135     -0.2457
     99  N         31.9570   15.9640   58.7440 N.3   177  ASN177     -0.1240
    100  CA        32.4010   16.1360   57.3680 C.3   177  ASN177      0.1653
    101  C         32.1000   17.5380   56.8430 C.2   177  ASN177      0.2266
    102  O         32.9090   18.1330   56.1300 O.2   177  ASN177     -0.2867
    103  CB        31.7450   15.0870   56.4720 C.3   177  ASN177      0.1155
    104  CG        31.9870   13.6690   56.9580 C.2   177  ASN177      0.2627
    105  OD1       32.1880   13.4310   58.1530 O.2   177  ASN177     -0.2716
    106  ND2       31.9760   12.7160   56.0280 N.am  177  ASN177     -0.0877
    107  N         34.4340   20.1720   58.5760 N.3   180  VAL180     -0.1245
    108  CA        35.7620   19.9690   58.0070 C.3   180  VAL180      0.1561
    109  C         35.8280   20.5750   56.6090 C.2   180  VAL180      0.2260
    110  O         36.8490   21.1390   56.2120 O.2   180  VAL180     -0.2867
    111  CB        36.1320   18.4670   57.9520 C.3   180  VAL180      0.0252
    112  CG1       37.3240   18.2190   57.0230 C.3   180  VAL180      0.0019
    113  CG2       36.4300   17.9410   59.3440 C.3   180  VAL180      0.0019
    114  N         38.7880   23.2090   55.8050 N.3   184  GLU184     -0.1245
    115  CA        39.7990   22.8140   54.8290 C.3   184  GLU184      0.1567
    116  C         39.5600   23.4010   53.4380 C.2   184  GLU184      0.2260
    117  O         40.3990   24.1310   52.9090 O.2   184  GLU184     -0.2867
    118  CB        39.8660   21.2910   54.7250 C.3   184  GLU184      0.0388
    119  CG        40.6120   20.6180   55.8610 C.3   184  GLU184      0.1160
    120  CD        40.8790   19.1520   55.5840 C.2   184  GLU184      0.3649
    121  OE1       41.9130   18.6330   56.0540 O.co2 184  GLU184     -0.2457
    122  OE2       40.0570   18.5190   54.8880 O.co2 184  GLU184     -0.2457
@<TRIPOS>BOND
     1    58    57    2
     2    92    93    2
     3    92    91    1
     4    81    80    2
     5    80    79    1
     6    57    56    1
     7    90    91    1
     8    59    60    1
     9    59    56    1
    10    61    60   ar
    11    61    63   ar
    12    91    94    1
    13    60    62   ar
    14    63    65   ar
    15    56    55    1
    16    82    79    1
    17    82    83    1
    18    79    78    1
    19    16    17    1
    20    67    68    1
    21    78    69   am
    22    94    95    1
    23    70    69    2
    24    17    18    1
    25    17    20    1
    26    69    68    1
    27    62    64   ar
    28    27    28    1
    29    65    64   ar
    30    65    66    1
    31    21    20    1
    32    21    22    1
    33    55    49   am
    34    68    71    1
    35    85    83   ar
    36    85    87   ar
    37    83    84   ar
    38    19    18    2
    39    95    96    1
    40    28    29    1
    41    28    31    1
    42    50    49    2
    43    29    30    2
    44    22    23    1
    45    49    48    1
    46    87    88   ar
    47    97    96   ar
    48    84    86   ar
    49    71    72    1
    50    23    24    2
    51    96    98   ar
    52     7     8    1
    53    47    48    1
    54    48    51    1
    55    31    32    1
    56    32    33    1
    57    88    86   ar
    58    88    89    1
    59    72    73    1
    60     8     9    1
    61     8    11    1
    62    24    25    1
    63    24    26    1
    64     9    10    2
    65    51    52    1
    66     1     2    1
    67     4     3    2
    68     2     3    1
    69     2     5    1
    70    41    40    2
    71    40    39    1
    72    33    34    1
    73    38    39    1
    74    73    74    1
    75    11    12    1
    76    36    35    1
    77    34    35    2
    78    52    53   ar
    79    52    54   ar
    80    74    75    2
    81   117   116    2
    82    35    37    1
    83    39    42    1
    84     5     6    1
    85    13    12    1
    86    13    14    1
    87   116   115    1
    88    75    76    1
    89    75    77    1
    90    15    14    1
    91    42    43    1
    92   118   115    1
    93   118   119    1
    94   115   114    1
    95   122   120   ar
    96    43    44    1
    97   120   119    1
    98   120   121   ar
    99    46    45    1
   100   106   104   am
   101   102   101    2
   102   110   109    2
   103    44    45    1
   104   103   104    1
   105   103   100    1
   106   109   108    1
   107   101   100    1
   108   104   105    2
   109   112   111    1
   110   100    99    1
   111   111   108    1
   112   111   113    1
   113   108   107    1
