@<TRIPOS>MOLECULE
tmp/6bymA00.pdb
 196 180 0 0 0
SMALL
GASTEIGER

@<TRIPOS>ATOM
      1  N         71.5860  -13.9360   -9.5090 N.3    84  TYR84      -0.1241
      2  CA        72.5490  -14.0010   -8.4160 C.3    84  TYR84       0.1605
      3  C         71.9930  -14.9810   -7.3990 C.2    84  TYR84       0.2264
      4  O         70.9460  -15.5960   -7.6190 O.2    84  TYR84      -0.2867
      5  CB        72.8390  -12.6200   -7.8070 C.3    84  TYR84       0.0534
      6  CG        71.6490  -11.9120   -7.1830 C.ar   84  TYR84      -0.0201
      7  CD1       71.3110  -12.1060   -5.8500 C.ar   84  TYR84      -0.0009
      8  CD2       70.8810  -11.0330   -7.9280 C.ar   84  TYR84      -0.0009
      9  CE1       70.2170  -11.4370   -5.2810 C.ar   84  TYR84       0.0417
     10  CE2       69.7890  -10.3700   -7.3830 C.ar   84  TYR84       0.0417
     11  CZ        69.4630  -10.5660   -6.0580 C.ar   84  TYR84       0.1957
     12  OH        68.3740   -9.8970   -5.5280 O.3    84  TYR84      -0.2866
     13  N         71.0520  -15.5830   -3.2320 N.3    86  LYS86      -0.1245
     14  CA        70.7350  -14.9090   -1.9790 C.3    86  LYS86       0.1561
     15  C         70.8170  -15.9000   -0.8280 C.2    86  LYS86       0.2260
     16  O         70.0920  -16.8970   -0.8150 O.2    86  LYS86      -0.2867
     17  CB        69.3500  -14.2680   -2.0280 C.3    86  LYS86       0.0271
     18  CG        69.0710  -13.2980   -0.8550 C.3    86  LYS86       0.0035
     19  CD        67.7370  -12.5750   -1.0220 C.3    86  LYS86       0.0206
     20  CE        67.8670  -11.1210   -0.6350 C.3    86  LYS86       0.1093
     21  NZ        68.7070  -10.3220   -1.5750 N.3    86  LYS86      -0.1314
     22  N         69.9190  -17.1210    2.7980 N.3    88  LEU88      -0.1231
     23  CA        68.7090  -17.0610    3.6040 C.3    88  LEU88       0.1693
     24  C         68.9880  -17.5680    5.0160 C.2    88  LEU88       0.2592
     25  O         70.1000  -17.9750    5.3650 O.2    88  LEU88      -0.2718
     26  CB        67.5800  -17.8680    2.9550 C.3    88  LEU88       0.0284
     27  CG        67.1950  -17.3670    1.5740 C.3    88  LEU88       0.0019
     28  CD1       66.4310  -18.4190    0.8100 C.3    88  LEU88       0.0001
     29  CD2       66.3670  -16.0930    1.7360 C.3    88  LEU88       0.0001
     30  N         67.9420  -17.5480    5.8240 N.am   89  ASN89      -0.1974
     31  CA        67.9820  -18.1070    7.1640 C.3    89  ASN89       0.1688
     32  C         67.6010  -19.5780    7.0390 C.2    89  ASN89       0.2292
     33  O         66.4700  -19.9010    6.6530 O.2    89  ASN89      -0.2864
     34  CB        67.0100  -17.3580    8.0660 C.3    89  ASN89       0.1181
     35  CG        67.1100  -17.7860    9.4970 C.2    89  ASN89       0.2629
     36  OD1       67.9810  -18.5810    9.8610 O.2    89  ASN89      -0.2716
     37  ND2       66.2140  -17.2700   10.3260 N.am   89  ASN89      -0.0877
     38  N         64.3420  -21.2030    9.0600 N.3    92  ILE92      -0.1231
     39  CA        63.0010  -21.1180    8.4890 C.3    92  ILE92       0.1692
     40  C         62.9270  -21.5770    7.0350 C.2    92  ILE92       0.2593
     41  O         61.8140  -21.6830    6.4970 O.2    92  ILE92      -0.2718
     42  CB        62.4290  -19.6870    8.5970 C.3    92  ILE92       0.0266
     43  CG1       63.4300  -18.6650    8.0470 C.3    92  ILE92       0.0019
     44  CG2       61.9960  -19.3760   10.0360 C.3    92  ILE92       0.0020
     45  CD1       62.9660  -17.2280    8.1940 C.3    92  ILE92       0.0001
     46  N         64.0590  -21.8030    6.3650 N.am   93  GLY93      -0.1943
     47  CA        64.0260  -22.2870    5.0010 C.3    93  GLY93       0.1998
     48  C         65.3320  -22.8910    4.5210 C.2    93  GLY93       0.2480
     49  O         66.1570  -23.3560    5.3150 O.2    93  GLY93      -0.2729
     50  N         65.5640  -22.8490    3.2080 N.am   94  PRO94      -0.2726
     51  CA        66.8320  -23.3400    2.6550 C.3    94  PRO94       0.1402
     52  C         67.9390  -22.3290    2.9020 C.2    94  PRO94       0.2269
     53  O         67.6950  -21.1390    3.1120 O.2    94  PRO94      -0.2865
     54  CB        66.5520  -23.5000    1.1510 C.3    94  PRO94       0.0296
     55  CG        65.0670  -23.4050    1.0100 C.3    94  PRO94       0.0237
     56  CD        64.5970  -22.5250    2.1470 C.3    94  PRO94       0.0939
     57  N         69.0800  -19.2850   -2.0950 N.3    97  THR97      -0.1218
     58  CA        68.3060  -19.5170   -3.3090 C.3    97  THR97       0.1862
     59  C         68.8980  -18.7210   -4.4630 C.2    97  THR97       0.2287
     60  O         69.3260  -17.5740   -4.2850 O.2    97  THR97      -0.2866
     61  CB        66.8240  -19.1380   -3.1380 C.3    97  THR97       0.1770
     62  OG1       66.0910  -19.4980   -4.3200 O.3    97  THR97      -0.2211
     63  CG2       66.6790  -17.6250   -2.8740 C.3    97  THR97       0.0375
     64  N         68.3500  -16.4110   -7.5870 N.3    99  CYS99      -0.1235
     65  CA        67.3830  -15.3800   -7.9340 C.3    99  CYS99       0.1677
     66  C         67.5420  -15.0610   -9.4090 C.2    99  CYS99       0.2270
     67  O         68.5830  -14.5380   -9.8170 O.2    99  CYS99      -0.2867
     68  CB        67.5950  -14.1060   -7.1180 C.3    99  CYS99       0.0956
     69  SG        67.4660  -14.3150   -5.3630 S.3    99  CYS99      -0.0801
     70  N         66.2460  -12.6560  -12.1220 N.3   101  LEU101     -0.1245
     71  CA        65.5850  -11.3570  -12.1880 C.3   101  LEU101      0.1561
     72  C         65.4020  -10.9270  -13.6320 C.2   101  LEU101      0.2260
     73  O         66.3720  -10.9000  -14.3950 O.2   101  LEU101     -0.2867
     74  CB        66.4000  -10.2760  -11.4580 C.3   101  LEU101      0.0270
     75  CG        66.1970  -10.0360   -9.9590 C.3   101  LEU101      0.0019
     76  CD1       66.8780  -11.1260   -9.1560 C.3   101  LEU101      0.0001
     77  CD2       66.7580   -8.6720   -9.5570 C.3   101  LEU101      0.0001
     78  N         60.3580   -5.4820  -11.7630 N.3   118  GLN118     -0.1245
     79  CA        61.1590   -6.6820  -11.5780 C.3   118  GLN118      0.1566
     80  C         60.2400   -7.8860  -11.4350 C.2   118  GLN118      0.2260
     81  O         59.2910   -7.8670  -10.6460 O.2   118  GLN118     -0.2867
     82  CB        62.0420   -6.5890  -10.3340 C.3   118  GLN118      0.0367
     83  CG        62.9190   -5.3600  -10.2060 C.3   118  GLN118      0.0905
     84  CD        63.8410   -5.4770   -9.0010 C.2   118  GLN118      0.2608
     85  OE1       63.3940   -5.7720   -7.8900 O.2   118  GLN118     -0.2717
     86  NE2       65.1280   -5.3350   -9.2310 N.am  118  GLN118     -0.0878
     87  N         60.8380  -11.8470  -10.5000 N.3   120  THR120     -0.1218
     88  CA        61.9010  -12.6520   -9.9350 C.3   120  THR120      0.1862
     89  C         61.4040  -14.0510   -9.6140 C.2   120  THR120      0.2287
     90  O         60.3210  -14.2310   -9.0490 O.2   120  THR120     -0.2866
     91  CB        62.4710  -12.0010   -8.6630 C.3   120  THR120      0.1770
     92  OG1       62.8610  -10.6590   -8.9590 O.3   120  THR120     -0.2211
     93  CG2       63.6790  -12.7580   -8.1920 C.3   120  THR120      0.0375
     94  N         62.6300  -17.7560   -7.7400 N.3   122  THR122     -0.1218
     95  CA        63.5150  -18.2580   -6.6920 C.3   122  THR122      0.1862
     96  C         63.3200  -19.7670   -6.6760 C.2   122  THR122      0.2287
     97  O         62.5490  -20.3030   -5.8640 O.2   122  THR122     -0.2866
     98  CB        63.2020  -17.6020   -5.3420 C.3   122  THR122      0.1770
     99  OG1       61.8210  -17.8000   -5.0330 O.3   122  THR122     -0.2211
    100  CG2       63.4250  -16.0980   -5.4340 C.3   122  THR122      0.0375
    101  N         63.5800  -22.1900   -3.2620 N.3   125  VAL125     -0.1231
    102  CA        62.7920  -22.0580   -2.0390 C.3   125  VAL125      0.1678
    103  C         61.6430  -23.0540   -2.1000 C.2   125  VAL125      0.2434
    104  O         61.2230  -23.4480   -3.1960 O.2   125  VAL125     -0.2733
    105  CB        62.2910  -20.6210   -1.8300 C.3   125  VAL125      0.0265
    106  CG1       63.3840  -19.6350   -2.1460 C.3   125  VAL125      0.0020
    107  CG2       61.0490  -20.3610   -2.6500 C.3   125  VAL125      0.0020
    108  N         61.1350  -23.5170   -0.9670 N.am  126  PRO126     -0.2729
    109  CA        59.9750  -24.4090   -1.0060 C.3   126  PRO126      0.1401
    110  C         58.8440  -23.7400   -1.7600 C.2   126  PRO126      0.2269
    111  O         58.5840  -22.5450   -1.5950 O.2   126  PRO126     -0.2865
    112  CB        59.6260  -24.6240    0.4710 C.3   126  PRO126      0.0296
    113  CG        60.8570  -24.3040    1.2110 C.3   126  PRO126      0.0237
    114  CD        61.6180  -23.2830    0.4050 C.3   126  PRO126      0.0939
    115  N         55.3360  -19.8790   -8.1180 N.3   131  PHE131     -0.1241
    116  CA        55.1130  -18.4420   -8.0480 C.3   131  PHE131      0.1605
    117  C         56.2940  -17.6910   -8.6460 C.2   131  PHE131      0.2264
    118  O         57.4180  -18.1900   -8.6920 O.2   131  PHE131     -0.2867
    119  CB        54.8860  -17.9770   -6.5900 C.3   131  PHE131      0.0534
    120  CG        56.1290  -18.0110   -5.7540 C.ar  131  PHE131     -0.0203
    121  CD1       56.9890  -16.9300   -5.7220 C.ar  131  PHE131     -0.0042
    122  CD2       56.4670  -19.1370   -5.0360 C.ar  131  PHE131     -0.0042
    123  CE1       58.1470  -16.9730   -4.9860 C.ar  131  PHE131     -0.0003
    124  CE2       57.6270  -19.1690   -4.2810 C.ar  131  PHE131     -0.0003
    125  CZ        58.4630  -18.0930   -4.2580 C.ar  131  PHE131     -0.0000
    126  N         57.8130  -13.4860   -8.1660 N.3   133  VAL133     -0.1245
    127  CA        57.6770  -12.2540   -7.3970 C.3   133  VAL133      0.1561
    128  C         57.6600  -11.0830   -8.3660 C.2   133  VAL133      0.2260
    129  O         58.5460  -10.9590   -9.2200 O.2   133  VAL133     -0.2867
    130  CB        58.8160  -12.0900   -6.3740 C.3   133  VAL133      0.0252
    131  CG1       58.6390  -10.7990   -5.6220 C.3   133  VAL133      0.0019
    132  CG2       58.8950  -13.2650   -5.4030 C.3   133  VAL133      0.0019
    133  N         57.8410   -6.9550   -8.4740 N.3   135  SER135     -0.1217
    134  CA        58.2630   -5.7800   -7.7120 C.3   135  SER135      0.1889
    135  C         58.2720   -4.5790   -8.6450 C.2   135  SER135      0.2288
    136  O         58.9910   -4.5820   -9.6520 O.2   135  SER135     -0.2866
    137  CB        59.6660   -5.9640   -7.1080 C.3   135  SER135      0.2089
    138  OG        59.7580   -7.1190   -6.2900 O.3   135  SER135     -0.2183
    139  N         52.1560  -22.9650    1.0620 N.3   163  LEU163     -0.1245
    140  CA        53.0200  -21.9760    1.6760 C.3   163  LEU163      0.1561
    141  C         52.5910  -20.5520    1.3650 C.2   163  LEU163      0.2260
    142  O         53.3650  -19.6170    1.5940 O.2   163  LEU163     -0.2867
    143  CB        54.4540  -22.2210    1.2100 C.3   163  LEU163      0.0270
    144  CG        55.0340  -23.5290    1.7530 C.3   163  LEU163      0.0019
    145  CD1       56.3670  -23.8730    1.0980 C.3   163  LEU163      0.0001
    146  CD2       55.2040  -23.4140    3.2580 C.3   163  LEU163      0.0001
    147  N         53.2640  -17.8440    4.0590 N.3   166  ALA166     -0.1231
    148  CA        54.6650  -17.6800    4.4280 C.3   166  ALA166      0.1694
    149  C         55.4680  -17.0410    3.3080 C.2   166  ALA166      0.2591
    150  O         56.4310  -16.3190    3.5700 O.2   166  ALA166     -0.2718
    151  CB        55.2710  -19.0320    4.7950 C.3   166  ALA166      0.0304
    152  N         55.1160  -17.3230    2.0570 N.am  167  ILE167     -0.1980
    153  CA        55.8900  -16.7870    0.9470 C.3   167  ILE167      0.1595
    154  C         55.6000  -15.3110    0.7390 C.2   167  ILE167      0.2287
    155  O         56.5130  -14.5290    0.4680 O.2   167  ILE167     -0.2864
    156  CB        55.6330  -17.6230   -0.3190 C.3   167  ILE167      0.0276
    157  CG1       56.5860  -18.8110   -0.3150 C.3   167  ILE167      0.0022
    158  CG2       55.7610  -16.7750   -1.5820 C.3   167  ILE167      0.0022
    159  CD1       56.1750  -19.9140   -1.2670 C.3   167  ILE167      0.0001
    160  N         57.3760  -13.5260    3.9060 N.3   170  GLY170     -0.1210
    161  CA        58.8150  -13.5560    3.7200 C.3   170  GLY170      0.1956
    162  C         59.2530  -12.6700    2.5780 C.2   170  GLY170      0.2612
    163  O         60.3050  -12.0320    2.6440 O.2   170  GLY170     -0.2717
    164  N         58.4440  -12.6080    1.5120 N.am  171  SER171     -0.1952
    165  CA        58.8130  -11.8020    0.3550 C.3   171  SER171      0.1924
    166  C         58.7580  -10.3170    0.6950 C.2   171  SER171      0.2314
    167  O         59.6740   -9.5600    0.3570 O.2   171  SER171     -0.2863
    168  CB        57.8950  -12.1330   -0.8280 C.3   171  SER171      0.2116
    169  OG        58.1140  -11.2410   -1.9080 O.3   171  SER171     -0.2180
    170  N         61.5620   -9.6630    3.3080 N.3   174  GLY174     -0.1210
    171  CA        62.8640   -9.6980    2.6690 C.3   174  GLY174      0.1956
    172  C         63.1090   -8.4700    1.8170 C.2   174  GLY174      0.2611
    173  O         64.2440   -8.0030    1.6980 O.2   174  GLY174     -0.2717
    174  N         62.0550   -7.9270    1.2090 N.am  175  GLN175     -0.1979
    175  CA        62.2370   -6.7870    0.3190 C.3   175  GLN175      0.1601
    176  C         62.3350   -5.4740    1.0770 C.2   175  GLN175      0.2287
    177  O         62.9110   -4.5100    0.5570 O.2   175  GLN175     -0.2864
    178  CB        61.1160   -6.7450   -0.7250 C.3   175  GLN175      0.0394
    179  CG        61.3120   -7.7890   -1.8280 C.3   175  GLN175      0.0908
    180  CD        60.2470   -7.7140   -2.9000 C.2   175  GLN175      0.2608
    181  OE1       60.2810   -6.8410   -3.7650 O.2   175  GLN175     -0.2717
    182  NE2       59.2780   -8.6030   -2.8280 N.am  175  GLN175     -0.0878
    183  N         66.0070   -5.4620    1.3310 N.3   178  SER178     -0.1217
    184  CA        66.7790   -5.1860    0.1130 C.3   178  SER178      0.1889
    185  C         66.5420   -3.7690   -0.4000 C.2   178  SER178      0.2288
    186  O         67.4660   -3.1200   -0.9050 O.2   178  SER178     -0.2866
    187  CB        66.4660   -6.2180   -0.9830 C.3   178  SER178      0.2089
    188  OG        65.1330   -6.1010   -1.4650 O.3   178  SER178     -0.2183
    189  N         69.2080   -0.7630   -1.1600 N.3   182  MET182     -0.1245
    190  CA        69.2170   -0.0340   -2.4190 C.3   182  MET182      0.1570
    191  C         69.1430    1.4660   -2.1760 C.2   182  MET182      0.2261
    192  O         69.8860    2.2400   -2.7810 O.2   182  MET182     -0.2867
    193  CB        68.0390   -0.5100   -3.2890 C.3   182  MET182      0.0387
    194  CG        67.6240    0.4480   -4.4220 C.3   182  MET182      0.0595
    195  SD        66.3960   -0.2960   -5.5580 S.3   182  MET182     -0.1393
    196  CE        67.1350   -1.9090   -5.8370 C.3   182  MET182      0.0692
@<TRIPOS>BOND
     1    73    72    2
     2    72    71    1
     3    71    70    1
     4    71    74    1
     5    78    79    1
     6    79    80    1
     7    79    82    1
     8    74    75    1
     9    80    81    2
    10    87    88    1
    11    82    83    1
    12    83    84    1
    13    75    77    1
    14    75    76    1
    15    88    89    1
    16    88    91    1
    17    67    66    2
    18   136   135    2
    19    89    90    2
    20     1     2    1
    21    66    65    1
    22    86    84   am
    23   129   128    2
    24    84    85    2
    25    92    91    1
    26   118   117    2
    27    91    93    1
    28   117   116    1
    29   135   134    1
    30   133   134    1
    31     2     5    1
    32     2     3    1
    33   128   127    1
    34   126   127    1
    35   115   116    1
    36   116   119    1
    37    65    64    1
    38    65    68    1
    39     8    10   ar
    40     8     6   ar
    41     5     6    1
    42    94    95    1
    43   134   137    1
    44     4     3    2
    45   127   130    1
    46    10    11   ar
    47     6     7   ar
    48    68    69    1
    49   137   138    1
    50    95    96    1
    51    95    98    1
    52    96    97    2
    53   119   120    1
    54   130   131    1
    55   130   132    1
    56    11    12    1
    57    11     9   ar
    58     7     9   ar
    59   196   195    1
    60   120   121   ar
    61   120   122   ar
    62   121   123   ar
    63   195   194    1
    64   100    98    1
    65    98    99    1
    66   122   124   ar
    67   123   125   ar
    68    59    60    2
    69    59    58    1
    70   194   193    1
    71    62    61    1
    72   124   125   ar
    73   181   180    2
    74    58    61    1
    75    58    57    1
    76   193   190    1
    77   101   102    1
    78    13    14    1
    79   104   103    2
    80    61    63    1
    81   180   182   am
    82   180   179    1
    83   192   191    2
    84   107   105    1
    85   190   191    1
    86   190   189    1
    87   106   105    1
    88   103   102    1
    89   103   108   am
    90   102   105    1
    91    17    14    1
    92    17    18    1
    93    14    15    1
    94   169   168    1
    95   179   178    1
    96   110   111    2
    97   110   109    1
    98   158   156    1
    99    21    20    1
   100   188   187    1
   101   159   157    1
   102    19    18    1
   103    19    20    1
   104   109   108    1
   105   109   112    1
   106   187   184    1
   107   108   114    1
   108   186   185    2
   109   168   165    1
   110    15    16    2
   111   178   175    1
   112   185   184    1
   113   156   157    1
   114   156   153    1
   115   184   183    1
   116   175   176    1
   117   175   174    1
   118   165   166    1
   119   165   164    1
   120   167   166    2
   121   114   113    1
   122   155   154    2
   123   112   113    1
   124   177   176    2
   125   154   153    1
   126    28    27    1
   127   153   152    1
   128    55    54    1
   129    55    56    1
   130   139   140    1
   131   145   144    1
   132    54    51    1
   133   174   172   am
   134   143   140    1
   135   143   144    1
   136   141   142    2
   137   141   140    1
   138   164   162   am
   139    27    29    1
   140    27    26    1
   141   173   172    2
   142   144   146    1
   143   172   171    1
   144   152   149   am
   145    56    50    1
   146   162   163    2
   147   162   161    1
   148    51    52    1
   149    51    50    1
   150   171   170    1
   151    22    23    1
   152    52    53    2
   153    26    23    1
   154    50    48   am
   155   149   150    2
   156   149   148    1
   157    23    24    1
   158   161   160    1
   159   147   148    1
   160   148   151    1
   161    48    47    1
   162    48    49    2
   163    47    46    1
   164    24    25    2
   165    24    30   am
   166    30    31    1
   167    46    40   am
   168    41    40    2
   169    33    32    2
   170    40    39    1
   171    32    31    1
   172    31    34    1
   173    43    45    1
   174    43    42    1
   175    34    35    1
   176    39    42    1
   177    39    38    1
   178    42    44    1
   179    35    36    2
   180    35    37   am
