@<TRIPOS>MOLECULE
tmp/6bytA00.pdb
 130 129 0 0 0
SMALL
GASTEIGER

@<TRIPOS>ATOM
      1  N        122.0970   47.2900    2.3770 N.3    24  HIS24      -0.1241
      2  CA       123.4270   46.8110    2.0210 C.3    24  HIS24       0.1621
      3  C        124.0680   46.0430    3.1670 C.2    24  HIS24       0.2264
      4  O        124.7930   45.0720    2.9350 O.2    24  HIS24      -0.2867
      5  CB       124.3160   47.9820    1.6040 C.3    24  HIS24       0.0745
      6  CG       123.9850   48.5360    0.2440 C.ar   24  HIS24       0.0817
      7  ND1      124.8850   48.6440   -0.7580 N.ar   24  HIS24      -0.2268
      8  CD2      122.8480   49.0270   -0.2530 C.ar   24  HIS24       0.1154
      9  CE1      124.3350   49.1520   -1.8300 C.ar   24  HIS24       0.1986
     10  NE2      123.0720   49.3830   -1.5600 N.ar   24  HIS24      -0.2212
     11  N        114.1300   43.8140   -0.3960 N.3    39  PHE39      -0.1227
     12  CA       115.2480   44.7490   -0.5560 C.3    39  PHE39       0.1736
     13  C        114.8640   46.1020   -1.1270 C.2    39  PHE39       0.2595
     14  O        115.4510   47.1150   -0.7350 O.2    39  PHE39      -0.2718
     15  CB       116.3400   44.1500   -1.4470 C.3    39  PHE39       0.0547
     16  CG       117.6300   44.9150   -1.4020 C.ar   39  PHE39      -0.0202
     17  CD1      118.5550   44.6820   -0.3950 C.ar   39  PHE39      -0.0042
     18  CD2      117.9140   45.8790   -2.3630 C.ar   39  PHE39      -0.0042
     19  CE1      119.7420   45.3930   -0.3440 C.ar   39  PHE39      -0.0003
     20  CE2      119.1020   46.5940   -2.3220 C.ar   39  PHE39      -0.0003
     21  CZ       120.0190   46.3520   -1.3090 C.ar   39  PHE39      -0.0000
     22  N        113.9120   46.1580   -2.0620 N.am   40  PHE40      -0.1976
     23  CA       113.4690   47.4310   -2.6090 C.3    40  PHE40       0.1639
     24  C        112.0710   47.7050   -2.0810 C.2    40  PHE40       0.2290
     25  O        111.9220   48.3110   -1.0020 O.2    40  PHE40      -0.2864
     26  CB       113.5700   47.4020   -4.1410 C.3    40  PHE40       0.0560
     27  CG       114.9760   47.1470   -4.6660 C.ar   40  PHE40      -0.0200
     28  CD1      115.9340   48.1570   -4.6630 C.ar   40  PHE40      -0.0042
     29  CD2      115.3340   45.8970   -5.1670 C.ar   40  PHE40      -0.0042
     30  CE1      117.2220   47.9270   -5.1490 C.ar   40  PHE40      -0.0003
     31  CE2      116.6200   45.6580   -5.6680 C.ar   40  PHE40      -0.0003
     32  CZ       117.5650   46.6750   -5.6580 C.ar   40  PHE40      -0.0000
     33  N        116.2510   38.6220   -4.5280 N.3    96  PHE96      -0.1227
     34  CA       117.3480   39.5670   -4.6760 C.3    96  PHE96       0.1736
     35  C        118.6540   38.8440   -4.9750 C.2    96  PHE96       0.2595
     36  O        119.1190   38.0190   -4.1760 O.2    96  PHE96      -0.2718
     37  CB       117.4910   40.4220   -3.4250 C.3    96  PHE96       0.0547
     38  CG       118.5580   41.4580   -3.5430 C.ar   96  PHE96      -0.0202
     39  CD1      118.4020   42.5300   -4.4010 C.ar   96  PHE96      -0.0042
     40  CD2      119.7140   41.3660   -2.7970 C.ar   96  PHE96      -0.0042
     41  CE1      119.3840   43.4890   -4.5160 C.ar   96  PHE96      -0.0003
     42  CE2      120.7020   42.3340   -2.9040 C.ar   96  PHE96      -0.0003
     43  CZ       120.5350   43.3950   -3.7650 C.ar   96  PHE96      -0.0000
     44  N        119.2140   39.1350   -6.1540 N.am   97  ARG97      -0.1980
     45  CA       120.4440   38.5120   -6.6350 C.3    97  ARG97       0.1597
     46  C        120.4030   36.9910   -6.5020 C.2    97  ARG97       0.2287
     47  O        121.4110   36.3470   -6.1910 O.2    97  ARG97      -0.2864
     48  CB       121.6680   39.0850   -5.9290 C.3    97  ARG97       0.0334
     49  CG       121.9770   40.5210   -6.2930 C.3    97  ARG97       0.0492
     50  CD       123.2500   40.9610   -5.5930 C.3    97  ARG97       0.2205
     51  NE       123.4130   42.4090   -5.5430 N.pl3  97  ARG97      -0.0865
     52  CZ       124.4250   43.0080   -4.9260 C.cat  97  ARG97       0.5346
     53  NH1      124.5230   44.3320   -4.9160 N.pl3  97  ARG97       0.1354
     54  NH2      125.3440   42.2700   -4.3250 N.pl3  97  ARG97       0.1354
     55  N        116.5590   41.0680  -13.2490 N.3   127  HIS127     -0.1226
     56  CA       117.0820   42.3690  -12.8120 C.3   127  HIS127      0.1752
     57  C        118.5840   42.4060  -13.1290 C.2   127  HIS127      0.2595
     58  O        119.4490   42.2370  -12.2710 O.2   127  HIS127     -0.2718
     59  CB       116.7990   42.6340  -11.3310 C.3   127  HIS127      0.0759
     60  CG       117.1370   44.0260  -10.8970 C.ar  127  HIS127      0.0818
     61  ND1      117.0850   44.4340   -9.5800 N.ar  127  HIS127     -0.2268
     62  CD2      117.5190   45.1110  -11.6120 C.ar  127  HIS127      0.1154
     63  CE1      117.4260   45.7110   -9.5040 C.ar  127  HIS127      0.1986
     64  NE2      117.7000   46.1430  -10.7230 N.ar  127  HIS127     -0.2212
     65  N        118.8900   42.6430  -14.4020 N.am  128  ALA128     -0.1980
     66  CA       120.2480   42.8880  -14.8770 C.3   128  ALA128      0.1597
     67  C        121.1480   41.6800  -14.6970 C.2   128  ALA128      0.2287
     68  O        122.3560   41.8330  -14.4940 O.2   128  ALA128     -0.2864
     69  CB       120.8720   44.1020  -14.1850 C.3   128  ALA128      0.0319
     70  N        128.8130   39.1900   -8.4980 N.3   137  ARG137     -0.1231
     71  CA       127.7110   39.7480   -7.7200 C.3   137  ARG137      0.1694
     72  C        126.5900   38.7320   -7.5350 C.2   137  ARG137      0.2592
     73  O        125.9270   38.7180   -6.4890 O.2   137  ARG137     -0.2718
     74  CB       127.1590   40.9780   -8.4370 C.3   137  ARG137      0.0321
     75  CG       126.2110   41.8300   -7.6250 C.3   137  ARG137      0.0489
     76  CD       125.4150   42.7490   -8.5510 C.3   137  ARG137      0.2205
     77  NE       126.2400   43.7040   -9.2800 N.pl3 137  ARG137     -0.0865
     78  CZ       126.6270   44.8800   -8.8030 C.cat 137  ARG137      0.5346
     79  NH1      126.2650   45.2620   -7.5840 N.pl3 137  ARG137      0.1354
     80  NH2      127.3760   45.6750   -9.5530 N.pl3 137  ARG137      0.1354
     81  N        126.4040   37.8450   -8.5170 N.am  138  PHE138     -0.1976
     82  CA       125.2960   36.9010   -8.5610 C.3   138  PHE138      0.1639
     83  C        125.7090   35.4680   -8.2440 C.2   138  PHE138      0.2290
     84  O        124.8660   34.5680   -8.3200 O.2   138  PHE138     -0.2864
     85  CB       124.6340   36.9510   -9.9420 C.3   138  PHE138      0.0560
     86  CG       124.1050   38.3090  -10.3130 C.ar  138  PHE138     -0.0200
     87  CD1      123.2680   39.0140   -9.4570 C.ar  138  PHE138     -0.0042
     88  CD2      124.4440   38.8870  -11.5310 C.ar  138  PHE138     -0.0042
     89  CE1      122.7820   40.2710   -9.8070 C.ar  138  PHE138     -0.0003
     90  CE2      123.9620   40.1510  -11.8910 C.ar  138  PHE138     -0.0003
     91  CZ       123.1360   40.8410  -11.0260 C.ar  138  PHE138     -0.0000
     92  N        115.3030   47.6200  -20.4300 N.3   219  ARG219     -0.1245
     93  CA       116.3820   48.5420  -20.0900 C.3   219  ARG219      0.1563
     94  C        117.6490   47.7570  -19.7760 C.2   219  ARG219      0.2260
     95  O        117.6460   46.8690  -18.9160 O.2   219  ARG219     -0.2867
     96  CB       116.0130   49.4410  -18.9090 C.3   219  ARG219      0.0307
     97  CG       116.9750   50.6250  -18.7180 C.3   219  ARG219      0.0489
     98  CD       117.0500   51.0550  -17.2480 C.3   219  ARG219      0.2205
     99  NE       117.5810   52.4070  -17.0260 N.pl3 219  ARG219     -0.0865
    100  CZ       118.7950   52.6860  -16.5470 C.cat 219  ARG219      0.5346
    101  NH1      119.1640   53.9410  -16.3720 N.pl3 219  ARG219      0.1354
    102  NH2      119.6470   51.7120  -16.2490 N.pl3 219  ARG219      0.1354
    103  N        121.4350   47.8860  -18.2000 N.3   221  GLY221     -0.1210
    104  CA       122.3790   48.6620  -17.4140 C.3   221  GLY221      0.1956
    105  C        121.8390   49.1310  -16.0860 C.2   221  GLY221      0.2612
    106  O        120.8520   48.6230  -15.5570 O.2   221  GLY221     -0.2717
    107  N        122.5100   50.1420  -15.5480 N.am  222  GLY222     -0.1942
    108  CA       122.1770   50.6810  -14.2510 C.3   222  GLY222      0.2014
    109  C        121.8770   52.1690  -14.1950 C.2   222  GLY222      0.2638
    110  O        121.5480   52.7850  -15.2080 O.2   222  GLY222     -0.2714
    111  N        121.9630   52.7310  -12.9840 N.am  223  ASN223     -0.1972
    112  CA       121.6030   54.1090  -12.6660 C.3   223  ASN223      0.1688
    113  C        122.0830   55.1340  -13.6800 C.2   223  ASN223      0.2292
    114  O        121.2850   55.8460  -14.2920 O.2   223  ASN223     -0.2864
    115  CB       122.1850   54.4780  -11.2990 C.3   223  ASN223      0.1181
    116  CG       122.2100   53.3120  -10.3430 C.2   223  ASN223      0.2629
    117  OD1      121.1800   52.9580   -9.7630 O.2   223  ASN223     -0.2716
    118  ND2      123.3950   52.7200  -10.1480 N.am  223  ASN223     -0.0877
    119  N        115.4620   57.2270  -16.9990 N.3   263  TYR263     -0.1241
    120  CA       114.3000   56.9070  -16.1740 C.3   263  TYR263      0.1605
    121  C        113.0650   57.4570  -16.8800 C.2   263  TYR263      0.2264
    122  O        112.8870   58.6800  -17.0030 O.2   263  TYR263     -0.2867
    123  CB       114.4770   57.4640  -14.7570 C.3   263  TYR263      0.0534
    124  CG       115.5480   56.6610  -14.0230 C.ar  263  TYR263     -0.0201
    125  CD1      116.9090   56.9100  -14.2410 C.ar  263  TYR263     -0.0009
    126  CD2      115.2050   55.6190  -13.1640 C.ar  263  TYR263     -0.0009
    127  CE1      117.8910   56.1660  -13.6070 C.ar  263  TYR263      0.0417
    128  CE2      116.1780   54.8740  -12.5180 C.ar  263  TYR263      0.0417
    129  CZ       117.5200   55.1450  -12.7470 C.ar  263  TYR263      0.1957
    130  OH       118.4830   54.3970  -12.1070 O.3   263  TYR263     -0.2866
@<TRIPOS>BOND
     1    92    93    1
     2    93    94    1
     3    93    96    1
     4    94    95    2
     5    96    97    1
     6    97    98    1
     7   103   104    1
     8   104   105    1
     9    98    99    1
    10    99   100    2
    11   122   121    2
    12   119   120    1
    13   121   120    1
    14   100   101    1
    15   100   102    1
    16   120   123    1
    17   105   106    2
    18   105   107   am
    19   107   108    1
    20   110   109    2
    21    66    67    1
    22    66    65    1
    23    66    69    1
    24   123   124    1
    25    67    68    2
    26    65    57   am
    27   114   113    2
    28   108   109    1
    29   125   124   ar
    30   125   127   ar
    31   109   111   am
    32   124   126   ar
    33   113   112    1
    34   127   129   ar
    35    55    56    1
    36   126   128   ar
    37    57    56    1
    38    57    58    2
    39   111   112    1
    40    56    59    1
    41   129   128   ar
    42   129   130    1
    43   112   115    1
    44    90    88   ar
    45    90    91   ar
    46    62    60   ar
    47    62    64   ar
    48    88    86   ar
    49    59    60    1
    50   115   116    1
    51    91    89   ar
    52    60    61   ar
    53    64    63   ar
    54   116   118   am
    55   116   117    2
    56    86    85    1
    57    86    87   ar
    58    85    82    1
    59    89    87   ar
    60    61    63   ar
    61    80    78    1
    62    77    78    2
    63    77    76    1
    64    78    79    1
    65    82    81    1
    66    82    83    1
    67    76    75    1
    68    81    72   am
    69    70    71    1
    70    74    71    1
    71    74    75    1
    72    84    83    2
    73    71    72    1
    74    72    73    2
    75    45    46    1
    76    45    44    1
    77    45    48    1
    78    46    47    2
    79    49    48    1
    80    49    50    1
    81    44    35   am
    82    31    32   ar
    83    31    29   ar
    84    32    30   ar
    85    50    51    1
    86    51    52    2
    87    29    27   ar
    88    30    28   ar
    89    35    34    1
    90    35    36    2
    91    52    53    1
    92    52    54    1
    93    34    33    1
    94    34    37    1
    95    27    28   ar
    96    27    26    1
    97    41    39   ar
    98    41    43   ar
    99    39    38   ar
   100    26    23    1
   101    43    42   ar
   102    38    37    1
   103    38    40   ar
   104    42    40   ar
   105    23    24    1
   106    23    22    1
   107    18    20   ar
   108    18    16   ar
   109    20    21   ar
   110    24    25    2
   111    22    13   am
   112     9    10   ar
   113     9     7   ar
   114    10     8   ar
   115    15    16    1
   116    15    12    1
   117    16    17   ar
   118    21    19   ar
   119    13    14    2
   120    13    12    1
   121     7     6   ar
   122    12    11    1
   123    17    19   ar
   124     8     6   ar
   125     6     5    1
   126     5     2    1
   127     2     1    1
   128     2     3    1
   129     4     3    2
