@<TRIPOS>MOLECULE
tmp/6bytA01.pdb
 89 87 0 0 0
SMALL
GASTEIGER

@<TRIPOS>ATOM
      1  N        113.9120   46.1580   -2.0620 N.3    40  PHE40      -0.1241
      2  CA       113.4690   47.4310   -2.6090 C.3    40  PHE40       0.1605
      3  C        112.0710   47.7050   -2.0810 C.2    40  PHE40       0.2264
      4  O        111.9220   48.3110   -1.0020 O.2    40  PHE40      -0.2867
      5  CB       113.5700   47.4020   -4.1410 C.3    40  PHE40       0.0534
      6  CG       114.9760   47.1470   -4.6660 C.ar   40  PHE40      -0.0203
      7  CD1      115.9340   48.1570   -4.6630 C.ar   40  PHE40      -0.0042
      8  CD2      115.3340   45.8970   -5.1670 C.ar   40  PHE40      -0.0042
      9  CE1      117.2220   47.9270   -5.1490 C.ar   40  PHE40      -0.0003
     10  CE2      116.6200   45.6580   -5.6680 C.ar   40  PHE40      -0.0003
     11  CZ       117.5650   46.6750   -5.6580 C.ar   40  PHE40      -0.0000
     12  N        111.6510   44.4330   -8.4790 N.3   106  HIS106     -0.1241
     13  CA       111.9260   44.7060   -9.8860 C.3   106  HIS106      0.1621
     14  C        111.3990   43.6100  -10.7970 C.2   106  HIS106      0.2264
     15  O        111.0720   43.8860  -11.9610 O.2   106  HIS106     -0.2867
     16  CB       113.4330   44.8550  -10.1180 C.3   106  HIS106      0.0745
     17  CG       114.0050   46.1150   -9.5550 C.ar  106  HIS106      0.0817
     18  ND1      114.3810   46.2350   -8.2330 N.ar  106  HIS106     -0.2268
     19  CD2      114.2360   47.3210  -10.1250 C.ar  106  HIS106      0.1154
     20  CE1      114.8340   47.4560   -8.0180 C.ar  106  HIS106      0.1986
     21  NE2      114.7510   48.1370   -9.1490 N.ar  106  HIS106     -0.2212
     22  N        116.5590   41.0680  -13.2490 N.3   127  HIS127     -0.1241
     23  CA       117.0820   42.3690  -12.8120 C.3   127  HIS127      0.1621
     24  C        118.5840   42.4060  -13.1290 C.2   127  HIS127      0.2264
     25  O        119.4490   42.2370  -12.2710 O.2   127  HIS127     -0.2867
     26  CB       116.7990   42.6340  -11.3310 C.3   127  HIS127      0.0745
     27  CG       117.1370   44.0260  -10.8970 C.ar  127  HIS127      0.0817
     28  ND1      117.0850   44.4340   -9.5800 N.ar  127  HIS127     -0.2268
     29  CD2      117.5190   45.1110  -11.6120 C.ar  127  HIS127      0.1154
     30  CE1      117.4260   45.7110   -9.5040 C.ar  127  HIS127      0.1986
     31  NE2      117.7000   46.1430  -10.7230 N.ar  127  HIS127     -0.2212
     32  N        116.3210   44.4480  -17.7150 N.3   202  THR202     -0.1203
     33  CA       115.2990   44.6150  -16.6860 C.3   202  THR202      0.1994
     34  C        114.0660   45.2510  -17.3180 C.2   202  THR202      0.2617
     35  O        114.1540   45.9290  -18.3460 O.2   202  THR202     -0.2717
     36  CB       115.7930   45.5030  -15.5270 C.3   202  THR202      0.1784
     37  OG1      117.0520   45.0140  -15.0400 O.3   202  THR202     -0.2211
     38  CG2      114.7580   45.5180  -14.3860 C.3   202  THR202      0.0376
     39  N        112.9140   45.0240  -16.6940 N.am  203  TYR203     -0.1975
     40  CA       111.6610   45.6990  -17.0450 C.3   203  TYR203      0.1639
     41  C        111.0500   45.2500  -18.3670 C.2   203  TYR203      0.2290
     42  O        111.0340   46.0330  -19.3290 O.2   203  TYR203     -0.2864
     43  CB       111.8650   47.2150  -17.1020 C.3   203  TYR203      0.0560
     44  CG       112.3190   47.8270  -15.7980 C.ar  203  TYR203     -0.0198
     45  CD1      111.6200   47.5980  -14.6020 C.ar  203  TYR203     -0.0009
     46  CD2      113.4720   48.5990  -15.7490 C.ar  203  TYR203     -0.0009
     47  CE1      112.0510   48.1560  -13.3960 C.ar  203  TYR203      0.0417
     48  CE2      113.9110   49.1780  -14.5420 C.ar  203  TYR203      0.0417
     49  CZ       113.1970   48.9490  -13.3800 C.ar  203  TYR203      0.1957
     50  OH       113.6500   49.5180  -12.2040 O.3   203  TYR203     -0.2866
     51  N        115.3030   47.6200  -20.4300 N.3   219  ARG219     -0.1245
     52  CA       116.3820   48.5420  -20.0900 C.3   219  ARG219      0.1563
     53  C        117.6490   47.7570  -19.7760 C.2   219  ARG219      0.2260
     54  O        117.6460   46.8690  -18.9160 O.2   219  ARG219     -0.2867
     55  CB       116.0130   49.4410  -18.9090 C.3   219  ARG219      0.0307
     56  CG       116.9750   50.6250  -18.7180 C.3   219  ARG219      0.0489
     57  CD       117.0500   51.0550  -17.2480 C.3   219  ARG219      0.2205
     58  NE       117.5810   52.4070  -17.0260 N.pl3 219  ARG219     -0.0865
     59  CZ       118.7950   52.6860  -16.5470 C.cat 219  ARG219      0.5346
     60  NH1      119.1640   53.9410  -16.3720 N.pl3 219  ARG219      0.1354
     61  NH2      119.6470   51.7120  -16.2490 N.pl3 219  ARG219      0.1354
     62  N        121.4350   47.8860  -18.2000 N.3   221  GLY221     -0.1210
     63  CA       122.3790   48.6620  -17.4140 C.3   221  GLY221      0.1956
     64  C        121.8390   49.1310  -16.0860 C.2   221  GLY221      0.2612
     65  O        120.8520   48.6230  -15.5570 O.2   221  GLY221     -0.2717
     66  N        122.5100   50.1420  -15.5480 N.am  222  GLY222     -0.1942
     67  CA       122.1770   50.6810  -14.2510 C.3   222  GLY222      0.2014
     68  C        121.8770   52.1690  -14.1950 C.2   222  GLY222      0.2638
     69  O        121.5480   52.7850  -15.2080 O.2   222  GLY222     -0.2714
     70  N        121.9630   52.7310  -12.9840 N.am  223  ASN223     -0.1972
     71  CA       121.6030   54.1090  -12.6660 C.3   223  ASN223      0.1688
     72  C        122.0830   55.1340  -13.6800 C.2   223  ASN223      0.2292
     73  O        121.2850   55.8460  -14.2920 O.2   223  ASN223     -0.2864
     74  CB       122.1850   54.4780  -11.2990 C.3   223  ASN223      0.1181
     75  CG       122.2100   53.3120  -10.3430 C.2   223  ASN223      0.2629
     76  OD1      121.1800   52.9580   -9.7630 O.2   223  ASN223     -0.2716
     77  ND2      123.3950   52.7200  -10.1480 N.am  223  ASN223     -0.0877
     78  N        115.4620   57.2270  -16.9990 N.3   263  TYR263     -0.1241
     79  CA       114.3000   56.9070  -16.1740 C.3   263  TYR263      0.1605
     80  C        113.0650   57.4570  -16.8800 C.2   263  TYR263      0.2264
     81  O        112.8870   58.6800  -17.0030 O.2   263  TYR263     -0.2867
     82  CB       114.4770   57.4640  -14.7570 C.3   263  TYR263      0.0534
     83  CG       115.5480   56.6610  -14.0230 C.ar  263  TYR263     -0.0201
     84  CD1      116.9090   56.9100  -14.2410 C.ar  263  TYR263     -0.0009
     85  CD2      115.2050   55.6190  -13.1640 C.ar  263  TYR263     -0.0009
     86  CE1      117.8910   56.1660  -13.6070 C.ar  263  TYR263      0.0417
     87  CE2      116.1780   54.8740  -12.5180 C.ar  263  TYR263      0.0417
     88  CZ       117.5200   55.1450  -12.7470 C.ar  263  TYR263      0.1957
     89  OH       118.4830   54.3970  -12.1070 O.3   263  TYR263     -0.2866
@<TRIPOS>BOND
     1    51    52    1
     2    52    53    1
     3    52    55    1
     4    53    54    2
     5    42    41    2
     6    55    56    1
     7    56    57    1
     8    41    40    1
     9    35    34    2
    10    62    63    1
    11    32    33    1
    12    63    64    1
    13    34    39   am
    14    34    33    1
    15    57    58    1
    16    43    40    1
    17    43    44    1
    18    40    39    1
    19    58    59    2
    20    81    80    2
    21    78    79    1
    22    80    79    1
    23    33    36    1
    24    59    60    1
    25    59    61    1
    26    79    82    1
    27    64    65    2
    28    64    66   am
    29    44    46   ar
    30    44    45   ar
    31    46    48   ar
    32    66    67    1
    33    36    37    1
    34    36    38    1
    35    69    68    2
    36    82    83    1
    37    45    47   ar
    38    48    49   ar
    39    73    72    2
    40    67    68    1
    41    84    83   ar
    42    84    86   ar
    43    68    70   am
    44    83    85   ar
    45    72    71    1
    46    86    88   ar
    47    47    49   ar
    48    49    50    1
    49    22    23    1
    50    85    87   ar
    51    24    23    1
    52    24    25    2
    53    70    71    1
    54    23    26    1
    55    88    87   ar
    56    88    89    1
    57    71    74    1
    58    15    14    2
    59    29    27   ar
    60    29    31   ar
    61    26    27    1
    62    74    75    1
    63    27    28   ar
    64    14    13    1
    65    31    30   ar
    66    75    77   am
    67    75    76    2
    68    19    17   ar
    69    19    21   ar
    70    16    13    1
    71    16    17    1
    72    13    12    1
    73    28    30   ar
    74    17    18   ar
    75    21    20   ar
    76    18    20   ar
    77    10    11   ar
    78    10     8   ar
    79    11     9   ar
    80     8     6   ar
    81     9     7   ar
    82     6     7   ar
    83     6     5    1
    84     5     2    1
    85     2     3    1
    86     2     1    1
    87     3     4    2
