@<TRIPOS>MOLECULE
tmp/6bz9B00.pdb
 87 87 0 0 0
SMALL
GASTEIGER

@<TRIPOS>ATOM
      1  N         -7.3450  -25.3810    9.4900 N.3    22  VAL22      -0.1231
      2  CA        -6.5100  -26.3640    8.8030 C.3    22  VAL22       0.1692
      3  C         -7.3550  -27.5440    8.3300 C.2    22  VAL22       0.2593
      4  O         -8.4540  -27.7980    8.8330 O.2    22  VAL22      -0.2718
      5  CB        -5.3740  -26.8400    9.7280 C.3    22  VAL22       0.0266
      6  CG1       -4.5300  -25.6670   10.2210 C.3    22  VAL22       0.0020
      7  CG2       -5.9530  -27.5860   10.9170 C.3    22  VAL22       0.0020
      8  N         -6.8200  -28.2740    7.3410 N.am   23  SER23      -0.1938
      9  CA        -7.3190  -29.5820    6.9260 C.3    23  SER23       0.2055
     10  C         -6.2210  -30.6250    7.1090 C.2    23  SER23       0.2643
     11  O         -5.0350  -30.3300    6.9330 O.2    23  SER23      -0.2714
     12  CB        -7.7740  -29.5850    5.4560 C.3    23  SER23       0.2130
     13  OG        -8.9070  -28.7550    5.2660 O.3    23  SER23      -0.2179
     14  N         -6.6190  -31.8560    7.4320 N.am   24  TRP24      -0.1959
     15  CA        -5.6800  -32.8850    7.8690 C.3    24  TRP24       0.1771
     16  C         -5.4030  -33.9290    6.7910 C.2    24  TRP24       0.2620
     17  O         -6.2480  -34.2160    5.9420 O.2    24  TRP24      -0.2715
     18  CB        -6.2060  -33.5810    9.1160 C.3    24  TRP24       0.0590
     19  CG        -6.1160  -32.6850   10.2870 C.ar   24  TRP24       0.0006
     20  CD1       -7.0740  -31.8190   10.7300 C.ar   24  TRP24       0.0946
     21  CD2       -4.9910  -32.5230   11.1480 C.ar   24  TRP24       0.0152
     22  NE1       -6.6190  -31.1410   11.8310 N.ar   24  TRP24      -0.2442
     23  CE2       -5.3430  -31.5580   12.1130 C.ar   24  TRP24       0.0810
     24  CE3       -3.7210  -33.1110   11.2090 C.ar   24  TRP24       0.0012
     25  CZ2       -4.4730  -31.1580   13.1140 C.ar   24  TRP24       0.0191
     26  CZ3       -2.8560  -32.7190   12.2260 C.ar   24  TRP24       0.0001
     27  CH2       -3.2380  -31.7540   13.1590 C.ar   24  TRP24       0.0015
     28  N         -4.2130  -34.5280    6.8670 N.am   25  ARG25      -0.1963
     29  CA        -3.7740  -35.5160    5.8900 C.3    25  ARG25       0.1729
     30  C         -2.8460  -36.5080    6.5820 C.2    25  ARG25       0.2616
     31  O         -2.1180  -36.1510    7.5150 O.2    25  ARG25      -0.2715
     32  CB        -3.0830  -34.8340    4.6940 C.3    25  ARG25       0.0348
     33  CG        -2.3210  -35.7690    3.7570 C.3    25  ARG25       0.0492
     34  CD        -1.6660  -35.0110    2.5850 C.3    25  ARG25       0.2205
     35  NE        -1.1220  -33.7250    3.0200 N.pl3  25  ARG25      -0.0865
     36  CZ         0.0330  -33.5770    3.6630 C.cat  25  ARG25       0.5346
     37  NH1        0.7790  -34.6360    3.9420 N.pl3  25  ARG25       0.1354
     38  NH2        0.4400  -32.3690    4.0370 N.pl3  25  ARG25       0.1354
     39  N         -2.8950  -37.7660    6.1320 N.am   26  HIS26      -0.1960
     40  CA        -2.0600  -38.8320    6.6540 C.3    26  HIS26       0.1772
     41  C         -1.1660  -39.3950    5.5490 C.2    26  HIS26       0.2462
     42  O         -1.6060  -39.5240    4.4020 O.2    26  HIS26      -0.2730
     43  CB        -2.9340  -39.9510    7.2590 C.3    26  HIS26       0.0785
     44  CG        -2.1590  -41.0150    7.9720 C.ar   26  HIS26       0.0821
     45  ND1       -1.5830  -42.0840    7.3190 N.ar   26  HIS26      -0.2267
     46  CD2       -1.8570  -41.1700    9.2830 C.ar   26  HIS26       0.1154
     47  CE1       -0.9630  -42.8520    8.1950 C.ar   26  HIS26       0.1986
     48  NE2       -1.1140  -42.3200    9.3950 N.ar   26  HIS26      -0.2212
     49  N          0.0940  -39.7220    5.8580 N.am   27  PRO27      -0.2727
     50  CA         1.0290  -40.1220    4.7930 C.3    27  PRO27       0.1402
     51  C          0.6740  -41.4400    4.1400 C.2    27  PRO27       0.2269
     52  O          1.0530  -41.6690    2.9860 O.2    27  PRO27      -0.2865
     53  CB         2.3810  -40.2160    5.5200 C.3    27  PRO27       0.0296
     54  CG         2.1830  -39.5530    6.8390 C.3    27  PRO27       0.0237
     55  CD         0.7400  -39.7230    7.1780 C.3    27  PRO27       0.0939
     56  N         -2.7150  -43.1290    4.6950 N.3    29  MET29      -0.1245
     57  CA        -4.1410  -43.2070    4.4200 C.3    29  MET29       0.1570
     58  C         -4.6620  -42.0520    3.5690 C.2    29  MET29       0.2261
     59  O         -5.8230  -42.0900    3.1510 O.2    29  MET29      -0.2867
     60  CB        -4.9200  -43.2710    5.7400 C.3    29  MET29       0.0387
     61  CG        -4.7710  -44.5980    6.4740 C.3    29  MET29       0.0595
     62  SD        -5.6770  -44.6490    8.0360 S.3    29  MET29      -0.1393
     63  CE        -4.6660  -43.5810    9.0610 C.3    29  MET29       0.0692
     64  N         -5.5920  -37.8990    2.5630 N.3    31  SER31      -0.1202
     65  CA        -6.3160  -36.7890    3.1720 C.3    31  SER31       0.2020
     66  C         -7.6520  -37.2610    3.7250 C.2    31  SER31       0.2618
     67  O         -8.3960  -37.9880    3.0640 O.2    31  SER31      -0.2717
     68  CB        -6.5430  -35.6640    2.1620 C.3    31  SER31       0.2103
     69  OG        -5.3150  -35.1440    1.6900 O.3    31  SER31      -0.2182
     70  N         -7.9500  -36.8390    4.9530 N.am   32  VAL32      -0.1979
     71  CA        -9.1420  -37.3230    5.6390 C.3    32  VAL32       0.1595
     72  C        -10.4030  -36.9650    4.8610 C.2    32  VAL32       0.2287
     73  O        -11.2950  -37.8030    4.6820 O.2    32  VAL32      -0.2864
     74  CB        -9.1890  -36.7600    7.0710 C.3    32  VAL32       0.0276
     75  CG1      -10.3810  -37.3340    7.8150 C.3    32  VAL32       0.0022
     76  CG2       -7.8610  -37.0600    7.7880 C.3    32  VAL32       0.0022
     77  N         -8.1270  -34.0240   15.6640 N.3    67  ARG67      -0.1245
     78  CA        -7.8590  -33.2980   14.4190 C.3    67  ARG67       0.1563
     79  C         -9.1790  -32.8210   13.8310 C.2    67  ARG67       0.2260
     80  O         -9.5970  -33.2600   12.7520 O.2    67  ARG67      -0.2867
     81  CB        -7.0970  -34.1680   13.4240 C.3    67  ARG67       0.0307
     82  CG        -6.0850  -35.0730   14.0290 C.3    67  ARG67       0.0489
     83  CD        -5.6910  -36.1550   13.0500 C.3    67  ARG67       0.2205
     84  NE        -6.7020  -37.2000   12.9860 N.pl3  67  ARG67      -0.0865
     85  CZ        -6.7230  -38.2670   13.7750 C.cat  67  ARG67       0.5346
     86  NH1       -5.7790  -38.4370   14.6940 N.pl3  67  ARG67       0.1354
     87  NH2       -7.6890  -39.1650   13.6430 N.pl3  67  ARG67       0.1354
@<TRIPOS>BOND
     1    69    68    1
     2    68    65    1
     3    64    65    1
     4    34    35    1
     5    34    33    1
     6    52    51    2
     7    35    36    2
     8    67    66    2
     9    59    58    2
    10    65    66    1
    11    58    57    1
    12    36    37    1
    13    36    38    1
    14    66    70   am
    15    33    32    1
    16    51    50    1
    17    42    41    2
    18    57    56    1
    19    57    60    1
    20    73    72    2
    21    32    29    1
    22    50    53    1
    23    50    49    1
    24    72    71    1
    25    70    71    1
    26    13    12    1
    27    12     9    1
    28    53    54    1
    29    41    49   am
    30    41    40    1
    31    71    74    1
    32    60    61    1
    33    49    55    1
    34    29    30    1
    35    29    28    1
    36    17    16    2
    37    39    30   am
    38    39    40    1
    39    61    62    1
    40    30    31    2
    41    40    43    1
    42    16    28   am
    43    16    15    1
    44    54    55    1
    45     9    10    1
    46     9     8    1
    47    11    10    2
    48    74    76    1
    49    74    75    1
    50    10    14   am
    51    43    44    1
    52    45    44   ar
    53    45    47   ar
    54     8     3   am
    55    14    15    1
    56    15    18    1
    57    44    46   ar
    58    62    63    1
    59    47    48   ar
    60     3     2    1
    61     3     4    2
    62     2     1    1
    63     2     5    1
    64    18    19    1
    65    46    48   ar
    66     5     6    1
    67     5     7    1
    68    19    20   ar
    69    19    21   ar
    70    20    22   ar
    71    21    24   ar
    72    21    23   ar
    73    24    26   ar
    74    22    23   ar
    75    23    25   ar
    76    26    27   ar
    77    80    79    2
    78    84    83    1
    79    84    85    2
    80    83    82    1
    81    25    27   ar
    82    81    82    1
    83    81    78    1
    84    87    85    1
    85    85    86    1
    86    79    78    1
    87    78    77    1
