@<TRIPOS>MOLECULE
tmp/6bzcA00.pdb
 116 106 0 0 0
SMALL
GASTEIGER

@<TRIPOS>ATOM
      1  N         21.7690   11.2130   -7.2070 N.3   156  ILE156     -0.1231
      2  CA        20.8510   10.7290   -8.2310 C.3   156  ILE156      0.1692
      3  C         21.1230   11.4720   -9.5340 C.2   156  ILE156      0.2593
      4  O         21.6650   12.5790   -9.5380 O.2   156  ILE156     -0.2718
      5  CB        19.3880   10.9020   -7.7780 C.3   156  ILE156      0.0266
      6  CG1       18.4340   10.1060   -8.6740 C.3   156  ILE156      0.0019
      7  CG2       19.0350   12.3930   -7.6750 C.3   156  ILE156      0.0020
      8  CD1       17.1840    9.5840   -7.9400 C.3   156  ILE156      0.0001
      9  N         20.7270   10.8450  -10.6510 N.am  157  GLY157     -0.1942
     10  CA        21.0300   11.3660  -11.9750 C.3   157  GLY157      0.2014
     11  C         22.4750   11.8180  -12.1150 C.2   157  GLY157      0.2639
     12  O         23.4010   10.9990  -12.0600 O.2   157  GLY157     -0.2714
     13  N         22.6730   13.1350  -12.2430 N.am  158  GLY158     -0.1939
     14  CA        23.9920   13.6570  -12.5230 C.3   158  GLY158      0.2014
     15  C         24.9700   13.3970  -11.4000 C.2   158  GLY158      0.2639
     16  O         26.1770   13.3080  -11.6300 O.2   158  GLY158     -0.2714
     17  N         24.4670   13.2550  -10.1780 N.am  159  SER159     -0.1949
     18  CA        25.3110   12.9640   -9.0320 C.3   159  SER159      0.1924
     19  C         25.5610   11.4760   -8.8530 C.2   159  SER159      0.2314
     20  O         26.2960   11.0970   -7.9320 O.2   159  SER159     -0.2863
     21  CB        24.6840   13.5460   -7.7610 C.3   159  SER159      0.2116
     22  OG        24.5500   14.9530   -7.8670 O.3   159  SER159     -0.2180
     23  N         25.1640   16.1620   -4.3890 N.3   208  SER208     -0.1202
     24  CA        23.9530   16.7840   -4.8980 C.3   208  SER208      0.2020
     25  C         24.2880   18.2360   -5.1890 C.2   208  SER208      0.2619
     26  O         24.6460   18.9740   -4.2650 O.2   208  SER208     -0.2717
     27  CB        22.7970   16.6610   -3.8900 C.3   208  SER208      0.2103
     28  OG        21.6200   17.2470   -4.4070 O.3   208  SER208     -0.2182
     29  N         24.1890   18.6210   -6.4700 N.am  209  LYS209     -0.1965
     30  CA        24.4670   19.9940   -6.8790 C.3   209  LYS209      0.1728
     31  C         23.6690   20.9810   -6.0420 C.2   209  LYS209      0.2616
     32  O         24.2290   21.9140   -5.4500 O.2   209  LYS209     -0.2715
     33  CB        24.1480   20.1740   -8.3710 C.3   209  LYS209      0.0311
     34  CG        24.4820   21.5660   -8.9280 C.3   209  LYS209      0.0038
     35  CD        24.2600   21.6630  -10.4490 C.3   209  LYS209      0.0206
     36  CE        24.5150   23.0860  -10.9630 C.3   209  LYS209      0.1093
     37  NZ        23.9760   23.3050  -12.3540 N.3   209  LYS209     -0.1314
     38  N         22.3500   20.7770   -5.9850 N.am  210  THR210     -0.1951
     39  CA        21.4440   21.6490   -5.2560 C.3   210  THR210      0.1897
     40  C         21.4570   21.3550   -3.7750 C.2   210  THR210      0.2313
     41  O         21.1610   22.2430   -2.9730 O.2   210  THR210     -0.2863
     42  CB        20.0080   21.4630   -5.7450 C.3   210  THR210      0.1794
     43  OG1       19.6240   20.1050   -5.4950 O.3   210  THR210     -0.2208
     44  CG2       19.8490   21.7960   -7.2500 C.3   210  THR210      0.0378
     45  N         17.6330   17.8190   -3.3940 N.3   213  THR213     -0.1218
     46  CA        16.9570   16.6860   -4.0130 C.3   213  THR213      0.1862
     47  C         16.4290   15.7200   -2.9620 C.2   213  THR213      0.2287
     48  O         17.1530   15.3120   -2.0520 O.2   213  THR213     -0.2866
     49  CB        17.9210   15.9660   -4.9530 C.3   213  THR213      0.1770
     50  OG1       18.1890   16.7920   -6.0970 O.3   213  THR213     -0.2211
     51  CG2       17.3410   14.6320   -5.4070 C.3   213  THR213      0.0375
     52  N         18.3130   11.9880   -2.6860 N.3   216  THR216     -0.1218
     53  CA        19.6180   12.1400   -2.0520 C.3   216  THR216      0.1862
     54  C         19.5020   12.4760   -0.5690 C.2   216  THR216      0.2287
     55  O         20.1200   11.8210    0.2750 O.2   216  THR216     -0.2866
     56  CB        20.3910   13.2260   -2.7890 C.3   216  THR216      0.1770
     57  OG1       20.2790   12.9970   -4.2010 O.3   216  THR216     -0.2211
     58  CG2       21.8400   13.2110   -2.3980 C.3   216  THR216      0.0375
     59  N         24.4940   19.0250  -14.1470 N.3   269  GLY269     -0.1210
     60  CA        24.5920   17.7430  -13.4580 C.3   269  GLY269      0.1956
     61  C         25.1080   16.6390  -14.3600 C.2   269  GLY269      0.2611
     62  O         26.0410   15.9100  -14.0020 O.2   269  GLY269     -0.2717
     63  N         24.5190   16.5170  -15.5550 N.am  270  ARG270     -0.1979
     64  CA        24.8980   15.4990  -16.5290 C.3   270  ARG270      0.1597
     65  C         26.2140   15.8050  -17.2260 C.2   270  ARG270      0.2287
     66  O         26.6130   15.0530  -18.1200 O.2   270  ARG270     -0.2864
     67  CB        23.7890   15.3240  -17.5710 C.3   270  ARG270      0.0334
     68  CG        23.3100   16.6190  -18.2160 C.3   270  ARG270      0.0492
     69  CD        21.9980   16.3870  -18.9860 C.3   270  ARG270      0.2205
     70  NE        21.4960   17.6130  -19.6030 N.pl3 270  ARG270     -0.0865
     71  CZ        20.7320   18.5000  -18.9700 C.cat 270  ARG270      0.5346
     72  NH1       20.3800   18.2770  -17.7080 N.pl3 270  ARG270      0.1354
     73  NH2       20.3210   19.6110  -19.5890 N.pl3 270  ARG270      0.1354
     74  N         21.1180   10.1280  -19.9060 N.3   351  GLN351     -0.1245
     75  CA        20.8980   11.4290  -19.2880 C.3   351  GLN351      0.1566
     76  C         21.5900   12.5300  -20.0750 C.2   351  GLN351      0.2260
     77  O         20.9790   13.5590  -20.3800 O.2   351  GLN351     -0.2867
     78  CB        21.3710   11.4540  -17.8350 C.3   351  GLN351      0.0367
     79  CG        21.0790   12.8160  -17.1950 C.3   351  GLN351      0.0905
     80  CD        21.7250   13.0070  -15.8370 C.2   351  GLN351      0.2608
     81  OE1       22.3230   12.0850  -15.2970 O.2   351  GLN351     -0.2717
     82  NE2       21.6050   14.2160  -15.2770 N.am  351  GLN351     -0.0878
     83  N         18.2030   14.0340  -21.6130 N.3   355  GLU355     -0.1245
     84  CA        17.8410   15.1770  -20.7690 C.3   355  GLU355      0.1567
     85  C         18.3530   16.5000  -21.3330 C.2   355  GLU355      0.2260
     86  O         17.7590   17.5540  -21.0500 O.2   355  GLU355     -0.2867
     87  CB        18.3490   15.0110  -19.3270 C.3   355  GLU355      0.0388
     88  CG        17.6880   16.0130  -18.3530 C.3   355  GLU355      0.1160
     89  CD        18.0900   15.8400  -16.8650 C.2   355  GLU355      0.3649
     90  OE1       17.2470   15.3810  -16.0660 O.co2 355  GLU355     -0.2457
     91  OE2       19.2300   16.2080  -16.4930 O.co2 355  GLU355     -0.2457
     92  N         16.7550   21.8890  -17.8340 N.3   507  GLN507     -0.1245
     93  CA        15.9170   20.7080  -17.7450 C.3   507  GLN507      0.1566
     94  C         14.6250   21.0890  -17.0270 C.2   507  GLN507      0.2260
     95  O         14.3050   20.6000  -15.9500 O.2   507  GLN507     -0.2867
     96  CB        16.6510   19.5580  -17.0570 C.3   507  GLN507      0.0367
     97  CG        17.2330   19.8840  -15.6890 C.3   507  GLN507      0.0905
     98  CD        18.4700   20.7490  -15.7710 C.2   507  GLN507      0.2608
     99  OE1       19.3420   20.5320  -16.6160 O.2   507  GLN507     -0.2717
    100  NE2       18.5470   21.7440  -14.9040 N.am  507  GLN507     -0.0878
    101  N         11.5870   18.4100  -15.6260 N.3   510  VAL510     -0.1245
    102  CA        11.4790   17.6170  -14.3960 C.3   510  VAL510      0.1561
    103  C         10.5730   18.2660  -13.3580 C.2   510  VAL510      0.2260
    104  O         10.2450   17.6250  -12.3460 O.2   510  VAL510     -0.2867
    105  CB        12.8540   17.3570  -13.7340 C.3   510  VAL510      0.0252
    106  CG1       13.7580   16.4920  -14.6170 C.3   510  VAL510      0.0019
    107  CG2       13.5520   18.6790  -13.3760 C.3   510  VAL510      0.0019
    108  N          8.0260   16.6190  -10.0170 N.3   514  LYS514     -0.1245
    109  CA         8.4400   16.9790   -8.6610 C.3   514  LYS514      0.1561
    110  C          7.3070   17.6320   -7.8710 C.2   514  LYS514      0.2260
    111  O          7.1150   17.3280   -6.6850 O.2   514  LYS514     -0.2867
    112  CB         9.6370   17.9230   -8.7140 C.3   514  LYS514      0.0271
    113  CG        10.9610   17.2290   -8.9070 C.3   514  LYS514      0.0035
    114  CD        12.1100   18.2150   -8.8790 C.3   514  LYS514      0.0206
    115  CE        13.3960   17.4640   -9.0090 C.3   514  LYS514      0.1093
    116  NZ        13.2370   16.4820  -10.0870 N.3   514  LYS514     -0.1314
@<TRIPOS>BOND
     1    83    84    1
     2    85    86    2
     3    85    84    1
     4    84    87    1
     5    77    76    2
     6    76    75    1
     7    74    75    1
     8    70    69    1
     9    70    71    2
    10    73    71    1
    11    87    88    1
    12    75    78    1
    13    69    68    1
    14    71    72    1
    15    88    89    1
    16    68    67    1
    17    66    65    2
    18    78    79    1
    19    92    93    1
    20    93    96    1
    21    93    94    1
    22    67    64    1
    23    65    64    1
    24    79    80    1
    25    96    97    1
    26    94    95    2
    27    89    91   ar
    28    89    90   ar
    29    99    98    2
    30    64    63    1
    31    80    81    2
    32    80    82   am
    33    98    97    1
    34    98   100   am
    35   101   102    1
    36    63    61   am
    37   106   105    1
    38   102   105    1
    39   102   103    1
    40    61    62    2
    41    61    60    1
    42    59    60    1
    43   105   107    1
    44   103   104    2
    45    14    13    1
    46    14    15    1
    47    37    36    1
    48    13    11   am
    49    11    12    2
    50    11    10    1
    51    10     9    1
    52    16    15    2
    53    15    17   am
    54    36    35    1
    55     9     3   am
    56    35    34    1
    57    17    18    1
    58   116   115    1
    59   108   109    1
    60     4     3    2
    61     3     2    1
    62    18    19    1
    63    18    21    1
    64   115   114    1
    65    34    33    1
    66   113   114    1
    67   113   112    1
    68    19    20    2
    69   112   109    1
    70     6     8    1
    71     6     5    1
    72   109   110    1
    73    33    30    1
    74     2     5    1
    75     2     1    1
    76   110   111    2
    77    22    21    1
    78     5     7    1
    79    44    42    1
    80    30    29    1
    81    30    31    1
    82    29    25   am
    83    50    49    1
    84    31    38   am
    85    31    32    2
    86    38    39    1
    87    42    43    1
    88    42    39    1
    89    51    49    1
    90    39    40    1
    91    25    24    1
    92    25    26    2
    93    49    46    1
    94    24    23    1
    95    24    27    1
    96    28    27    1
    97    57    56    1
    98    46    45    1
    99    46    47    1
   100    40    41    2
   101    47    48    2
   102    56    58    1
   103    56    53    1
   104    52    53    1
   105    53    54    1
   106    54    55    2
