@<TRIPOS>MOLECULE
tmp/6bzrA00.pdb
 106 102 0 0 0
SMALL
GASTEIGER

@<TRIPOS>ATOM
      1  N        -15.5340   -6.9320   52.5560 N.3    13  TYR13      -0.1227
      2  CA       -15.8820   -8.2960   52.8550 C.3    13  TYR13       0.1736
      3  C        -15.7050   -9.2360   51.6940 C.2    13  TYR13       0.2595
      4  O        -15.5230  -10.4180   51.8630 O.2    13  TYR13      -0.2718
      5  CB       -17.2800   -8.3380   53.4070 C.3    13  TYR13       0.0548
      6  CG       -17.3690   -7.8140   54.8030 C.ar   13  TYR13      -0.0200
      7  CD1      -17.3730   -6.4880   55.0590 C.ar   13  TYR13      -0.0009
      8  CD2      -17.4460   -8.6580   55.8580 C.ar   13  TYR13      -0.0009
      9  CE1      -17.4650   -6.0240   56.3400 C.ar   13  TYR13       0.0417
     10  CE2      -17.5330   -8.1950   57.1330 C.ar   13  TYR13       0.0417
     11  CZ       -17.5300   -6.8680   57.3650 C.ar   13  TYR13       0.1957
     12  OH       -17.6200   -6.3830   58.6330 O.3    13  TYR13      -0.2866
     13  N        -15.7640   -8.6870   50.5020 N.am   14  ARG14      -0.1980
     14  CA       -15.5800   -9.4180   49.2680 C.3    14  ARG14       0.1597
     15  C        -14.8200   -8.5200   48.3370 C.2    14  ARG14       0.2287
     16  O        -14.9060   -7.3240   48.4350 O.2    14  ARG14      -0.2864
     17  CB       -16.9070   -9.7680   48.6160 C.3    14  ARG14       0.0334
     18  CG       -17.8850  -10.5600   49.4520 C.3    14  ARG14       0.0492
     19  CD       -18.9110  -11.2610   48.5830 C.3    14  ARG14       0.2205
     20  NE       -20.2610  -11.1160   49.0970 N.pl3  14  ARG14      -0.0865
     21  CZ       -21.2140  -10.4160   48.5090 C.cat  14  ARG14       0.5346
     22  NH1      -20.9920   -9.8060   47.3700 N.pl3  14  ARG14       0.1354
     23  NH2      -22.3970  -10.3350   49.0700 N.pl3  14  ARG14       0.1354
     24  N        -16.8860   -5.8080   46.3640 N.3    17  LEU17      -0.1245
     25  CA       -17.6210   -4.7980   47.0860 C.3    17  LEU17       0.1561
     26  C        -16.8410   -3.5930   47.4590 C.2    17  LEU17       0.2260
     27  O        -15.6430   -3.6330   47.5090 O.2    17  LEU17      -0.2867
     28  CB       -18.1900   -5.4140   48.3440 C.3    17  LEU17       0.0270
     29  CG       -19.2630   -6.4680   48.1720 C.3    17  LEU17       0.0019
     30  CD1      -19.2230   -7.3960   49.3560 C.3    17  LEU17       0.0001
     31  CD2      -20.6080   -5.7870   48.0700 C.3    17  LEU17       0.0001
     32  N        -16.0900   -1.6370   53.3230 N.3    20  ALA20      -0.1245
     33  CA       -17.0830   -1.6490   54.3670 C.3    20  ALA20       0.1562
     34  C        -16.7840   -0.5500   55.3490 C.2    20  ALA20       0.2260
     35  O        -17.6590    0.1480   55.8230 O.2    20  ALA20      -0.2867
     36  CB       -17.0820   -2.9940   55.0570 C.3    20  ALA20       0.0290
     37  N        -25.0300    3.4090   63.7530 N.3    39  ARG39      -0.1231
     38  CA       -26.2070    2.7110   63.2890 C.3    39  ARG39       0.1694
     39  C        -25.8280    1.4130   62.6150 C.2    39  ARG39       0.2593
     40  O        -24.6850    1.1260   62.3770 O.2    39  ARG39      -0.2718
     41  CB       -27.0050    3.5460   62.3100 C.3    39  ARG39       0.0321
     42  CG       -27.0690    5.0200   62.5770 C.3    39  ARG39       0.0489
     43  CD       -28.2760    5.5760   61.8670 C.3    39  ARG39       0.2205
     44  NE       -28.2010    7.0030   61.6620 N.pl3  39  ARG39      -0.0865
     45  CZ       -28.8960    7.8860   62.3460 C.cat  39  ARG39       0.5346
     46  NH1      -29.7170    7.4890   63.2780 N.pl3  39  ARG39       0.1354
     47  NH2      -28.7690    9.1610   62.0910 N.pl3  39  ARG39       0.1354
     48  N        -26.8140    0.6140   62.2870 N.am   40  THR40      -0.1939
     49  CA       -26.5320   -0.6210   61.6320 C.3    40  THR40       0.2028
     50  C        -25.9380   -0.2540   60.3090 C.2    40  THR40       0.2643
     51  O        -26.4630    0.5590   59.5810 O.2    40  THR40      -0.2714
     52  CB       -27.8070   -1.4020   61.4130 C.3    40  THR40       0.1808
     53  OG1      -28.6310   -0.6760   60.5140 O.3    40  THR40      -0.2208
     54  CG2      -28.5170   -1.5650   62.6930 C.3    40  THR40       0.0379
     55  N        -24.8150   -0.8710   60.0300 N.am   41  GLY41      -0.1939
     56  CA       -24.0820   -0.6050   58.8390 C.3    41  GLY41       0.2014
     57  C        -22.9630    0.3990   58.9050 C.2    41  GLY41       0.2639
     58  O        -22.2510    0.5910   57.9560 O.2    41  GLY41      -0.2714
     59  N        -22.8160    1.0300   60.0470 N.am   42  ALA42      -0.1963
     60  CA       -21.7920    2.0200   60.2970 C.3    42  ALA42       0.1728
     61  C        -20.3660    1.5360   60.3340 C.2    42  ALA42       0.2617
     62  O        -19.4850    2.2710   60.0310 O.2    42  ALA42      -0.2715
     63  CB       -22.1070    2.8230   61.5310 C.3    42  ALA42       0.0334
     64  N        -20.1270    0.3080   60.7300 N.am   43  GLY43      -0.1940
     65  CA       -18.7690   -0.1580   60.7970 C.3    43  GLY43       0.2014
     66  C        -18.2410   -0.6160   62.1220 C.2    43  GLY43       0.2639
     67  O        -17.0690   -0.7710   62.2760 O.2    43  GLY43      -0.2714
     68  N        -19.1020   -0.7260   63.1050 N.am   44  LYS44      -0.1963
     69  CA       -18.7090   -1.2150   64.3960 C.3    44  LYS44       0.1728
     70  C        -18.2480   -2.6540   64.4020 C.2    44  LYS44       0.2617
     71  O        -17.2480   -2.9550   65.0000 O.2    44  LYS44      -0.2715
     72  CB       -19.8460   -1.0210   65.3550 C.3    44  LYS44       0.0311
     73  CG       -20.5900    0.2430   65.0840 C.3    44  LYS44       0.0038
     74  CD       -21.6640    0.4420   66.1030 C.3    44  LYS44       0.0206
     75  CE       -22.6180   -0.7110   66.1730 C.3    44  LYS44       0.1093
     76  NZ       -23.5280   -0.7350   65.0140 N.3    44  LYS44      -0.1314
     77  N        -18.9590   -3.5510   63.7350 N.am   45  SER45      -0.1936
     78  CA       -18.5250   -4.9450   63.6610 C.3    45  SER45       0.2055
     79  C        -17.2990   -5.1630   62.7840 C.2    45  SER45       0.2643
     80  O        -16.5770   -6.1150   62.9310 O.2    45  SER45      -0.2714
     81  CB       -19.6600   -5.9090   63.3440 C.3    45  SER45       0.2130
     82  OG       -19.7680   -6.2120   61.9810 O.3    45  SER45      -0.2179
     83  N        -17.1040   -4.2770   61.8370 N.am   46  SER46      -0.1949
     84  CA       -15.9970   -4.3630   60.9450 C.3    46  SER46       0.1924
     85  C        -14.7310   -4.0530   61.6440 C.2    46  SER46       0.2314
     86  O        -13.6980   -4.5370   61.2550 O.2    46  SER46      -0.2863
     87  CB       -16.1870   -3.4330   59.7760 C.3    46  SER46       0.2116
     88  OG       -17.1980   -3.9350   58.9550 O.3    46  SER46      -0.2180
     89  N        -19.0420   -3.0210   71.4900 N.3   190  ILE190     -0.1245
     90  CA       -19.7890   -2.5400   70.3590 C.3   190  ILE190      0.1561
     91  C        -21.2150   -2.4800   70.8180 C.2   190  ILE190      0.2260
     92  O        -21.8650   -3.4730   70.9900 O.2   190  ILE190     -0.2867
     93  CB       -19.6820   -3.4830   69.1830 C.3   190  ILE190      0.0252
     94  CG1      -18.2350   -3.7810   68.8830 C.3   190  ILE190      0.0019
     95  CG2      -20.3010   -2.8710   67.9660 C.3   190  ILE190      0.0019
     96  CD1      -18.0700   -4.5230   67.5940 C.3   190  ILE190      0.0001
     97  N        -25.2430   -1.2490   70.7060 N.3   192  HIS192     -0.1241
     98  CA       -26.3870   -0.9490   69.9000 C.3   192  HIS192      0.1621
     99  C        -27.3890   -0.0990   70.6230 C.2   192  HIS192      0.2264
    100  O        -28.3930    0.2840   70.0610 O.2   192  HIS192     -0.2867
    101  CB       -26.9790   -2.2320   69.4090 C.3   192  HIS192      0.0745
    102  CG       -25.9540   -3.1680   68.8860 C.ar  192  HIS192      0.0817
    103  ND1      -25.4290   -3.0620   67.6310 N.ar  192  HIS192     -0.2268
    104  CD2      -25.3270   -4.1990   69.4690 C.ar  192  HIS192      0.1154
    105  CE1      -24.5350   -4.0050   67.4490 C.ar  192  HIS192      0.1986
    106  NE2      -24.4600   -4.7140   68.5510 N.ar  192  HIS192     -0.2212
@<TRIPOS>BOND
     1    24    25    1
     2    25    26    1
     3    25    28    1
     4    22    21    1
     5    26    27    2
     6    31    29    1
     7    29    28    1
     8    29    30    1
     9    15    16    2
    10    15    14    1
    11    21    23    1
    12    21    20    2
    13    19    20    1
    14    19    18    1
    15    17    14    1
    16    17    18    1
    17    14    13    1
    18    13     3   am
    19     3     4    2
    20     3     2    1
    21     1     2    1
    22     2     5    1
    23    32    33    1
    24     5     6    1
    25    33    36    1
    26    33    34    1
    27     6     7   ar
    28     6     8   ar
    29     7     9   ar
    30    34    35    2
    31     8    10   ar
    32     9    11   ar
    33    10    11   ar
    34    11    12    1
    35    58    57    2
    36    56    57    1
    37    56    55    1
    38    57    59   am
    39    88    87    1
    40    51    50    2
    41    87    84    1
    42    55    50   am
    43    62    61    2
    44    59    60    1
    45    60    61    1
    46    60    63    1
    47    50    49    1
    48    61    64   am
    49    53    52    1
    50    64    65    1
    51    65    66    1
    52    84    85    1
    53    84    83    1
    54    86    85    2
    55    52    49    1
    56    52    54    1
    57    49    48    1
    58    44    43    1
    59    44    45    2
    60    83    79   am
    61    43    42    1
    62    82    81    1
    63    47    45    1
    64    66    67    2
    65    66    68   am
    66    48    39   am
    67    41    42    1
    68    41    38    1
    69    45    46    1
    70    40    39    2
    71    39    38    1
    72    79    80    2
    73    79    78    1
    74    68    69    1
    75    38    37    1
    76    81    78    1
    77    78    77    1
    78    77    70   am
    79    69    70    1
    80    69    72    1
    81    70    71    2
    82    76    75    1
    83    73    72    1
    84    73    74    1
    85    74    75    1
    86   105   103   ar
    87   105   106   ar
    88    96    94    1
    89   103   102   ar
    90    95    93    1
    91   106   104   ar
    92    94    93    1
    93   102   101    1
    94   102   104   ar
    95    93    90    1
    96   101    98    1
    97    98    99    1
    98    98    97    1
    99   100    99    2
   100    90    91    1
   101    90    89    1
   102    91    92    2
