@<TRIPOS>MOLECULE
tmp/6c01A06.pdb
 98 96 0 0 0
SMALL
GASTEIGER

@<TRIPOS>ATOM
      1  N        105.2330  151.7980   56.8210 N.3   164  LEU164     -0.1231
      2  CA       104.0520  151.3720   56.0780 C.3   164  LEU164      0.1693
      3  C        103.3630  150.2000   56.7640 C.2   164  LEU164      0.2592
      4  O        104.0220  149.3080   57.3110 O.2   164  LEU164     -0.2718
      5  CB       104.4210  150.9520   54.6530 C.3   164  LEU164      0.0284
      6  CG       104.8680  152.0580   53.6950 C.3   164  LEU164      0.0019
      7  CD1      105.3990  151.4300   52.4260 C.3   164  LEU164      0.0001
      8  CD2      103.7270  153.0320   53.3900 C.3   164  LEU164      0.0001
      9  N        102.0320  150.1900   56.7130 N.am  165  TYR165     -0.1976
     10  CA       101.3040  148.9940   57.0970 C.3   165  TYR165      0.1639
     11  C        101.6760  147.8530   56.1500 C.2   165  TYR165      0.2290
     12  O        101.9400  148.0840   54.9650 O.2   165  TYR165     -0.2864
     13  CB        99.7970  149.2260   57.0420 C.3   165  TYR165      0.0560
     14  CG        99.2950  150.3040   57.9700 C.ar  165  TYR165     -0.0198
     15  CD1       99.4110  150.1640   59.3430 C.ar  165  TYR165     -0.0009
     16  CD2       98.6940  151.4550   57.4740 C.ar  165  TYR165     -0.0009
     17  CE1       98.9480  151.1490   60.2040 C.ar  165  TYR165      0.0417
     18  CE2       98.2270  152.4450   58.3230 C.ar  165  TYR165      0.0417
     19  CZ        98.3590  152.2830   59.6910 C.ar  165  TYR165      0.1957
     20  OH        97.9020  153.2520   60.5530 O.3   165  TYR165     -0.2866
     21  N         99.8560  145.7240   54.5770 N.3   167  GLU167     -0.1231
     22  CA        99.0260  145.7110   53.3760 C.3   167  GLU167      0.1699
     23  C         99.5810  146.6330   52.2970 C.2   167  GLU167      0.2592
     24  O         99.3410  146.4000   51.1030 O.2   167  GLU167     -0.2718
     25  CB        97.5740  146.0950   53.7220 C.3   167  GLU167      0.0402
     26  CG        97.3960  147.4990   54.2670 C.3   167  GLU167      0.1161
     27  CD        95.9280  147.8710   54.5300 C.2   167  GLU167      0.3649
     28  OE1       95.6290  149.0870   54.6170 O.co2 167  GLU167     -0.2457
     29  OE2       95.0760  146.9580   54.6590 O.co2 167  GLU167     -0.2457
     30  N        100.3400  147.6580   52.6830 N.am  168  SER168     -0.1952
     31  CA       100.9100  148.5770   51.7040 C.3   168  SER168      0.1924
     32  C        102.3120  148.1710   51.2640 C.2   168  SER168      0.2314
     33  O        102.6640  148.3570   50.0940 O.2   168  SER168     -0.2863
     34  CB       100.9370  149.9960   52.2670 C.3   168  SER168      0.2116
     35  OG        99.6220  150.5090   52.3740 O.3   168  SER168     -0.2180
     36  N         94.3170  147.5590   59.8970 N.3   397  HIS397     -0.1241
     37  CA        94.7360  147.9310   58.5520 C.3   397  HIS397      0.1621
     38  C         95.2810  146.7260   57.7860 C.2   397  HIS397      0.2264
     39  O         96.3290  146.7880   57.1370 O.2   397  HIS397     -0.2867
     40  CB        95.7640  149.0610   58.6120 C.3   397  HIS397      0.0745
     41  CG        95.2190  150.3420   59.1580 C.ar  397  HIS397      0.0817
     42  ND1       94.4260  151.1890   58.4130 N.ar  397  HIS397     -0.2268
     43  CD2       95.3500  150.9220   60.3730 C.ar  397  HIS397      0.1154
     44  CE1       94.0950  152.2370   59.1460 C.ar  397  HIS397      0.1986
     45  NE2       94.6430  152.0990   60.3400 N.ar  397  HIS397     -0.2212
     46  N        106.4280  158.8780   51.3800 N.3   479  PRO479     -0.2102
     47  CA       105.0590  158.7980   51.9060 C.3   479  PRO479      0.1504
     48  C        104.8410  157.5020   52.6780 C.2   479  PRO479      0.2576
     49  O        105.1110  156.4050   52.1810 O.2   479  PRO479     -0.2718
     50  CB       104.1850  158.8800   50.6480 C.3   479  PRO479      0.0282
     51  CG       105.1130  158.6920   49.4840 C.3   479  PRO479      0.0208
     52  CD       106.4560  159.1370   49.9310 C.3   479  PRO479      0.0893
     53  N        104.3640  157.6410   53.9130 N.am  480  ASN480     -0.1961
     54  CA       104.2090  156.5060   54.8110 C.3   480  ASN480      0.1819
     55  C        103.0160  156.7720   55.7250 C.2   480  ASN480      0.2621
     56  O        102.3460  157.8040   55.6220 O.2   480  ASN480     -0.2715
     57  CB       105.5100  156.2480   55.5970 C.3   480  ASN480      0.1195
     58  CG       105.8380  157.3570   56.6010 C.2   480  ASN480      0.2630
     59  OD1      105.5820  157.2170   57.7970 O.2   480  ASN480     -0.2716
     60  ND2      106.4130  158.4520   56.1170 N.am  480  ASN480     -0.0877
     61  N        102.7510  155.8270   56.6290 N.am  481  ASN481     -0.1972
     62  CA       101.5660  155.8630   57.4720 C.3   481  ASN481      0.1688
     63  C        101.8390  156.4130   58.8530 C.2   481  ASN481      0.2292
     64  O        100.8960  156.5800   59.6330 O.2   481  ASN481     -0.2864
     65  CB       100.9700  154.4660   57.5820 C.3   481  ASN481      0.1181
     66  CG       100.7400  153.8590   56.2290 C.2   481  ASN481      0.2629
     67  OD1      101.2090  152.7610   55.9290 O.2   481  ASN481     -0.2716
     68  ND2      100.0220  154.5910   55.3870 N.am  481  ASN481     -0.0877
     69  N         90.2890  150.3240   51.8680 N.3   704  ASP704     -0.1225
     70  CA        91.6630  150.8030   51.7970 C.3   704  ASP704      0.1805
     71  C         92.0130  151.7530   52.9360 C.2   704  ASP704      0.2598
     72  O         93.1270  152.2870   52.9630 O.2   704  ASP704     -0.2718
     73  CB        91.9260  151.4830   50.4460 C.3   704  ASP704      0.1424
     74  CG        91.2950  152.8740   50.3370 C.2   704  ASP704      0.3668
     75  OD1       90.3500  153.1850   51.0880 O.co2 704  ASP704     -0.2456
     76  OD2       91.7520  153.6610   49.4780 O.co2 704  ASP704     -0.2456
     77  N         91.1010  151.9710   53.8790 N.am  705  GLY705     -0.1942
     78  CA        91.3660  152.8220   55.0180 C.3   705  GLY705      0.2014
     79  C         91.1600  154.3020   54.7870 C.2   705  GLY705      0.2638
     80  O         91.4150  155.0950   55.7030 O.2   705  GLY705     -0.2714
     81  N         90.6940  154.6990   53.6090 N.am  706  HIS706     -0.1973
     82  CA        90.4740  156.0960   53.2670 C.3   706  HIS706      0.1656
     83  C         89.0180  156.3100   52.8980 C.2   706  HIS706      0.2291
     84  O         88.3630  155.4170   52.3570 O.2   706  HIS706     -0.2864
     85  CB        91.3500  156.5360   52.0850 C.3   706  HIS706      0.0771
     86  CG        92.8120  156.4510   52.3640 C.ar  706  HIS706      0.0820
     87  ND1       93.4720  157.3780   53.1420 N.ar  706  HIS706     -0.2267
     88  CD2       93.7400  155.5420   51.9860 C.ar  706  HIS706      0.1154
     89  CE1       94.7480  157.0450   53.2260 C.ar  706  HIS706      0.1986
     90  NE2       94.9360  155.9340   52.5340 N.ar  706  HIS706     -0.2212
     91  N         91.3520  159.4330   58.6430 N.3   792  LEU792     -0.1245
     92  CA        91.6410  158.8790   57.3280 C.3   792  LEU792      0.1561
     93  C         90.3710  158.3860   56.6510 C.2   792  LEU792      0.2260
     94  O         90.1950  158.5630   55.4410 O.2   792  LEU792     -0.2867
     95  CB        92.6550  157.7440   57.4570 C.3   792  LEU792      0.0270
     96  CG        94.0500  158.1270   57.9550 C.3   792  LEU792      0.0019
     97  CD1       94.8230  156.8930   58.4160 C.3   792  LEU792      0.0001
     98  CD2       94.8200  158.8460   56.8760 C.3   792  LEU792      0.0001
@<TRIPOS>BOND
     1    76    74   ar
     2    51    52    1
     3    51    50    1
     4    52    46    1
     5    33    32    2
     6    74    73    1
     7    74    75   ar
     8    73    70    1
     9    50    47    1
    10    24    23    2
    11    32    31    1
    12    46    47    1
    13    31    34    1
    14    31    30    1
    15    70    69    1
    16    70    71    1
    17    47    48    1
    18    88    86   ar
    19    88    90   ar
    20    85    86    1
    21    85    82    1
    22    49    48    2
    23    34    35    1
    24    23    30   am
    25    23    22    1
    26    84    83    2
    27    86    87   ar
    28     7     6    1
    29    90    89   ar
    30    48    53   am
    31    83    82    1
    32    71    72    2
    33    71    77   am
    34    87    89   ar
    35    82    81    1
    36    22    25    1
    37    22    21    1
    38     8     6    1
    39    81    79   am
    40     6     5    1
    41    25    26    1
    42    77    78    1
    43    53    54    1
    44    26    27    1
    45    27    28   ar
    46    27    29   ar
    47     5     2    1
    48    79    78    1
    49    79    80    2
    50    54    57    1
    51    54    55    1
    52    12    11    2
    53    68    66   am
    54    94    93    2
    55    57    58    1
    56    56    55    2
    57    55    61   am
    58    67    66    2
    59     2     3    1
    60     2     1    1
    61    60    58   am
    62    11    10    1
    63    66    65    1
    64    58    59    2
    65    61    62    1
    66    93    92    1
    67     9     3   am
    68     9    10    1
    69     3     4    2
    70    98    96    1
    71    13    10    1
    72    13    14    1
    73    39    38    2
    74    92    95    1
    75    92    91    1
    76    95    96    1
    77    62    65    1
    78    62    63    1
    79    16    14   ar
    80    16    18   ar
    81    38    37    1
    82    96    97    1
    83    14    15   ar
    84    18    19   ar
    85    42    44   ar
    86    42    41   ar
    87    37    40    1
    88    37    36    1
    89    40    41    1
    90    63    64    2
    91    44    45   ar
    92    41    43   ar
    93    15    17   ar
    94    19    17   ar
    95    19    20    1
    96    45    43   ar
