@<TRIPOS>MOLECULE
tmp/6c02A00.pdb
 180 173 0 0 0
SMALL
GASTEIGER

@<TRIPOS>ATOM
      1  N        -20.4300   21.2560  -39.2380 N.3   111  ASP111     -0.1239
      2  CA       -20.2150   21.4990  -37.8170 C.3   111  ASP111      0.1674
      3  C        -20.1000   20.1850  -37.0510 C.2   111  ASP111      0.2266
      4  O        -20.8950   19.2640  -37.2470 O.2   111  ASP111     -0.2867
      5  CB       -21.3700   22.3380  -37.2560 C.3   111  ASP111      0.1410
      6  CG       -20.9670   23.1600  -36.0380 C.2   111  ASP111      0.3668
      7  OD1      -20.1300   22.6830  -35.2420 O.co2 111  ASP111     -0.2456
      8  OD2      -21.4870   24.2880  -35.8810 O.co2 111  ASP111     -0.2456
      9  N        -14.9580   25.7920  -30.1590 N.3   148  LYS148     -0.1231
     10  CA       -16.3350   26.2260  -30.3460 C.3   148  LYS148      0.1693
     11  C        -16.5420   26.6740  -31.7890 C.2   148  LYS148      0.2592
     12  O        -15.5850   26.9350  -32.5220 O.2   148  LYS148     -0.2718
     13  CB       -16.6840   27.3730  -29.3950 C.3   148  LYS148      0.0285
     14  CG       -16.5060   27.0600  -27.9230 C.3   148  LYS148      0.0035
     15  CD       -17.5780   26.1140  -27.4180 C.3   148  LYS148      0.0206
     16  CE       -17.8230   26.3160  -25.9400 C.3   148  LYS148      0.1093
     17  NZ       -18.9800   25.5180  -25.4260 N.3   148  LYS148     -0.1314
     18  N        -17.8150   26.8070  -32.1780 N.am  149  ALA149     -0.1966
     19  CA       -18.1680   26.9970  -33.5840 C.3   149  ALA149      0.1728
     20  C        -17.6920   28.3440  -34.1150 C.2   149  ALA149      0.2616
     21  O        -16.9770   28.4110  -35.1190 O.2   149  ALA149     -0.2715
     22  CB       -19.6790   26.8680  -33.7720 C.3   149  ALA149      0.0334
     23  N        -18.1140   29.4410  -33.4800 N.am  150  PHE150     -0.1974
     24  CA       -17.7910   30.7520  -34.0400 C.3   150  PHE150      0.1639
     25  C        -16.3010   31.0450  -33.9710 C.2   150  PHE150      0.2290
     26  O        -15.7380   31.4920  -34.9840 O.2   150  PHE150     -0.2864
     27  CB       -18.6350   31.8290  -33.3600 C.3   150  PHE150      0.0560
     28  CG       -19.9120   32.1300  -34.0870 C.ar  150  PHE150     -0.0200
     29  CD1      -20.7870   31.1090  -34.4270 C.ar  150  PHE150     -0.0042
     30  CD2      -20.2320   33.4280  -34.4450 C.ar  150  PHE150     -0.0042
     31  CE1      -21.9660   31.3810  -35.1060 C.ar  150  PHE150     -0.0003
     32  CE2      -21.4160   33.7080  -35.1280 C.ar  150  PHE150     -0.0003
     33  CZ       -22.2760   32.6860  -35.4580 C.ar  150  PHE150     -0.0000
     34  N        -15.0840   33.3080  -28.0580 N.3   169  ASP169     -0.1225
     35  CA       -16.0490   32.3150  -27.6050 C.3   169  ASP169      0.1805
     36  C        -17.3590   32.6450  -28.2990 C.2   169  ASP169      0.2598
     37  O        -17.4970   33.7050  -28.9110 O.2   169  ASP169     -0.2718
     38  CB       -16.2000   32.3300  -26.0790 C.3   169  ASP169      0.1424
     39  CG       -17.0290   31.1630  -25.5450 C.2   169  ASP169      0.3668
     40  OD1      -17.4170   30.2640  -26.3290 O.co2 169  ASP169     -0.2456
     41  OD2      -17.2870   31.1400  -24.3190 O.co2 169  ASP169     -0.2456
     42  N        -18.3180   31.7210  -28.2120 N.am  170  ASN170     -0.1960
     43  CA       -19.6570   32.0230  -28.6970 C.3   170  ASN170      0.1819
     44  C        -20.3730   33.0160  -27.7880 C.2   170  ASN170      0.2621
     45  O        -21.2720   33.7240  -28.2530 O.2   170  ASN170     -0.2715
     46  CB       -20.4820   30.7420  -28.8230 C.3   170  ASN170      0.1195
     47  CG       -19.9020   29.7650  -29.8370 C.2   170  ASN170      0.2630
     48  OD1      -19.1280   30.1340  -30.7170 O.2   170  ASN170     -0.2716
     49  ND2      -20.2840   28.5080  -29.7130 N.am  170  ASN170     -0.0877
     50  N        -19.9750   33.0960  -26.5180 N.am  171  ASN171     -0.1972
     51  CA       -20.5490   34.0210  -25.5460 C.3   171  ASN171      0.1688
     52  C        -19.4230   34.8070  -24.9000 C.2   171  ASN171      0.2292
     53  O        -18.4670   34.2160  -24.3880 O.2   171  ASN171     -0.2864
     54  CB       -21.3440   33.2920  -24.4510 C.3   171  ASN171      0.1181
     55  CG       -22.4430   32.4360  -25.0070 C.2   171  ASN171      0.2629
     56  OD1      -23.4630   32.9430  -25.4630 O.2   171  ASN171     -0.2716
     57  ND2      -22.2420   31.1230  -24.9770 N.am  171  ASN171     -0.0877
     58  N        -24.9520   33.9650  -29.7240 N.3   183  LEU183     -0.1245
     59  CA       -25.4290   33.5240  -31.0300 C.3   183  LEU183      0.1561
     60  C        -26.9100   33.8090  -31.2570 C.2   183  LEU183      0.2260
     61  O        -27.3370   33.8880  -32.4130 O.2   183  LEU183     -0.2867
     62  CB       -25.1660   32.0260  -31.2140 C.3   183  LEU183      0.0270
     63  CG       -23.7330   31.5220  -31.0110 C.3   183  LEU183      0.0019
     64  CD1      -23.6250   30.0910  -31.5150 C.3   183  LEU183      0.0001
     65  CD2      -22.6980   32.4150  -31.6940 C.3   183  LEU183      0.0001
     66  N        -24.2880   40.1050  -32.2720 N.3   188  GLN188     -0.1245
     67  CA       -23.2770   39.4100  -33.0530 C.3   188  GLN188      0.1566
     68  C        -23.0730   40.0550  -34.4150 C.2   188  GLN188      0.2260
     69  O        -22.0450   39.8150  -35.0560 O.2   188  GLN188     -0.2867
     70  CB       -23.6640   37.9360  -33.2240 C.3   188  GLN188      0.0367
     71  CG       -24.9280   37.7020  -34.0340 C.3   188  GLN188      0.0905
     72  CD       -25.1310   36.2410  -34.3900 C.2   188  GLN188      0.2608
     73  OE1      -24.5130   35.7280  -35.3220 O.2   188  GLN188     -0.2717
     74  NE2      -26.0010   35.5660  -33.6510 N.am  188  GLN188     -0.0878
     75  N        -24.2350   30.7890  -45.1100 N.3   214  PHE214     -0.1241
     76  CA       -24.4110   30.6050  -43.6560 C.3   214  PHE214      0.1605
     77  C        -23.1140   30.5310  -42.8560 C.2   214  PHE214      0.2264
     78  O        -23.1690   30.1820  -41.6630 O.2   214  PHE214     -0.2867
     79  CB       -25.2410   29.3530  -43.3280 C.3   214  PHE214      0.0534
     80  CG       -26.7170   29.4970  -43.5990 C.ar  214  PHE214     -0.0203
     81  CD1      -27.2450   30.6560  -44.1400 C.ar  214  PHE214     -0.0042
     82  CD2      -27.5820   28.4560  -43.3020 C.ar  214  PHE214     -0.0042
     83  CE1      -28.5910   30.7670  -44.3860 C.ar  214  PHE214     -0.0003
     84  CE2      -28.9390   28.5680  -43.5420 C.ar  214  PHE214     -0.0003
     85  CZ       -29.4430   29.7230  -44.0800 C.ar  214  PHE214     -0.0000
     86  N        -20.2950   31.5790  -40.3610 N.3   216  PRO216     -0.2102
     87  CA       -20.2310   32.5930  -39.2930 C.3   216  PRO216      0.1504
     88  C        -19.4120   33.8130  -39.6990 C.2   216  PRO216      0.2576
     89  O        -18.2500   33.7010  -40.0950 O.2   216  PRO216     -0.2718
     90  CB       -19.5730   31.8390  -38.1320 C.3   216  PRO216      0.0282
     91  CG       -19.9350   30.4050  -38.3730 C.3   216  PRO216      0.0208
     92  CD       -19.9320   30.2370  -39.8650 C.3   216  PRO216      0.0893
     93  N        -20.0190   34.9930  -39.5540 N.am  217  GLY217     -0.1957
     94  CA       -19.4030   36.2440  -39.9320 C.3   217  GLY217      0.1869
     95  C        -19.8060   36.7530  -41.3010 C.2   217  GLY217      0.2309
     96  O        -19.6380   37.9490  -41.5790 O.2   217  GLY217     -0.2863
     97  N        -22.7460   37.1530  -42.4450 N.3   219  GLU219     -0.1245
     98  CA       -23.9090   38.0180  -42.3110 C.3   219  GLU219      0.1567
     99  C        -23.5890   39.2970  -41.5490 C.2   219  GLU219      0.2260
    100  O        -24.5010   39.9390  -41.0140 O.2   219  GLU219     -0.2867
    101  CB       -25.0440   37.2640  -41.6200 C.3   219  GLU219      0.0388
    102  CG       -25.5680   36.0890  -42.4400 C.3   219  GLU219      0.1160
    103  CD       -25.1740   34.7160  -41.8940 C.2   219  GLU219      0.3649
    104  OE1      -24.4770   34.6310  -40.8560 O.co2 219  GLU219     -0.2457
    105  OE2      -25.5740   33.7070  -42.5170 O.co2 219  GLU219     -0.2457
    106  N        -28.9930   33.9840  -41.8250 N.3   233  TYR233     -0.1241
    107  CA       -28.9490   32.6410  -41.2680 C.3   233  TYR233      0.1605
    108  C        -30.3310   32.1530  -40.8740 C.2   233  TYR233      0.2264
    109  O        -31.1130   32.8700  -40.2430 O.2   233  TYR233     -0.2867
    110  CB       -28.0440   32.5780  -40.0440 C.3   233  TYR233      0.0534
    111  CG       -27.9940   31.1860  -39.4570 C.ar  233  TYR233     -0.0201
    112  CD1      -27.3140   30.1730  -40.1060 C.ar  233  TYR233     -0.0009
    113  CD2      -28.6480   30.8790  -38.2670 C.ar  233  TYR233     -0.0009
    114  CE1      -27.2700   28.9010  -39.5900 C.ar  233  TYR233      0.0417
    115  CE2      -28.6040   29.6010  -37.7390 C.ar  233  TYR233      0.0417
    116  CZ       -27.9150   28.6220  -38.4050 C.ar  233  TYR233      0.1957
    117  OH       -27.8630   27.3520  -37.8910 O.3   233  TYR233     -0.2866
    118  N        -22.1980   25.8030  -45.1900 N.3   264  TYR264     -0.1241
    119  CA       -22.2220   25.4350  -43.7810 C.3   264  TYR264      0.1605
    120  C        -23.4440   24.5780  -43.4850 C.2   264  TYR264      0.2264
    121  O        -24.5610   24.9330  -43.8740 O.2   264  TYR264     -0.2867
    122  CB       -22.2180   26.6870  -42.8940 C.3   264  TYR264      0.0534
    123  CG       -22.5150   26.3960  -41.4390 C.ar  264  TYR264     -0.0201
    124  CD1      -21.5120   25.9770  -40.5770 C.ar  264  TYR264     -0.0009
    125  CD2      -23.8020   26.5250  -40.9310 C.ar  264  TYR264     -0.0009
    126  CE1      -21.7830   25.6990  -39.2450 C.ar  264  TYR264      0.0417
    127  CE2      -24.0770   26.2510  -39.6150 C.ar  264  TYR264      0.0417
    128  CZ       -23.0660   25.8340  -38.7770 C.ar  264  TYR264      0.1957
    129  OH       -23.3480   25.5620  -37.4610 O.3   264  TYR264     -0.2866
    130  N        -25.2940   22.4790  -40.0660 N.3   266  GLU266     -0.1245
    131  CA       -25.3340   22.3550  -38.6070 C.3   266  GLU266      0.1567
    132  C        -25.0200   20.9440  -38.1230 C.2   266  GLU266      0.2260
    133  O        -24.7420   20.7600  -36.9360 O.2   266  GLU266     -0.2867
    134  CB       -26.7130   22.7510  -38.0510 C.3   266  GLU266      0.0388
    135  CG       -27.0480   24.2340  -38.1400 C.3   266  GLU266      0.1160
    136  CD       -27.5590   24.6450  -39.5100 C.2   266  GLU266      0.3649
    137  OE1      -27.8830   23.7580  -40.3270 O.co2 266  GLU266     -0.2457
    138  OE2      -27.6350   25.8620  -39.7680 O.co2 266  GLU266     -0.2457
    139  N        -23.0520   18.3170  -35.7600 N.3   269  ASP269     -0.1225
    140  CA       -22.9550   18.9620  -34.4560 C.3   269  ASP269      0.1805
    141  C        -24.2650   18.8710  -33.6810 C.2   269  ASP269      0.2598
    142  O        -24.2660   18.5630  -32.4830 O.2   269  ASP269     -0.2718
    143  CB       -22.5490   20.4160  -34.6450 C.3   269  ASP269      0.1424
    144  CG       -22.3500   21.1300  -33.3520 C.2   269  ASP269      0.3668
    145  OD1      -23.1260   22.0750  -33.0840 O.co2 269  ASP269     -0.2456
    146  OD2      -21.4170   20.7510  -32.6100 O.co2 269  ASP269     -0.2456
    147  N        -25.3920   19.1410  -34.3440 N.am  270  SER270     -0.1952
    148  CA       -26.6680   19.1710  -33.6410 C.3   270  SER270      0.1924
    149  C        -27.0120   17.8010  -33.0760 C.2   270  SER270      0.2314
    150  O        -27.4630   17.6880  -31.9310 O.2   270  SER270     -0.2863
    151  CB       -27.7710   19.6490  -34.5830 C.3   270  SER270      0.2116
    152  OG       -27.3480   20.7850  -35.3180 O.3   270  SER270     -0.2180
    153  N        -24.7660   16.8300  -30.0950 N.3   273  HIS273     -0.1241
    154  CA       -25.2390   17.3680  -28.8230 C.3   273  HIS273      0.1621
    155  C        -26.3970   16.5490  -28.2680 C.2   273  HIS273      0.2264
    156  O        -26.4430   16.2560  -27.0660 O.2   273  HIS273     -0.2867
    157  CB       -25.6630   18.8260  -28.9880 C.3   273  HIS273      0.0745
    158  CG       -24.5160   19.7800  -29.0760 C.ar  273  HIS273      0.0817
    159  ND1      -23.7110   20.0750  -27.9980 N.ar  273  HIS273     -0.2268
    160  CD2      -24.0440   20.5140  -30.1100 C.ar  273  HIS273      0.1154
    161  CE1      -22.7910   20.9500  -28.3630 C.ar  273  HIS273      0.1986
    162  NE2      -22.9710   21.2310  -29.6400 N.ar  273  HIS273     -0.2212
    163  N        -20.7970   17.4190  -26.1310 N.3   426  ASN426     -0.1225
    164  CA       -20.3690   18.8050  -26.0150 C.3   426  ASN426      0.1785
    165  C        -18.9230   18.9290  -26.4820 C.2   426  ASN426      0.2597
    166  O        -18.2200   17.9390  -26.6900 O.2   426  ASN426     -0.2718
    167  CB       -20.5300   19.3270  -24.5840 C.3   426  ASN426      0.1169
    168  CG       -20.9350   20.7980  -24.5400 C.2   426  ASN426      0.2627
    169  OD1      -20.7660   21.5290  -25.5200 O.2   426  ASN426     -0.2716
    170  ND2      -21.4690   21.2380  -23.3970 N.am  426  ASN426     -0.0877
    171  N        -18.4920   20.1760  -26.6420 N.am  427  HIS427     -0.1975
    172  CA       -17.1600   20.4760  -27.1480 C.3   427  HIS427      0.1656
    173  C        -16.6830   21.7800  -26.5230 C.2   427  HIS427      0.2291
    174  O        -17.3920   22.4130  -25.7380 O.2   427  HIS427     -0.2864
    175  CB       -17.1690   20.5470  -28.6720 C.3   427  HIS427      0.0771
    176  CG       -18.2780   21.3820  -29.2250 C.ar  427  HIS427      0.0820
    177  ND1      -18.1870   22.7510  -29.3470 N.ar  427  HIS427     -0.2267
    178  CD2      -19.5060   21.0450  -29.6820 C.ar  427  HIS427      0.1154
    179  CE1      -19.3080   23.2210  -29.8580 C.ar  427  HIS427      0.1986
    180  NE2      -20.1250   22.2060  -30.0720 N.ar  427  HIS427     -0.2212
@<TRIPOS>BOND
     1   118   119    1
     2    75    76    1
     3    83    81   ar
     4    83    85   ar
     5    81    80   ar
     6    85    84   ar
     7   121   120    2
     8   119   120    1
     9   119   122    1
    10    76    79    1
    11    76    77    1
    12    80    79    1
    13    80    82   ar
    14    84    82   ar
    15   122   123    1
    16    77    78    2
    17   105   103   ar
    18    97    98    1
    19   102   103    1
    20   102   101    1
    21    98   101    1
    22    98    99    1
    23   103   104   ar
    24   106   107    1
    25    96    95    2
    26    99   100    2
    27   123   125   ar
    28   123   124   ar
    29    95    94    1
    30   107   108    1
    31   107   110    1
    32   125   127   ar
    33   108   109    2
    34   124   126   ar
    35    86    92    1
    36    86    87    1
    37   137   136   ar
    38   112   114   ar
    39   112   111   ar
    40    89    88    2
    41   130   131    1
    42   110   111    1
    43    94    93    1
    44    92    91    1
    45   138   136   ar
    46    88    93   am
    47    88    87    1
    48   127   128   ar
    49   114   116   ar
    50   136   135    1
    51   111   113   ar
    52    87    90    1
    53   126   128   ar
    54     1     2    1
    55   128   129    1
    56   131   132    1
    57   131   134    1
    58   116   117    1
    59   116   115   ar
    60    91    90    1
    61   113   115   ar
    62   135   134    1
    63   132   133    2
    64     2     5    1
    65     2     3    1
    66     5     6    1
    67     4     3    2
    68     6     8   ar
    69     6     7   ar
    70   139   140    1
    71    33    32   ar
    72    33    31   ar
    73    73    72    2
    74   152   151    1
    75    32    30   ar
    76    21    20    2
    77    31    29   ar
    78    69    68    2
    79    26    25    2
    80   143   140    1
    81   143   144    1
    82   151   148    1
    83   140   141    1
    84    30    28   ar
    85    29    28   ar
    86    68    67    1
    87    72    71    1
    88    72    74   am
    89   147   141   am
    90   147   148    1
    91    20    19    1
    92    20    23   am
    93    28    27    1
    94    24    25    1
    95    24    23    1
    96    24    27    1
    97    71    70    1
    98    22    19    1
    99   141   142    2
   100   148   149    1
   101    19    18    1
   102   144   145   ar
   103   144   146   ar
   104    70    67    1
   105   149   150    2
   106    67    66    1
   107    12    11    2
   108    61    60    2
   109    18    11   am
   110    11    10    1
   111    65    63    1
   112    64    63    1
   113    60    59    1
   114    62    59    1
   115    62    63    1
   116    59    58    1
   117    48    47    2
   118    10     9    1
   119    10    13    1
   120   160   162   ar
   121   160   158   ar
   122   153   154    1
   123   180   179   ar
   124   180   178   ar
   125   179   177   ar
   126    47    49   am
   127    47    46    1
   128   178   176   ar
   129   162   161   ar
   130    13    14    1
   131   177   176   ar
   132   176   175    1
   133   158   157    1
   134   158   159   ar
   135   157   154    1
   136    37    36    2
   137   154   155    1
   138    46    43    1
   139    43    42    1
   140    43    44    1
   141   175   172    1
   142   161   159   ar
   143    36    42   am
   144    36    35    1
   145   155   156    2
   146    45    44    2
   147    34    35    1
   148    14    15    1
   149    44    50   am
   150    35    38    1
   151    15    16    1
   152   172   171    1
   153   172   173    1
   154   166   165    2
   155   171   165   am
   156   173   174    2
   157    50    51    1
   158   165   164    1
   159    40    39   ar
   160   163   164    1
   161    38    39    1
   162   164   167    1
   163    16    17    1
   164    51    52    1
   165    51    54    1
   166    39    41   ar
   167   169   168    2
   168    56    55    2
   169    55    57   am
   170    55    54    1
   171    52    53    2
   172   167   168    1
   173   168   170   am
