@<TRIPOS>MOLECULE
tmp/6c08F00.pdb
 156 150 0 0 0
SMALL
GASTEIGER

@<TRIPOS>ATOM
      1  N        -56.7660   27.8330   70.9220 N.3     9  ASN9       -0.1225
      2  CA       -57.4620   29.1150   70.8040 C.3     9  ASN9        0.1785
      3  C        -56.5440   30.3270   70.9950 C.2     9  ASN9        0.2598
      4  O        -56.5860   31.2750   70.2000 O.2     9  ASN9       -0.2718
      5  CB       -58.6270   29.1660   71.7960 C.3     9  ASN9        0.1169
      6  CG       -59.4050   30.4780   71.7260 C.2     9  ASN9        0.2627
      7  OD1      -60.3820   30.5960   70.9800 O.2     9  ASN9       -0.2716
      8  ND2      -58.9690   31.4700   72.4960 N.am    9  ASN9       -0.0877
      9  N        -55.7200   30.3280   72.0560 N.am   10  THR10      -0.1939
     10  CA       -54.8470   31.4800   72.3030 C.3    10  THR10       0.2028
     11  C        -53.8330   31.6990   71.1840 C.2    10  THR10       0.2642
     12  O        -53.6130   32.8420   70.7660 O.2    10  THR10      -0.2714
     13  CB       -54.1460   31.3520   73.6660 C.3    10  THR10       0.1808
     14  OG1      -53.1700   32.3920   73.8020 O.3    10  THR10      -0.2208
     15  CG2      -53.4440   30.0180   73.8230 C.3    10  THR10       0.0379
     16  N        -53.1920   30.6380   70.6900 N.am   11  MET11      -0.1962
     17  CA       -52.1770   30.8440   69.6590 C.3    11  MET11       0.1736
     18  C        -52.7970   31.3880   68.3740 C.2    11  MET11       0.2616
     19  O        -52.2370   32.2980   67.7530 O.2    11  MET11      -0.2715
     20  CB       -51.3370   29.5910   69.4040 C.3    11  MET11       0.0427
     21  CG       -50.3930   29.2640   70.5660 C.3    11  MET11       0.0599
     22  SD       -49.2480   27.8990   70.2550 S.3    11  MET11      -0.1393
     23  CE       -50.3370   26.4870   70.3300 C.3    11  MET11       0.0692
     24  N        -53.9250   30.8260   67.9440 N.am   12  MET12      -0.1963
     25  CA       -54.6110   31.3550   66.7730 C.3    12  MET12       0.1736
     26  C        -55.0420   32.7990   67.0010 C.2    12  MET12       0.2617
     27  O        -55.2490   33.2390   68.1310 O.2    12  MET12      -0.2715
     28  CB       -55.8600   30.5300   66.4580 C.3    12  MET12       0.0427
     29  CG       -55.5980   29.0940   66.1420 C.3    12  MET12       0.0599
     30  SD       -54.0470   28.9890   65.2640 S.3    12  MET12      -0.1393
     31  CE       -53.9110   27.2320   65.0930 C.3    12  MET12       0.0692
     32  N        -55.1720   33.5350   65.8980 N.am   13  GLY13      -0.1940
     33  CA       -55.6570   34.9020   65.8860 C.3    13  GLY13       0.2014
     34  C        -55.1610   35.5930   64.6320 C.2    13  GLY13       0.2640
     35  O        -55.2730   35.0340   63.5390 O.2    13  GLY13      -0.2714
     36  N        -54.5720   36.7870   64.7700 N.am   14  THR14      -0.1936
     37  CA       -54.0170   37.5170   63.6320 C.3    14  THR14       0.2028
     38  C        -52.6900   36.9150   63.1600 C.2    14  THR14       0.2642
     39  O        -51.9340   37.5310   62.3980 O.2    14  THR14      -0.2714
     40  CB       -53.8490   38.9970   63.9820 C.3    14  THR14       0.1808
     41  OG1      -52.9550   39.1300   65.0910 O.3    14  THR14      -0.2208
     42  CG2      -55.1920   39.6080   64.3560 C.3    14  THR14       0.0379
     43  N        -52.4580   35.6880   63.6190 N.am   15  SER15      -0.1949
     44  CA       -51.2310   34.9090   63.5090 C.3    15  SER15       0.1924
     45  C        -51.1550   34.2240   62.1540 C.2    15  SER15       0.2314
     46  O        -50.1110   34.2310   61.4900 O.2    15  SER15      -0.2863
     47  CB       -51.1600   33.8600   64.6230 C.3    15  SER15       0.2116
     48  OG       -51.4030   34.4200   65.9020 O.3    15  SER15      -0.2180
     49  N        -46.5760   43.0080   68.8560 N.3    89  ALA89      -0.1245
     50  CA       -47.9270   42.4880   68.6900 C.3    89  ALA89       0.1562
     51  C        -48.9470   43.6200   68.7400 C.2    89  ALA89       0.2260
     52  O        -49.9820   43.5740   68.0660 O.2    89  ALA89      -0.2867
     53  CB       -48.2190   41.4420   69.7640 C.3    89  ALA89       0.0290
     54  N        -48.8230   45.3730   65.3320 N.3    92  VAL92      -0.1231
     55  CA       -49.5020   44.5980   64.2890 C.3    92  VAL92       0.1692
     56  C        -51.0090   44.8060   64.3790 C.2    92  VAL92       0.2592
     57  O        -51.6790   45.0110   63.3600 O.2    92  VAL92      -0.2718
     58  CB       -49.0870   43.1090   64.2790 C.3    92  VAL92       0.0266
     59  CG1      -47.5700   42.9700   64.1740 C.3    92  VAL92       0.0020
     60  CG2      -49.6400   42.3150   65.4360 C.3    92  VAL92       0.0020
     61  N        -51.5670   44.7580   65.5910 N.am   93  TYR93      -0.1976
     62  CA       -53.0020   44.9630   65.7340 C.3    93  TYR93       0.1639
     63  C        -53.3740   46.3670   65.2920 C.2    93  TYR93       0.2290
     64  O        -54.3910   46.5670   64.6180 O.2    93  TYR93      -0.2864
     65  CB       -53.4240   44.7880   67.1950 C.3    93  TYR93       0.0560
     66  CG       -53.3250   43.3970   67.7630 C.ar   93  TYR93      -0.0198
     67  CD1      -53.1940   42.2940   66.9390 C.ar   93  TYR93      -0.0009
     68  CD2      -53.3660   43.1880   69.1340 C.ar   93  TYR93      -0.0009
     69  CE1      -53.1030   41.0210   67.4650 C.ar   93  TYR93       0.0417
     70  CE2      -53.2770   41.9210   69.6680 C.ar   93  TYR93       0.0417
     71  CZ       -53.1460   40.8410   68.8300 C.ar   93  TYR93       0.1957
     72  OH       -53.0600   39.5770   69.3600 O.3    93  TYR93      -0.2866
     73  N        -61.0040   42.0840   78.5900 N.3   146  PHE146     -0.1241
     74  CA       -60.5670   40.7110   78.3640 C.3   146  PHE146      0.1605
     75  C        -61.7050   39.7080   78.5140 C.2   146  PHE146      0.2264
     76  O        -61.7500   38.7080   77.7870 O.2   146  PHE146     -0.2867
     77  CB       -59.4300   40.3700   79.3250 C.3   146  PHE146      0.0534
     78  CG       -58.9460   38.9530   79.1960 C.ar  146  PHE146     -0.0203
     79  CD1      -58.3010   38.5090   78.0740 C.ar  146  PHE146     -0.0042
     80  CD2      -59.2370   38.0600   80.1670 C.ar  146  PHE146     -0.0042
     81  CE1      -57.9250   37.1250   77.9890 C.ar  146  PHE146     -0.0003
     82  CE2      -58.8230   36.7020   80.0950 C.ar  146  PHE146     -0.0003
     83  CZ       -58.1510   36.2730   79.0080 C.ar  146  PHE146     -0.0000
     84  N        -63.3650   39.6250   75.2170 N.3   149  PHE149     -0.1227
     85  CA       -62.6050   39.1140   74.0760 C.3   149  PHE149      0.1736
     86  C        -62.4140   37.6030   74.0110 C.2   149  PHE149      0.2596
     87  O        -62.0570   37.1070   72.9360 O.2   149  PHE149     -0.2718
     88  CB       -61.2200   39.7700   74.0540 C.3   149  PHE149      0.0548
     89  CG       -60.3180   38.9810   73.1800 C.ar  149  PHE149     -0.0189
     90  CD1      -60.4960   39.0230   71.7860 C.ar  149  PHE149      0.0124
     91  CD2      -59.3730   38.1230   73.6970 C.ar  149  PHE149     -0.0041
     92  CE1      -59.7150   38.2500   70.9350 C.ar  149  PHE149      0.0731
     93  CE2      -58.6060   37.2880   72.8810 C.ar  149  PHE149      0.0010
     94  CZ       -58.7960   37.3650   71.4680 C.ar  149  PHE149      0.0166
     95  N        -62.6050   36.8590   75.1000 N.am  150  THR150     -0.1953
     96  CA       -62.3410   35.4220   75.0440 C.3   150  THR150      0.1897
     97  C        -63.1700   34.7740   73.9370 C.2   150  THR150      0.2313
     98  O        -62.6620   33.9920   73.1250 O.2   150  THR150     -0.2863
     99  CB       -62.6220   34.7650   76.3970 C.3   150  THR150      0.1794
    100  OG1      -61.7510   35.3210   77.3900 O.3   150  THR150     -0.2208
    101  CG2      -62.3750   33.2630   76.3180 C.3   150  THR150      0.0378
    102  N        -63.1990   35.8320   69.4810 N.3   153  GLY153     -0.1225
    103  CA       -62.0440   35.2790   68.7920 C.3   153  GLY153      0.1811
    104  C        -62.2380   33.8570   68.3030 C.2   153  GLY153      0.2280
    105  O        -61.8070   33.5150   67.1980 O.2   153  GLY153     -0.2866
    106  N        -42.9180   33.4360   66.1190 N.3   200  LEU200     -0.1245
    107  CA       -44.0290   34.0570   66.8190 C.3   200  LEU200      0.1561
    108  C        -45.3250   33.2860   66.6470 C.2   200  LEU200      0.2260
    109  O        -46.2440   33.4420   67.4580 O.2   200  LEU200     -0.2867
    110  CB       -44.1920   35.5000   66.3370 C.3   200  LEU200      0.0270
    111  CG       -44.7590   36.5040   67.3430 C.3   200  LEU200      0.0019
    112  CD1      -43.7150   36.8710   68.3890 C.3   200  LEU200      0.0001
    113  CD2      -45.2760   37.7560   66.6480 C.3   200  LEU200      0.0001
    114  N        -46.1100   31.3770   69.8790 N.3   203  PHE203     -0.1241
    115  CA       -45.7960   32.0790   71.1130 C.3   203  PHE203      0.1605
    116  C        -46.7730   31.6420   72.1920 C.2   203  PHE203      0.2264
    117  O        -47.9630   31.9750   72.1490 O.2   203  PHE203     -0.2867
    118  CB       -45.7530   33.5930   70.9400 C.3   203  PHE203      0.0534
    119  CG       -44.7180   34.2400   71.8190 C.ar  203  PHE203     -0.0203
    120  CD1      -43.4870   33.6260   71.9990 C.ar  203  PHE203     -0.0042
    121  CD2      -44.9740   35.4220   72.4900 C.ar  203  PHE203     -0.0042
    122  CE1      -42.5320   34.1810   72.8220 C.ar  203  PHE203     -0.0003
    123  CE2      -44.0130   35.9880   73.3130 C.ar  203  PHE203     -0.0003
    124  CZ       -42.7950   35.3630   73.4800 C.ar  203  PHE203     -0.0000
    125  N        -62.5720   41.6070   67.4070 N.3   279  GLN279     -0.1245
    126  CA       -61.7210   40.7380   68.2130 C.3   279  GLN279      0.1566
    127  C        -60.4530   41.4540   68.6790 C.2   279  GLN279      0.2260
    128  O        -60.0510   41.3280   69.8360 O.2   279  GLN279     -0.2867
    129  CB       -61.3530   39.4740   67.4320 C.3   279  GLN279      0.0367
    130  CG       -60.7190   38.3840   68.2800 C.3   279  GLN279      0.0891
    131  CD       -59.2990   38.7190   68.6920 C.2   279  GLN279      0.2456
    132  OE1      -58.3480   38.4570   67.9560 O.2   279  GLN279     -0.2730
    133  NE2      -59.1490   39.3010   69.8770 N.am  279  GLN279     -0.1792
    134  N        -59.1060   42.6870   72.4240 N.3   283  VAL283     -0.1245
    135  CA       -57.8200   42.0580   72.7670 C.3   283  VAL283      0.1561
    136  C        -56.6600   43.0200   73.0720 C.2   283  VAL283      0.2260
    137  O        -55.7960   42.6990   73.8970 O.2   283  VAL283     -0.2867
    138  CB       -57.4020   41.0320   71.6920 C.3   283  VAL283      0.0252
    139  CG1      -56.6840   41.6920   70.5410 C.3   283  VAL283      0.0019
    140  CG2      -56.5120   39.9620   72.3080 C.3   283  VAL283      0.0019
    141  N        -56.2760   44.5080   76.9660 N.3   286  LEU286     -0.1231
    142  CA       -55.7230   43.4690   77.8270 C.3   286  LEU286      0.1693
    143  C        -54.2450   43.2310   77.5350 C.2   286  LEU286      0.2591
    144  O        -53.4660   42.9440   78.4510 O.2   286  LEU286     -0.2718
    145  CB       -56.5160   42.1730   77.6570 C.3   286  LEU286      0.0284
    146  CG       -56.3520   41.4510   76.3230 C.3   286  LEU286      0.0019
    147  CD1      -55.2160   40.3650   76.4130 C.3   286  LEU286      0.0001
    148  CD2      -57.6490   40.7480   75.9940 C.3   286  LEU286      0.0001
    149  N        -53.8330   43.3290   76.2690 N.am  287  LEU287     -0.1980
    150  CA       -52.4270   43.0830   75.9660 C.3   287  LEU287      0.1596
    151  C        -51.5500   44.2370   76.4480 C.2   287  LEU287      0.2287
    152  O        -50.4340   44.0130   76.9310 O.2   287  LEU287     -0.2864
    153  CB       -52.2420   42.8600   74.4630 C.3   287  LEU287      0.0297
    154  CG       -50.8530   42.4950   73.9600 C.3   287  LEU287      0.0022
    155  CD1      -50.4830   41.0730   74.3610 C.3   287  LEU287      0.0001
    156  CD2      -50.7740   42.6520   72.4440 C.3   287  LEU287      0.0001
@<TRIPOS>BOND
     1    46    45    2
     2    45    44    1
     3    39    38    2
     4    38    43   am
     5    38    37    1
     6    57    56    2
     7    44    43    1
     8    44    47    1
     9    35    34    2
    10    37    40    1
    11    37    36    1
    12    40    42    1
    13    40    41    1
    14    59    58    1
    15    58    55    1
    16    58    60    1
    17    55    56    1
    18    55    54    1
    19    56    61   am
    20    64    63    2
    21    47    48    1
    22    34    36   am
    23    34    33    1
    24    31    30    1
    25    30    29    1
    26    63    62    1
    27    61    62    1
    28    62    65    1
    29    33    32    1
    30    32    26   am
    31   106   107    1
    32    29    28    1
    33   110   107    1
    34   110   111    1
    35    28    25    1
    36   108   107    1
    37   108   109    2
    38   113   111    1
    39    25    26    1
    40    25    24    1
    41    67    69   ar
    42    67    66   ar
    43    26    27    2
    44    65    66    1
    45   105   104    2
    46   111   112    1
    47   125   126    1
    48   129   126    1
    49   129   130    1
    50    69    71   ar
    51    19    18    2
    52    66    68   ar
    53    24    18   am
    54   132   131    2
    55    52    51    2
    56   126   127    1
    57   130   131    1
    58   104   103    1
    59    18    17    1
    60   127   128    2
    61    50    51    1
    62    50    49    1
    63    50    53    1
    64   131   133   am
    65   103   102    1
    66    71    72    1
    67    71    70   ar
    68    68    70   ar
    69    20    17    1
    70    20    21    1
    71    17    16    1
    72   133    92    1
    73   114   115    1
    74     4     3    2
    75    22    23    1
    76    22    21    1
    77   139   138    1
    78    16    11   am
    79    12    11    2
    80     2     1    1
    81     2     3    1
    82     2     5    1
    83    92    94   ar
    84    92    90   ar
    85   118   115    1
    86   118   119    1
    87     7     6    2
    88     3     9   am
    89   115   116    1
    90    11    10    1
    91    94    93   ar
    92   138   140    1
    93   138   135    1
    94     6     5    1
    95     6     8   am
    96    90    89   ar
    97   119   120   ar
    98   119   121   ar
    99   120   122   ar
   100     9    10    1
   101   117   116    2
   102    10    13    1
   103   134   135    1
   104   156   154    1
   105   121   123   ar
   106   135   136    1
   107   122   124   ar
   108    93    91   ar
   109    87    86    2
   110   136   137    2
   111    98    97    2
   112    89    91   ar
   113    89    88    1
   114   123   124   ar
   115    13    14    1
   116    13    15    1
   117    97    96    1
   118   154   155    1
   119   154   153    1
   120    86    85    1
   121    86    95   am
   122    88    85    1
   123    85    84    1
   124   153   150    1
   125    96    95    1
   126    96    99    1
   127   150   149    1
   128   150   151    1
   129   148   146    1
   130   149   143   am
   131   101    99    1
   132   146   147    1
   133   146   145    1
   134    99   100    1
   135   151   152    2
   136   141   142    1
   137   143   142    1
   138   143   144    2
   139   145   142    1
   140    76    75    2
   141    81    79   ar
   142    81    83   ar
   143    79    78   ar
   144    74    75    1
   145    74    73    1
   146    74    77    1
   147    83    82   ar
   148    78    77    1
   149    78    80   ar
   150    82    80   ar
