@<TRIPOS>MOLECULE
tmp/6c09C00.pdb
 80 76 0 0 0
SMALL
GASTEIGER

@<TRIPOS>ATOM
      1  N         73.1630  -10.0300  -15.3420 N.3     4  LYS4       -0.1231
      2  CA        72.0220   -9.2400  -14.8920 C.3     4  LYS4        0.1693
      3  C         72.0470   -7.8570  -15.4640 C.2     4  LYS4        0.2592
      4  O         73.0310   -7.1300  -15.3180 O.2     4  LYS4       -0.2718
      5  CB        71.9280   -9.1900  -13.3700 C.3     4  LYS4        0.0285
      6  CG        71.6010  -10.5470  -12.7490 C.3     4  LYS4        0.0035
      7  CD        71.6360  -10.6210  -11.1960 C.3     4  LYS4        0.0206
      8  CE        72.9330  -10.2200  -10.5080 C.3     4  LYS4        0.1093
      9  NZ        74.1410  -10.6370  -11.2580 N.3     4  LYS4       -0.1314
     10  N         70.9700   -7.5180  -16.1640 N.am    5  GLN5       -0.1966
     11  CA        70.7530   -6.2170  -16.7350 C.3     5  GLN5        0.1733
     12  C         69.5690   -5.6530  -15.9930 C.2     5  GLN5        0.2616
     13  O         68.4220   -5.8830  -16.3980 O.2     5  GLN5       -0.2715
     14  CB        70.4080   -6.3540  -18.1920 C.3     5  GLN5        0.0408
     15  CG        71.5420   -6.0540  -19.0910 C.3     5  GLN5        0.0908
     16  CD        71.1010   -6.2640  -20.5090 C.2     5  GLN5        0.2608
     17  OE1       70.6060   -7.3340  -20.9000 O.2     5  GLN5       -0.2717
     18  NE2       71.2620   -5.2400  -21.3000 N.am    5  GLN5       -0.0878
     19  N         69.8230   -4.9760  -14.8520 N.am    6  ASN6       -0.1958
     20  CA        68.7360   -4.3070  -14.1050 C.3     6  ASN6        0.1819
     21  C         68.5050   -3.0270  -14.9470 C.2     6  ASN6        0.2622
     22  O         69.3900   -2.6770  -15.7510 O.2     6  ASN6       -0.2715
     23  CB        69.0890   -4.0420  -12.6020 C.3     6  ASN6        0.1195
     24  CG        69.8430   -5.1700  -11.8520 C.2     6  ASN6        0.2630
     25  OD1       70.8440   -4.9170  -11.1310 O.2     6  ASN6       -0.2716
     26  ND2       69.3750   -6.4360  -11.9840 N.am    6  ASN6       -0.0877
     27  N         67.3070   -2.4210  -14.8590 N.am    7  SER7       -0.1950
     28  CA        66.7650   -1.3280  -15.6960 C.3     7  SER7        0.1924
     29  C         66.2590   -2.0040  -16.9790 C.2     7  SER7        0.2314
     30  O         67.0280   -2.2790  -17.8940 O.2     7  SER7       -0.2863
     31  CB        67.7380   -0.1800  -15.9670 C.3     7  SER7        0.2116
     32  OG        68.0050    0.5140  -14.8000 O.3     7  SER7       -0.2180
     33  N         64.8600    2.3980  -20.5970 N.3    10  LEU10      -0.1245
     34  CA        65.5790    3.6770  -20.5450 C.3    10  LEU10       0.1561
     35  C         65.0580    4.6480  -21.5560 C.2    10  LEU10       0.2260
     36  O         64.8240    4.2760  -22.6900 O.2    10  LEU10      -0.2867
     37  CB        67.0360    3.4240  -20.9040 C.3    10  LEU10       0.0270
     38  CG        68.0780    3.8090  -19.9030 C.3    10  LEU10       0.0019
     39  CD1       67.9730    2.9220  -18.6260 C.3    10  LEU10       0.0001
     40  CD2       69.4490    3.6540  -20.5330 C.3    10  LEU10       0.0001
     41  N         73.6510    5.2070  -21.6960 N.3    19  ILE19      -0.1245
     42  CA        74.4870    4.2730  -20.9740 C.3    19  ILE19       0.1561
     43  C         73.6300    3.1120  -20.5700 C.2    19  ILE19       0.2260
     44  O         72.7070    3.2620  -19.7540 O.2    19  ILE19      -0.2867
     45  CB        75.2040    4.8800  -19.7500 C.3    19  ILE19       0.0252
     46  CG1       75.9770    6.1400  -20.1010 C.3    19  ILE19       0.0019
     47  CG2       76.1080    3.8380  -19.1040 C.3    19  ILE19       0.0019
     48  CD1       75.5660    7.2060  -19.3480 C.3    19  ILE19       0.0001
     49  N         73.8700   -0.6090  -18.7870 N.3    21  ASN21      -0.1225
     50  CA        74.6950   -1.2820  -17.7710 C.3    21  ASN21       0.1785
     51  C         74.3890   -2.7470  -17.6060 C.2    21  ASN21       0.2597
     52  O         73.2500   -3.1820  -17.7410 O.2    21  ASN21      -0.2718
     53  CB        74.5790   -0.6120  -16.4120 C.3    21  ASN21       0.1169
     54  CG        75.1610    0.7540  -16.3270 C.2    21  ASN21       0.2627
     55  OD1       74.5660    1.6490  -15.7570 O.2    21  ASN21      -0.2716
     56  ND2       76.3740    0.9260  -16.7610 N.am   21  ASN21      -0.0877
     57  N         75.3840   -3.4810  -17.1660 N.am   22  CYS22      -0.1956
     58  CA        75.2880   -4.9060  -17.0280 C.3    22  CYS22       0.1843
     59  C         76.2050   -5.3970  -15.8930 C.2    22  CYS22       0.2625
     60  O         77.2470   -4.7980  -15.6420 O.2    22  CYS22      -0.2714
     61  CB        75.6970   -5.4700  -18.3710 C.3    22  CYS22       0.0997
     62  SG        75.5430   -7.2460  -18.5200 S.3    22  CYS22      -0.0797
     63  N         75.8080   -6.4460  -15.1730 N.am   23  ASP23      -0.1971
     64  CA        76.6140   -7.0010  -14.0730 C.3    23  ASP23       0.1709
     65  C         76.6860   -8.4890  -14.2300 C.2    23  ASP23       0.2293
     66  O         75.6700   -9.1280  -14.4800 O.2    23  ASP23      -0.2864
     67  CB        76.0170   -6.6680  -12.6910 C.3    23  ASP23       0.1436
     68  CG        76.1030   -5.2000  -12.2990 C.2    23  ASP23       0.3671
     69  OD1       75.2370   -4.4180  -12.7500 O.co2  23  ASP23      -0.2456
     70  OD2       77.0540   -4.8280  -11.5400 O.co2  23  ASP23      -0.2456
     71  N         81.4780   -5.5320  -13.7240 N.3    71  HIS71      -0.1241
     72  CA        80.5500   -4.6220  -14.3870 C.3    71  HIS71       0.1621
     73  C         81.0130   -4.4060  -15.7950 C.2    71  HIS71       0.2264
     74  O         82.2060   -4.3380  -16.0460 O.2    71  HIS71      -0.2867
     75  CB        80.4410   -3.2850  -13.6480 C.3    71  HIS71       0.0745
     76  CG        79.2400   -2.4750  -14.0470 C.ar   71  HIS71       0.0817
     77  ND1       78.0130   -2.6440  -13.4220 N.ar   71  HIS71      -0.2268
     78  CD2       79.1150   -1.5060  -14.9850 C.ar   71  HIS71       0.1154
     79  CE1       77.1800   -1.8140  -14.0360 C.ar   71  HIS71       0.1986
     80  NE2       77.8000   -1.1000  -14.9730 N.ar   71  HIS71      -0.2212
@<TRIPOS>BOND
     1    36    35    2
     2    41    42    1
     3    35    34    1
     4    18    16   am
     5    42    43    1
     6    42    45    1
     7    37    34    1
     8    37    38    1
     9    17    16    2
    10    33    34    1
    11    43    44    2
    12    40    38    1
    13    16    15    1
    14    46    45    1
    15    46    48    1
    16    38    39    1
    17    45    47    1
    18    15    14    1
    19    49    50    1
    20    62    61    1
    21    61    58    1
    22    14    11    1
    23    30    29    2
    24    50    51    1
    25    50    53    1
    26    52    51    2
    27    51    57   am
    28    57    58    1
    29    58    59    1
    30    29    28    1
    31    56    54   am
    32    11    10    1
    33    11    12    1
    34    53    54    1
    35    13    12    2
    36    54    55    2
    37    10     3   am
    38    74    73    2
    39    12    19   am
    40    31    28    1
    41    31    32    1
    42    59    60    2
    43    59    63   am
    44    73    72    1
    45    22    21    2
    46    28    27    1
    47     3     4    2
    48     3     2    1
    49     1     2    1
    50    63    64    1
    51    78    80   ar
    52    78    76   ar
    53    80    79   ar
    54    21    27   am
    55    21    20    1
    56     2     5    1
    57    19    20    1
    58    66    65    2
    59    72    71    1
    60    72    75    1
    61    65    64    1
    62    20    23    1
    63    64    67    1
    64    76    75    1
    65    76    77   ar
    66    79    77   ar
    67     5     6    1
    68    69    68   ar
    69     6     7    1
    70    67    68    1
    71    23    24    1
    72    68    70   ar
    73    26    24   am
    74    24    25    2
    75     9     8    1
    76     7     8    1
