@<TRIPOS>MOLECULE
tmp/6c09A03.pdb
 104 100 0 0 0
SMALL
GASTEIGER

@<TRIPOS>ATOM
      1  N         85.3690  -27.8340  -24.8910 N.3    66  PHE66      -0.1227
      2  CA        85.2090  -26.9960  -26.0770 C.3    66  PHE66       0.1736
      3  C         86.5120  -26.9560  -26.8890 C.2    66  PHE66       0.2595
      4  O         86.4520  -27.1040  -28.1090 O.2    66  PHE66      -0.2718
      5  CB        84.7290  -25.5810  -25.6970 C.3    66  PHE66       0.0547
      6  CG        84.8280  -24.5440  -26.7950 C.ar   66  PHE66      -0.0202
      7  CD1       83.9150  -24.5270  -27.8510 C.ar   66  PHE66      -0.0042
      8  CD2       85.8280  -23.5760  -26.7740 C.ar   66  PHE66      -0.0042
      9  CE1       83.9870  -23.5400  -28.8540 C.ar   66  PHE66      -0.0003
     10  CE2       85.9290  -22.6240  -27.8030 C.ar   66  PHE66      -0.0003
     11  CZ        84.9920  -22.5950  -28.8190 C.ar   66  PHE66      -0.0000
     12  N         87.6850  -26.7560  -26.2180 N.am   67  TYR67      -0.1976
     13  CA        89.0040  -26.7120  -26.8740 C.3    67  TYR67       0.1639
     14  C         89.3350  -28.0610  -27.5070 C.2    67  TYR67       0.2290
     15  O         89.9000  -28.0840  -28.5950 O.2    67  TYR67      -0.2864
     16  CB        90.1390  -26.3430  -25.8950 C.3    67  TYR67       0.0560
     17  CG        90.3310  -24.8800  -25.5290 C.ar   67  TYR67      -0.0198
     18  CD1       89.5980  -23.8720  -26.1560 C.ar   67  TYR67      -0.0009
     19  CD2       91.2540  -24.5060  -24.5520 C.ar   67  TYR67      -0.0009
     20  CE1       89.7740  -22.5320  -25.8150 C.ar   67  TYR67       0.0417
     21  CE2       91.4280  -23.1730  -24.1960 C.ar   67  TYR67       0.0417
     22  CZ        90.6890  -22.1910  -24.8310 C.ar   67  TYR67       0.1957
     23  OH        90.8760  -20.8870  -24.4610 O.3    67  TYR67      -0.2866
     24  N         87.0770  -28.4260  -30.8000 N.3    70  GLY70      -0.1210
     25  CA        87.6770  -27.6500  -31.8820 C.3    70  GLY70       0.1956
     26  C         89.0560  -28.1150  -32.3270 C.2    70  GLY70       0.2611
     27  O         89.3410  -28.1190  -33.5280 O.2    70  GLY70      -0.2717
     28  N         89.9290  -28.5210  -31.3800 N.am   71  LEU71      -0.1979
     29  CA        91.2790  -28.9790  -31.7280 C.3    71  LEU71       0.1596
     30  C         91.2500  -30.2680  -32.5380 C.2    71  LEU71       0.2287
     31  O         91.7810  -30.2910  -33.6490 O.2    71  LEU71      -0.2864
     32  CB        92.1360  -29.1590  -30.4720 C.3    71  LEU71       0.0297
     33  CG        93.6170  -29.4640  -30.6010 C.3    71  LEU71       0.0022
     34  CD1       94.3440  -28.3970  -31.3910 C.3    71  LEU71       0.0001
     35  CD2       94.2280  -29.5260  -29.2340 C.3    71  LEU71       0.0001
     36  N         89.5520  -29.8700  -36.0910 N.3    74  GLU74      -0.1231
     37  CA        90.4350  -29.1840  -37.0360 C.3    74  GLU74       0.1699
     38  C         91.6110  -30.0230  -37.4810 C.2    74  GLU74       0.2592
     39  O         91.9170  -30.0220  -38.6720 O.2    74  GLU74      -0.2718
     40  CB        90.9150  -27.8350  -36.4830 C.3    74  GLU74       0.0402
     41  CG        89.8540  -26.7470  -36.5180 C.3    74  GLU74       0.1161
     42  CD        89.2300  -26.4220  -37.8630 C.2    74  GLU74       0.3649
     43  OE1       88.0250  -26.0840  -37.8630 O.co2  74  GLU74      -0.2457
     44  OE2       89.9350  -26.4650  -38.9030 O.co2  74  GLU74      -0.2457
     45  N         92.2710  -30.7320  -36.5420 N.am   75  ILE75      -0.1980
     46  CA        93.4000  -31.6010  -36.8790 C.3    75  ILE75       0.1595
     47  C         92.9240  -32.6780  -37.8550 C.2    75  ILE75       0.2287
     48  O         93.4420  -32.7410  -38.9660 O.2    75  ILE75      -0.2864
     49  CB        94.1540  -32.1820  -35.6390 C.3    75  ILE75       0.0276
     50  CG1       94.9300  -31.0650  -34.8890 C.3    75  ILE75       0.0022
     51  CG2       95.1260  -33.2860  -36.0790 C.3    75  ILE75       0.0022
     52  CD1       95.2610  -31.3290  -33.4570 C.3    75  ILE75       0.0001
     53  N         92.1430  -31.3070  -41.3200 N.3    78  HIS78      -0.1241
     54  CA        93.3220  -31.0270  -42.1440 C.3    78  HIS78       0.1621
     55  C         94.0830  -32.2940  -42.5240 C.2    78  HIS78       0.2264
     56  O         94.6550  -32.3530  -43.6180 O.2    78  HIS78      -0.2867
     57  CB        94.2610  -30.0230  -41.4750 C.3    78  HIS78       0.0745
     58  CG        93.7690  -28.6170  -41.5230 C.ar   78  HIS78       0.0817
     59  ND1       93.0910  -28.0580  -40.4640 N.ar   78  HIS78      -0.2268
     60  CD2       93.8710  -27.7000  -42.5110 C.ar   78  HIS78       0.1154
     61  CE1       92.8100  -26.8210  -40.8300 C.ar   78  HIS78       0.1986
     62  NE2       93.2540  -26.5630  -42.0600 N.ar   78  HIS78      -0.2212
     63  N        100.8630  -23.7730  -39.5420 N.3   138  VAL138     -0.1245
     64  CA        99.9310  -23.7810  -38.4290 C.3   138  VAL138      0.1561
     65  C        100.0020  -22.4490  -37.6880 C.2   138  VAL138      0.2260
     66  O         98.9440  -21.9330  -37.3270 O.2   138  VAL138     -0.2867
     67  CB       100.0560  -25.0360  -37.5290 C.3   138  VAL138      0.0252
     68  CG1      101.4120  -25.1360  -36.8760 C.3   138  VAL138      0.0019
     69  CG2       98.9540  -25.1020  -36.4790 C.3   138  VAL138      0.0019
     70  N         97.7100  -20.0360  -39.5530 N.3   141  LEU141     -0.1231
     71  CA        96.2910  -20.2520  -39.2330 C.3   141  LEU141      0.1693
     72  C         95.9380  -19.6170  -37.9170 C.2   141  LEU141      0.2591
     73  O         94.9620  -18.8840  -37.8400 O.2   141  LEU141     -0.2718
     74  CB        95.9130  -21.7330  -39.1030 C.3   141  LEU141      0.0284
     75  CG        96.1500  -22.6770  -40.2290 C.3   141  LEU141      0.0019
     76  CD1       95.8560  -24.0890  -39.7740 C.3   141  LEU141      0.0001
     77  CD2       95.2960  -22.3210  -41.4530 C.3   141  LEU141      0.0001
     78  N         96.6940  -19.9580  -36.8700 N.am  142  LEU142     -0.1980
     79  CA        96.4190  -19.4860  -35.5290 C.3   142  LEU142      0.1596
     80  C         96.4170  -17.9540  -35.4070 C.2   142  LEU142      0.2287
     81  O         95.4810  -17.3740  -34.8390 O.2   142  LEU142     -0.2864
     82  CB        97.3930  -20.1360  -34.5330 C.3   142  LEU142      0.0297
     83  CG        97.3970  -21.6700  -34.4390 C.3   142  LEU142      0.0022
     84  CD1       98.3870  -22.1280  -33.4140 C.3   142  LEU142      0.0001
     85  CD2       96.0130  -22.2290  -34.1280 C.3   142  LEU142      0.0001
     86  N         92.4010  -17.7320  -36.0300 N.3   146  TYR146     -0.1241
     87  CA        91.9520  -18.0010  -34.6540 C.3   146  TYR146      0.1605
     88  C         92.3140  -16.9350  -33.6110 C.2   146  TYR146      0.2264
     89  O         92.5820  -17.2590  -32.4560 O.2   146  TYR146     -0.2867
     90  CB        92.4580  -19.3870  -34.1990 C.3   146  TYR146      0.0534
     91  CG        91.9060  -20.5140  -35.0380 C.ar  146  TYR146     -0.0201
     92  CD1       92.5390  -20.9090  -36.2130 C.ar  146  TYR146     -0.0009
     93  CD2       90.7270  -21.1610  -34.6820 C.ar  146  TYR146     -0.0009
     94  CE1       92.0100  -21.9150  -37.0130 C.ar  146  TYR146      0.0417
     95  CE2       90.2070  -22.1920  -35.4570 C.ar  146  TYR146      0.0417
     96  CZ        90.8520  -22.5630  -36.6230 C.ar  146  TYR146      0.1957
     97  OH        90.3210  -23.5420  -37.4160 O.3   146  TYR146     -0.2866
     98  N         90.2660  -17.4070  -30.1780 N.3   149  VAL149     -0.1245
     99  CA        90.7090  -18.4670  -29.2690 C.3   149  VAL149      0.1561
    100  C         92.0730  -18.1000  -28.6660 C.2   149  VAL149      0.2260
    101  O         92.3270  -18.4020  -27.4870 O.2   149  VAL149     -0.2867
    102  CB        90.6590  -19.9050  -29.8490 C.3   149  VAL149      0.0252
    103  CG1       89.4810  -20.0920  -30.8030 C.3   149  VAL149      0.0019
    104  CG2       91.9750  -20.3090  -30.5030 C.3   149  VAL149      0.0019
@<TRIPOS>BOND
     1    56    55    2
     2    55    54    1
     3    60    62   ar
     4    60    58   ar
     5    54    57    1
     6    54    53    1
     7    62    61   ar
     8    58    57    1
     9    58    59   ar
    10    77    75    1
    11    61    59   ar
    12    75    76    1
    13    75    74    1
    14    70    71    1
    15    63    64    1
    16    71    74    1
    17    71    72    1
    18    48    47    2
    19    44    42   ar
    20    39    38    2
    21    64    65    1
    22    64    67    1
    23    72    73    2
    24    72    78   am
    25    43    42   ar
    26    42    41    1
    27    47    46    1
    28    65    66    2
    29    67    68    1
    30    67    69    1
    31    38    37    1
    32    38    45   am
    33    97    96    1
    34    37    40    1
    35    37    36    1
    36    94    96   ar
    37    94    92   ar
    38    46    45    1
    39    46    49    1
    40    78    79    1
    41    96    95   ar
    42    41    40    1
    43    92    91   ar
    44    51    49    1
    45    86    87    1
    46    49    50    1
    47    79    80    1
    48    79    82    1
    49    95    93   ar
    50    80    81    2
    51    91    93   ar
    52    91    90    1
    53    50    52    1
    54    87    90    1
    55    87    88    1
    56    82    83    1
    57    83    85    1
    58    83    84    1
    59    31    30    2
    60    88    89    2
    61    27    26    2
    62    30    29    1
    63    26    25    1
    64    26    28   am
    65    25    24    1
    66    29    28    1
    67    29    32    1
    68    34    33    1
    69   103   102    1
    70    33    32    1
    71    33    35    1
    72   104   102    1
    73    98    99    1
    74   102    99    1
    75    99   100    1
    76     9    11   ar
    77     9     7   ar
    78    11    10   ar
    79   100   101    2
    80    15    14    2
    81     4     3    2
    82     7     6   ar
    83    10     8   ar
    84    14    13    1
    85     3    12   am
    86     3     2    1
    87    13    12    1
    88    13    16    1
    89     6     8   ar
    90     6     5    1
    91    18    20   ar
    92    18    17   ar
    93     2     5    1
    94     2     1    1
    95    16    17    1
    96    20    22   ar
    97    17    19   ar
    98    22    23    1
    99    22    21   ar
   100    19    21   ar
