@<TRIPOS>MOLECULE
tmp/6c09A02.pdb
 149 139 0 0 0
SMALL
GASTEIGER

@<TRIPOS>ATOM
      1  N         87.6850  -26.7560  -26.2180 N.3    67  TYR67      -0.1241
      2  CA        89.0040  -26.7120  -26.8740 C.3    67  TYR67       0.1605
      3  C         89.3350  -28.0610  -27.5070 C.2    67  TYR67       0.2264
      4  O         89.9000  -28.0840  -28.5950 O.2    67  TYR67      -0.2867
      5  CB        90.1390  -26.3430  -25.8950 C.3    67  TYR67       0.0534
      6  CG        90.3310  -24.8800  -25.5290 C.ar   67  TYR67      -0.0201
      7  CD1       89.5980  -23.8720  -26.1560 C.ar   67  TYR67      -0.0009
      8  CD2       91.2540  -24.5060  -24.5520 C.ar   67  TYR67      -0.0009
      9  CE1       89.7740  -22.5320  -25.8150 C.ar   67  TYR67       0.0417
     10  CE2       91.4280  -23.1730  -24.1960 C.ar   67  TYR67       0.0417
     11  CZ        90.6890  -22.1910  -24.8310 C.ar   67  TYR67       0.1957
     12  OH        90.8760  -20.8870  -24.4610 O.3    67  TYR67      -0.2866
     13  N         89.9290  -28.5210  -31.3800 N.3    71  LEU71      -0.1245
     14  CA        91.2790  -28.9790  -31.7280 C.3    71  LEU71       0.1561
     15  C         91.2500  -30.2680  -32.5380 C.2    71  LEU71       0.2260
     16  O         91.7810  -30.2910  -33.6490 O.2    71  LEU71      -0.2867
     17  CB        92.1360  -29.1590  -30.4720 C.3    71  LEU71       0.0270
     18  CG        93.6170  -29.4640  -30.6010 C.3    71  LEU71       0.0019
     19  CD1       94.3440  -28.3970  -31.3910 C.3    71  LEU71       0.0001
     20  CD2       94.2280  -29.5260  -29.2340 C.3    71  LEU71       0.0001
     21  N         92.2710  -30.7320  -36.5420 N.3    75  ILE75      -0.1245
     22  CA        93.4000  -31.6010  -36.8790 C.3    75  ILE75       0.1561
     23  C         92.9240  -32.6780  -37.8550 C.2    75  ILE75       0.2260
     24  O         93.4420  -32.7410  -38.9660 O.2    75  ILE75      -0.2867
     25  CB        94.1540  -32.1820  -35.6390 C.3    75  ILE75       0.0252
     26  CG1       94.9300  -31.0650  -34.8890 C.3    75  ILE75       0.0019
     27  CG2       95.1260  -33.2860  -36.0790 C.3    75  ILE75       0.0019
     28  CD1       95.2610  -31.3290  -33.4570 C.3    75  ILE75       0.0001
     29  N        100.2890  -40.1000  -35.6890 N.3    88  PHE88      -0.1241
     30  CA       101.0680  -38.9920  -35.1420 C.3    88  PHE88       0.1605
     31  C        100.5730  -38.5590  -33.7530 C.2    88  PHE88       0.2264
     32  O         99.4010  -38.7580  -33.4070 O.2    88  PHE88      -0.2867
     33  CB       101.1740  -37.8070  -36.1120 C.3    88  PHE88       0.0534
     34  CG        99.8640  -37.1500  -36.4640 C.ar   88  PHE88      -0.0203
     35  CD1       99.1000  -37.6130  -37.5230 C.ar   88  PHE88      -0.0042
     36  CD2       99.3850  -36.0740  -35.7250 C.ar   88  PHE88      -0.0042
     37  CE1       97.8880  -37.0030  -37.8430 C.ar   88  PHE88      -0.0003
     38  CE2       98.1860  -35.4510  -36.0610 C.ar   88  PHE88      -0.0003
     39  CZ        97.4470  -35.9220  -37.1170 C.ar   88  PHE88      -0.0000
     40  N        100.6040  -35.3720  -30.7000 N.3    90  VAL90      -0.1245
     41  CA       100.6140  -33.9350  -30.4570 C.3    90  VAL90       0.1561
     42  C        100.6200  -33.8080  -28.9490 C.2    90  VAL90       0.2260
     43  O         99.8380  -34.4660  -28.2560 O.2    90  VAL90      -0.2867
     44  CB        99.4290  -33.1710  -31.1040 C.3    90  VAL90       0.0252
     45  CG1       99.5060  -31.6810  -30.7830 C.3    90  VAL90       0.0019
     46  CG2       99.3740  -33.3860  -32.6230 C.3    90  VAL90       0.0019
     47  N        100.9420  -30.9350  -25.7480 N.3    92  VAL92      -0.1245
     48  CA       100.7740  -29.5600  -25.3210 C.3    92  VAL92       0.1561
     49  C        101.1740  -29.4860  -23.8410 C.2    92  VAL92       0.2260
     50  O        100.8010  -30.3690  -23.0680 O.2    92  VAL92      -0.2867
     51  CB        99.3020  -29.1070  -25.5170 C.3    92  VAL92       0.0252
     52  CG1       99.0500  -27.7240  -24.9130 C.3    92  VAL92       0.0019
     53  CG2       98.8750  -29.1580  -26.9790 C.3    92  VAL92       0.0019
     54  N        102.7540  -21.6430  -23.4100 N.3   108  PHE108     -0.1241
     55  CA       101.9370  -22.6010  -24.1480 C.3   108  PHE108      0.1605
     56  C        102.8370  -23.1690  -25.2060 C.2   108  PHE108      0.2264
     57  O        103.2110  -22.4630  -26.1480 O.2   108  PHE108     -0.2867
     58  CB       100.6850  -21.9540  -24.7450 C.3   108  PHE108      0.0534
     59  CG        99.6590  -22.9250  -25.2950 C.ar  108  PHE108     -0.0203
     60  CD1       99.9610  -23.7510  -26.3810 C.ar  108  PHE108     -0.0042
     61  CD2       98.3630  -22.9470  -24.7920 C.ar  108  PHE108     -0.0042
     62  CE1       99.0060  -24.6380  -26.8930 C.ar  108  PHE108     -0.0003
     63  CE2       97.4060  -23.8200  -25.3150 C.ar  108  PHE108     -0.0003
     64  CZ        97.7360  -24.6660  -26.3570 C.ar  108  PHE108     -0.0000
     65  N        103.8330  -26.4040  -27.9390 N.3   110  VAL110     -0.1245
     66  CA       103.3000  -27.5200  -28.7300 C.3   110  VAL110      0.1561
     67  C        104.4390  -28.3060  -29.4160 C.2   110  VAL110      0.2260
     68  O        105.4000  -27.7100  -29.9290 O.2   110  VAL110     -0.2867
     69  CB       102.1610  -27.1040  -29.7110 C.3   110  VAL110      0.0252
     70  CG1      101.6200  -28.2990  -30.4890 C.3   110  VAL110      0.0019
     71  CG2      101.0210  -26.4460  -28.9600 C.3   110  VAL110      0.0019
     72  N        105.0230  -31.6330  -32.1240 N.3   112  PHE112     -0.1241
     73  CA       104.5230  -32.5840  -33.0880 C.3   112  PHE112      0.1605
     74  C        105.5490  -33.7150  -33.2410 C.2   112  PHE112      0.2264
     75  O        106.7010  -33.4770  -33.6300 O.2   112  PHE112     -0.2867
     76  CB       104.2240  -31.8920  -34.4110 C.3   112  PHE112      0.0534
     77  CG       103.6710  -32.8400  -35.4400 C.ar  112  PHE112     -0.0203
     78  CD1      102.3310  -33.2050  -35.4220 C.ar  112  PHE112     -0.0042
     79  CD2      104.4910  -33.3760  -36.4260 C.ar  112  PHE112     -0.0042
     80  CE1      101.8240  -34.0920  -36.3720 C.ar  112  PHE112     -0.0003
     81  CE2      103.9830  -34.2730  -37.3670 C.ar  112  PHE112     -0.0003
     82  CZ       102.6510  -34.6230  -37.3330 C.ar  112  PHE112     -0.0000
     83  N        107.1640  -27.6680  -32.0500 N.3   117  LEU117     -0.1231
     84  CA       106.4490  -27.1660  -33.2230 C.3   117  LEU117      0.1693
     85  C        106.1110  -25.6780  -33.0580 C.2   117  LEU117      0.2591
     86  O        106.4860  -24.8820  -33.9060 O.2   117  LEU117     -0.2718
     87  CB       105.1700  -28.0120  -33.4320 C.3   117  LEU117      0.0284
     88  CG       104.1730  -27.5900  -34.5150 C.3   117  LEU117      0.0019
     89  CD1      104.6650  -27.9440  -35.8950 C.3   117  LEU117      0.0001
     90  CD2      102.8350  -28.2390  -34.2850 C.3   117  LEU117      0.0001
     91  N        105.4250  -25.3090  -31.9590 N.am  118  LEU118     -0.1980
     92  CA       104.9480  -23.9420  -31.6660 C.3   118  LEU118      0.1596
     93  C        105.2570  -23.4750  -30.2580 C.2   118  LEU118      0.2287
     94  O        105.7000  -24.2500  -29.4070 O.2   118  LEU118     -0.2864
     95  CB       103.4140  -23.8510  -31.8460 C.3   118  LEU118      0.0297
     96  CG       102.8250  -24.4110  -33.1320 C.3   118  LEU118      0.0022
     97  CD1      101.3310  -24.4340  -33.0700 C.3   118  LEU118      0.0001
     98  CD2      103.3420  -23.6820  -34.3450 C.3   118  LEU118      0.0001
     99  N        101.6350  -16.4290  -31.7700 N.3   125  TRP125     -0.1241
    100  CA       102.1320  -17.7920  -31.9480 C.3   125  TRP125      0.1605
    101  C        103.4240  -17.7170  -32.7500 C.2   125  TRP125      0.2264
    102  O        103.4500  -17.1390  -33.8460 O.2   125  TRP125     -0.2867
    103  CB       101.1270  -18.6680  -32.7080 C.3   125  TRP125      0.0550
    104  CG        99.8650  -18.9140  -31.9560 C.ar  125  TRP125      0.0003
    105  CD1       98.6700  -18.2910  -32.1440 C.ar  125  TRP125      0.0946
    106  CD2       99.6860  -19.8030  -30.8450 C.ar  125  TRP125      0.0152
    107  NE1       97.7470  -18.7500  -31.2340 N.ar  125  TRP125     -0.2442
    108  CE2       98.3460  -19.6700  -30.4150 C.ar  125  TRP125      0.0810
    109  CE3      100.5330  -20.6830  -30.1500 C.ar  125  TRP125      0.0012
    110  CZ2       97.8260  -20.4070  -29.3400 C.ar  125  TRP125      0.0191
    111  CZ3      100.0220  -21.3910  -29.0700 C.ar  125  TRP125      0.0001
    112  CH2       98.6880  -21.2430  -28.6710 C.ar  125  TRP125      0.0015
    113  N        105.5580  -27.1570  -41.1920 N.3   134  LEU134     -0.1245
    114  CA       104.2120  -27.2210  -40.6160 C.3   134  LEU134      0.1561
    115  C        104.0760  -26.1350  -39.5880 C.2   134  LEU134      0.2260
    116  O        103.0080  -25.5450  -39.4900 O.2   134  LEU134     -0.2867
    117  CB       103.9340  -28.5840  -39.9470 C.3   134  LEU134      0.0270
    118  CG       103.7710  -29.7800  -40.8840 C.3   134  LEU134      0.0019
    119  CD1      103.6530  -31.0340  -40.0500 C.3   134  LEU134      0.0001
    120  CD2      102.5510  -29.6520  -41.7590 C.3   134  LEU134      0.0001
    121  N        100.8630  -23.7730  -39.5420 N.3   138  VAL138     -0.1245
    122  CA        99.9310  -23.7810  -38.4290 C.3   138  VAL138      0.1561
    123  C        100.0020  -22.4490  -37.6880 C.2   138  VAL138      0.2260
    124  O         98.9440  -21.9330  -37.3270 O.2   138  VAL138     -0.2867
    125  CB       100.0560  -25.0360  -37.5290 C.3   138  VAL138      0.0252
    126  CG1      101.4120  -25.1360  -36.8760 C.3   138  VAL138      0.0019
    127  CG2       98.9540  -25.1020  -36.4790 C.3   138  VAL138      0.0019
    128  N         96.6940  -19.9580  -36.8700 N.3   142  LEU142     -0.1245
    129  CA        96.4190  -19.4860  -35.5290 C.3   142  LEU142      0.1561
    130  C         96.4170  -17.9540  -35.4070 C.2   142  LEU142      0.2260
    131  O         95.4810  -17.3740  -34.8390 O.2   142  LEU142     -0.2867
    132  CB        97.3930  -20.1360  -34.5330 C.3   142  LEU142      0.0270
    133  CG        97.3970  -21.6700  -34.4390 C.3   142  LEU142      0.0019
    134  CD1       98.3870  -22.1280  -33.4140 C.3   142  LEU142      0.0001
    135  CD2       96.0130  -22.2290  -34.1280 C.3   142  LEU142      0.0001
    136  N         90.2660  -17.4070  -30.1780 N.3   149  VAL149     -0.1245
    137  CA        90.7090  -18.4670  -29.2690 C.3   149  VAL149      0.1561
    138  C         92.0730  -18.1000  -28.6660 C.2   149  VAL149      0.2260
    139  O         92.3270  -18.4020  -27.4870 O.2   149  VAL149     -0.2867
    140  CB        90.6590  -19.9050  -29.8490 C.3   149  VAL149      0.0252
    141  CG1       89.4810  -20.0920  -30.8030 C.3   149  VAL149      0.0019
    142  CG2       91.9750  -20.3090  -30.5030 C.3   149  VAL149      0.0019
    143  N         93.1460  -18.0540  -24.8460 N.3   153  VAL153     -0.1245
    144  CA        94.3520  -18.7760  -24.4200 C.3   153  VAL153      0.1561
    145  C         95.1790  -17.7850  -23.5910 C.2   153  VAL153      0.2260
    146  O         95.4800  -18.0770  -22.4390 O.2   153  VAL153     -0.2867
    147  CB        95.1480  -19.3970  -25.6040 C.3   153  VAL153      0.0252
    148  CG1       96.6020  -19.6840  -25.2270 C.3   153  VAL153      0.0019
    149  CG2       94.4730  -20.6630  -26.0920 C.3   153  VAL153      0.0019
@<TRIPOS>BOND
     1   120   118    1
     2   113   114    1
     3   118   119    1
     4   118   117    1
     5   114   117    1
     6   114   115    1
     7   115   116    2
     8   121   122    1
     9    24    23    2
    10   122   123    1
    11   122   125    1
    12    23    22    1
    13    37    35   ar
    14    37    39   ar
    15   123   124    2
    16   125   126    1
    17   125   127    1
    18    35    34   ar
    19    81    82   ar
    20    81    79   ar
    21    82    80   ar
    22    39    38   ar
    23    22    21    1
    24    22    25    1
    25   128   129    1
    26    34    33    1
    27    34    36   ar
    28    79    77   ar
    29    80    78   ar
    30    33    30    1
    31    27    25    1
    32    38    36   ar
    33    89    88    1
    34    29    30    1
    35    25    26    1
    36   129   130    1
    37   129   132    1
    38    77    78   ar
    39    77    76    1
    40   130   131    2
    41    30    31    1
    42    26    28    1
    43   132   133    1
    44    88    90    1
    45    88    87    1
    46   133   135    1
    47   133   134    1
    48    76    73    1
    49    98    96    1
    50    86    85    2
    51   102   101    2
    52    31    32    2
    53    16    15    2
    54    75    74    2
    55    87    84    1
    56    74    73    1
    57    84    85    1
    58    84    83    1
    59    96    97    1
    60    96    95    1
    61    73    72    1
    62    85    91   am
    63   101   100    1
    64   103   104    1
    65   103   100    1
    66    46    44    1
    67    15    14    1
    68   105   104   ar
    69   105   107   ar
    70    91    92    1
    71   104   106   ar
    72   100    99    1
    73    95    92    1
    74    14    13    1
    75    14    17    1
    76    92    93    1
    77    19    18    1
    78   107   108   ar
    79    44    45    1
    80    44    41    1
    81   106   108   ar
    82   106   109   ar
    83   141   140    1
    84    40    41    1
    85    18    17    1
    86    18    20    1
    87   142   140    1
    88    70    69    1
    89    41    42    1
    90   108   110   ar
    91    93    94    2
    92   136   137    1
    93   109   111   ar
    94    68    67    2
    95   140   137    1
    96    69    71    1
    97    69    66    1
    98    67    66    1
    99   110   112   ar
   100   137   138    1
   101   111   112   ar
   102    42    43    2
   103    66    65    1
   104   138   139    2
   105     4     3    2
   106     3     2    1
   107    53    51    1
   108    62    60   ar
   109    62    64   ar
   110     2     1    1
   111     2     5    1
   112    60    59   ar
   113    64    63   ar
   114     7     9   ar
   115     7     6   ar
   116    57    56    2
   117   149   147    1
   118     5     6    1
   119     9    11   ar
   120    47    48    1
   121   147   148    1
   122   147   144    1
   123     6     8   ar
   124    51    48    1
   125    51    52    1
   126    48    49    1
   127    63    61   ar
   128    59    61   ar
   129    59    58    1
   130    56    55    1
   131   143   144    1
   132    11    12    1
   133    11    10   ar
   134    58    55    1
   135     8    10   ar
   136   144   145    1
   137    55    54    1
   138    49    50    2
   139   145   146    2
