@<TRIPOS>MOLECULE
tmp/6c09A01.pdb
 206 197 0 0 0
SMALL
GASTEIGER

@<TRIPOS>ATOM
      1  N        102.4680  -23.7320  -12.2890 N.3     4  PHE4       -0.1241
      2  CA       101.3850  -24.6640  -12.6080 C.3     4  PHE4        0.1605
      3  C        101.3560  -24.8760  -14.1370 C.2     4  PHE4        0.2264
      4  O        101.6750  -23.9560  -14.9050 O.2     4  PHE4       -0.2867
      5  CB       100.0260  -24.1850  -12.1080 C.3     4  PHE4        0.0534
      6  CG        98.9610  -25.2310  -12.2790 C.ar    4  PHE4       -0.0203
      7  CD1       98.9040  -26.3340  -11.4340 C.ar    4  PHE4       -0.0042
      8  CD2       98.0110  -25.1170  -13.2770 C.ar    4  PHE4       -0.0042
      9  CE1       97.9150  -27.3140  -11.5950 C.ar    4  PHE4       -0.0003
     10  CE2       97.0280  -26.0980  -13.4420 C.ar    4  PHE4       -0.0003
     11  CZ        96.9890  -27.1910  -12.6000 C.ar    4  PHE4       -0.0000
     12  N         99.4080  -27.7560  -17.3280 N.3     6  VAL6       -0.1231
     13  CA        98.6220  -28.9080  -17.7340 C.3     6  VAL6        0.1692
     14  C         99.3430  -29.5330  -18.9150 C.2     6  VAL6        0.2592
     15  O        100.0860  -28.8530  -19.6220 O.2     6  VAL6       -0.2718
     16  CB        97.1070  -28.6350  -17.9950 C.3     6  VAL6        0.0266
     17  CG1       96.5270  -27.6840  -16.9590 C.3     6  VAL6        0.0020
     18  CG2       96.8520  -28.1140  -19.3890 C.3     6  VAL6        0.0020
     19  N         99.2010  -30.8320  -19.0750 N.am    7  ILE7       -0.1966
     20  CA        99.8180  -31.5240  -20.1950 C.3     7  ILE7        0.1727
     21  C         98.7200  -32.2630  -20.9540 C.2     7  ILE7        0.2616
     22  O         97.7950  -32.8110  -20.3390 O.2     7  ILE7       -0.2715
     23  CB       101.0470  -32.4270  -19.8280 C.3     7  ILE7        0.0290
     24  CG1      100.6420  -33.6360  -18.9760 C.3     7  ILE7        0.0022
     25  CG2      102.1980  -31.6270  -19.1780 C.3     7  ILE7        0.0023
     26  CD1      101.5180  -34.8010  -19.0890 C.3     7  ILE7        0.0001
     27  N         98.7870  -32.2430  -22.2850 N.am    8  GLN8       -0.1977
     28  CA        97.8060  -32.9580  -23.0920 C.3     8  GLN8        0.1601
     29  C         98.5640  -33.8110  -24.0570 C.2     8  GLN8        0.2287
     30  O         99.4640  -33.3040  -24.7030 O.2     8  GLN8       -0.2864
     31  CB        96.8570  -31.9900  -23.8220 C.3     8  GLN8        0.0394
     32  CG        96.1920  -31.0160  -22.8830 C.3     8  GLN8        0.0908
     33  CD        95.5820  -29.8410  -23.5650 C.2     8  GLN8        0.2608
     34  OE1       96.0850  -29.3450  -24.5690 O.2     8  GLN8       -0.2717
     35  NE2       94.5210  -29.3150  -22.9690 N.am    8  GLN8       -0.0878
     36  N         97.8500  -36.0850  -27.2590 N.3    10  PHE10      -0.1241
     37  CA        96.9100  -36.4530  -28.3310 C.3    10  PHE10       0.1605
     38  C         97.5230  -37.4530  -29.2620 C.2    10  PHE10       0.2264
     39  O         98.5590  -37.1780  -29.8640 O.2    10  PHE10      -0.2867
     40  CB        96.4730  -35.2370  -29.1470 C.3    10  PHE10       0.0534
     41  CG        95.8320  -34.1650  -28.3180 C.ar   10  PHE10      -0.0203
     42  CD1       94.5650  -34.3440  -27.7860 C.ar   10  PHE10      -0.0042
     43  CD2       96.5120  -32.9880  -28.0340 C.ar   10  PHE10      -0.0042
     44  CE1       94.0010  -33.3730  -26.9680 C.ar   10  PHE10      -0.0003
     45  CE2       95.9490  -32.0160  -27.2150 C.ar   10  PHE10      -0.0003
     46  CZ        94.6990  -32.2170  -26.6800 C.ar   10  PHE10      -0.0000
     47  N         92.9480  -38.7400  -26.3070 N.3    20  GLY20      -0.1210
     48  CA        93.5860  -37.7220  -25.4930 C.3    20  GLY20       0.1956
     49  C         93.7540  -38.1050  -24.0300 C.2    20  GLY20       0.2612
     50  O         92.9200  -38.8120  -23.4460 O.2    20  GLY20      -0.2717
     51  N         94.8410  -37.6240  -23.4280 N.am   21  GLN21      -0.1965
     52  CA        95.1820  -37.8570  -22.0350 C.3    21  GLN21       0.1733
     53  C         95.5230  -36.5060  -21.4960 C.2    21  GLN21       0.2617
     54  O         96.1120  -35.7020  -22.2190 O.2    21  GLN21      -0.2715
     55  CB        96.4220  -38.7620  -21.9290 C.3    21  GLN21       0.0408
     56  CG        96.1570  -40.2200  -22.2030 C.3    21  GLN21       0.0908
     57  CD        97.1660  -41.0940  -21.5170 C.2    21  GLN21       0.2608
     58  OE1       97.3330  -41.0560  -20.2780 O.2    21  GLN21      -0.2717
     59  NE2       97.8230  -41.9450  -22.3030 N.am   21  GLN21      -0.0878
     60  N         95.1740  -36.2440  -20.2450 N.am   22  GLY22      -0.1940
     61  CA        95.4760  -34.9500  -19.6400 C.3    22  GLY22       0.2014
     62  C         95.7450  -34.9730  -18.1530 C.2    22  GLY22       0.2640
     63  O         95.2580  -35.8640  -17.4400 O.2    22  GLY22      -0.2714
     64  N         96.5090  -33.9710  -17.6750 N.am   23  SER23      -0.1935
     65  CA        96.8430  -33.8560  -16.2620 C.3    23  SER23       0.2055
     66  C         97.2650  -32.4680  -15.8540 C.2    23  SER23       0.2643
     67  O         97.7700  -31.7080  -16.6780 O.2    23  SER23      -0.2714
     68  CB        97.8950  -34.8920  -15.8280 C.3    23  SER23       0.2130
     69  OG        98.8980  -35.1840  -16.7920 O.3    23  SER23      -0.2179
     70  N         97.0710  -32.1860  -14.5600 N.am   24  GLY24      -0.1954
     71  CA        97.4520  -30.9550  -13.8790 C.3    24  GLY24       0.1869
     72  C         98.6750  -31.2100  -13.0210 C.2    24  GLY24       0.2309
     73  O         98.7450  -32.2320  -12.3360 O.2    24  GLY24      -0.2863
     74  N         96.0370  -32.9710  -10.6080 N.3    32  HIS32      -0.1226
     75  CA        94.8060  -33.2430  -11.3260 C.3    32  HIS32       0.1752
     76  C         94.9530  -34.2810  -12.3910 C.2    32  HIS32       0.2597
     77  O         95.9930  -34.3820  -13.0520 O.2    32  HIS32      -0.2718
     78  CB        94.3280  -31.9750  -12.0370 C.3    32  HIS32       0.0759
     79  CG        94.1940  -30.8000  -11.1510 C.ar   32  HIS32       0.0818
     80  ND1       95.2180  -29.8930  -11.0160 N.ar   32  HIS32      -0.2268
     81  CD2       93.1580  -30.4210  -10.3740 C.ar   32  HIS32       0.1154
     82  CE1       94.7780  -28.9890  -10.1560 C.ar   32  HIS32       0.1986
     83  NE2       93.5400  -29.2620   -9.7510 N.ar   32  HIS32      -0.2212
     84  N         93.8500  -34.9460  -12.6400 N.am   33  GLY33      -0.1942
     85  CA        93.7290  -35.8800  -13.7380 C.3    33  GLY33       0.2014
     86  C         92.6220  -35.4050  -14.6460 C.2    33  GLY33       0.2638
     87  O         92.0630  -34.3170  -14.4350 O.2    33  GLY33      -0.2714
     88  N         92.3030  -36.2010  -15.6760 N.am   34  TRP34      -0.1973
     89  CA        91.2230  -35.8480  -16.5970 C.3    34  TRP34       0.1640
     90  C         90.4910  -37.1060  -16.9990 C.2    34  TRP34       0.2290
     91  O         91.1100  -38.0270  -17.5470 O.2    34  TRP34      -0.2864
     92  CB        91.7550  -35.0630  -17.8250 C.3    34  TRP34       0.0576
     93  CG        90.7170  -34.6650  -18.8440 C.ar   34  TRP34       0.0006
     94  CD1       90.4490  -35.2930  -20.0270 C.ar   34  TRP34       0.0946
     95  CD2       89.8480  -33.5160  -18.7940 C.ar   34  TRP34       0.0152
     96  NE1       89.4610  -34.6210  -20.7100 N.ar   34  TRP34      -0.2442
     97  CE2       89.0670  -33.5300  -19.9720 C.ar   34  TRP34       0.0810
     98  CE3       89.6690  -32.4620  -17.8750 C.ar   34  TRP34       0.0012
     99  CZ2       88.1170  -32.5400  -20.2530 C.ar   34  TRP34       0.0191
    100  CZ3       88.7130  -31.4940  -18.1390 C.ar   34  TRP34       0.0001
    101  CH2       87.9400  -31.5440  -19.3120 C.ar   34  TRP34       0.0015
    102  N         88.5690  -38.5840  -19.5520 N.3    36  SER36      -0.1217
    103  CA        88.3410  -38.3230  -20.9740 C.3    36  SER36       0.1889
    104  C         86.9250  -38.6340  -21.3850 C.2    36  SER36       0.2288
    105  O         86.3830  -37.9350  -22.2450 O.2    36  SER36      -0.2866
    106  CB        89.3140  -39.1200  -21.8320 C.3    36  SER36       0.2089
    107  OG        90.6400  -39.0350  -21.3280 O.3    36  SER36      -0.2183
    108  N         87.5570  -32.9700  -14.6840 N.3    41  ILE41      -0.1245
    109  CA        88.8170  -32.9670  -13.9620 C.3    41  ILE41       0.1561
    110  C         88.7270  -34.0400  -12.8850 C.2    41  ILE41       0.2260
    111  O         87.6400  -34.3170  -12.3710 O.2    41  ILE41      -0.2867
    112  CB        89.1000  -31.5610  -13.3300 C.3    41  ILE41       0.0252
    113  CG1       89.2050  -30.4520  -14.4060 C.3    41  ILE41       0.0019
    114  CG2       90.3600  -31.5710  -12.4160 C.3    41  ILE41       0.0019
    115  CD1       88.9360  -29.0810  -13.9120 C.3    41  ILE41       0.0001
    116  N         85.1410  -24.3270  -11.4680 N.3    57  LEU57      -0.1245
    117  CA        85.8080  -25.5000  -12.0300 C.3    57  LEU57       0.1561
    118  C         84.9450  -26.1370  -13.0750 C.2    57  LEU57       0.2260
    119  O         85.4950  -26.5830  -14.0610 O.2    57  LEU57      -0.2867
    120  CB        86.2190  -26.5360  -10.9760 C.3    57  LEU57       0.0270
    121  CG        87.1620  -26.0400   -9.8960 C.3    57  LEU57       0.0019
    122  CD1       86.8870  -26.7350   -8.6170 C.3    57  LEU57       0.0001
    123  CD2       88.6090  -26.1370  -10.3100 C.3    57  LEU57       0.0001
    124  N         85.6450  -24.4400  -16.2460 N.3    60  LEU60      -0.1245
    125  CA        86.9670  -24.7420  -16.7700 C.3    60  LEU60       0.1561
    126  C         86.8600  -26.0200  -17.5790 C.2    60  LEU60       0.2260
    127  O         87.3920  -26.0760  -18.6820 O.2    60  LEU60      -0.2867
    128  CB        87.9880  -24.9330  -15.6660 C.3    60  LEU60       0.0270
    129  CG        88.7330  -23.6790  -15.2820 C.3    60  LEU60       0.0019
    130  CD1       89.2470  -23.7620  -13.8390 C.3    60  LEU60       0.0001
    131  CD2       89.8560  -23.3790  -16.2640 C.3    60  LEU60       0.0001
    132  N         87.6720  -26.5540  -21.3990 N.3    64  PHE64      -0.1241
    133  CA        88.5610  -27.6320  -21.8640 C.3    64  PHE64       0.1605
    134  C         87.9230  -28.5360  -22.9080 C.2    64  PHE64       0.2264
    135  O         88.5490  -28.7860  -23.9330 O.2    64  PHE64      -0.2867
    136  CB        89.0950  -28.4720  -20.7110 C.3    64  PHE64       0.0534
    137  CG        90.1120  -27.7590  -19.8590 C.ar   64  PHE64      -0.0203
    138  CD1       91.2340  -27.1760  -20.4290 C.ar   64  PHE64      -0.0042
    139  CD2       89.9910  -27.7360  -18.4800 C.ar   64  PHE64      -0.0042
    140  CE1       92.1670  -26.5030  -19.6410 C.ar   64  PHE64      -0.0003
    141  CE2       90.9470  -27.0960  -17.6930 C.ar   64  PHE64      -0.0003
    142  CZ        92.0270  -26.4860  -18.2800 C.ar   64  PHE64      -0.0000
    143  N         88.9870  -29.1810  -26.8280 N.3    68  LEU68      -0.1245
    144  CA        89.2230  -30.5380  -27.3290 C.3    68  LEU68       0.1561
    145  C         88.3470  -30.7660  -28.5270 C.2    68  LEU68       0.2260
    146  O         88.8550  -31.2210  -29.5570 O.2    68  LEU68      -0.2867
    147  CB        88.9860  -31.5820  -26.2490 C.3    68  LEU68       0.0270
    148  CG        89.9040  -31.4320  -25.0330 C.3    68  LEU68       0.0019
    149  CD1       89.5240  -32.3730  -23.9230 C.3    68  LEU68       0.0001
    150  CD2       91.3930  -31.4860  -25.4030 C.3    68  LEU68       0.0001
    151  N         90.6310  -31.3330  -31.9810 N.3    72  THR72      -0.1218
    152  CA        90.5200  -32.6570  -32.6060 C.3    72  THR72       0.1862
    153  C         89.8200  -32.5500  -33.9550 C.2    72  THR72       0.2287
    154  O         90.3520  -33.0540  -34.9380 O.2    72  THR72      -0.2866
    155  CB        89.8880  -33.6690  -31.6360 C.3    72  THR72       0.1770
    156  OG1       88.5530  -33.2650  -31.3400 O.3    72  THR72      -0.2211
    157  CG2       90.6690  -33.7900  -30.3280 C.3    72  THR72       0.0375
    158  N        100.9020  -26.3020  -21.2400 N.3    94  ALA94      -0.1231
    159  CA       100.4550  -24.9360  -21.0680 C.3    94  ALA94       0.1697
    160  C        100.2850  -24.6350  -19.6070 C.2    94  ALA94       0.2631
    161  O         99.8050  -25.4970  -18.8770 O.2    94  ALA94      -0.2714
    162  CB        99.1430  -24.7490  -21.7850 C.3    94  ALA94       0.0304
    163  N        100.6650  -23.4260  -19.1880 N.am   95  GLY95      -0.1732
    164  CA       100.5650  -23.0100  -17.7940 C.2    95  GLY95       0.1340
    165  C        101.1260  -21.6410  -17.4780 C.2    95  GLY95       0.2521
    166  O        101.2400  -20.7850  -18.3580 O.2    95  GLY95      -0.2816
    167  N         93.7060  -17.2650  -20.2080 N.3   156  LEU156     -0.1231
    168  CA        93.7820  -18.4920  -19.4360 C.3   156  LEU156      0.1693
    169  C         95.1140  -18.6230  -18.7640 C.2   156  LEU156      0.2591
    170  O         95.1640  -18.7720  -17.5460 O.2   156  LEU156     -0.2718
    171  CB        93.5450  -19.6790  -20.3960 C.3   156  LEU156      0.0284
    172  CG        93.3170  -21.0660  -19.8690 C.3   156  LEU156      0.0019
    173  CD1       92.3590  -21.0720  -18.7120 C.3   156  LEU156      0.0001
    174  CD2       92.7590  -21.9130  -20.9570 C.3   156  LEU156      0.0001
    175  N         96.1950  -18.5570  -19.5550 N.am  157  ILE157     -0.1980
    176  CA        97.5550  -18.7750  -19.0770 C.3   157  ILE157      0.1595
    177  C         98.0750  -17.5780  -18.2740 C.2   157  ILE157      0.2287
    178  O         98.8400  -17.7920  -17.3330 O.2   157  ILE157     -0.2864
    179  CB        98.5120  -19.2200  -20.2310 C.3   157  ILE157      0.0276
    180  CG1       98.8210  -18.0790  -21.2300 C.3   157  ILE157      0.0022
    181  CG2       97.9590  -20.4660  -20.9370 C.3   157  ILE157      0.0022
    182  CD1       99.8010  -18.4060  -22.3420 C.3   157  ILE157      0.0001
    183  N         93.7340  -16.5620  -15.4420 N.3   160  THR160     -0.1203
    184  CA        93.0970  -17.6800  -14.7500 C.3   160  THR160      0.1994
    185  C         94.0960  -18.5480  -14.0490 C.2   160  THR160      0.2618
    186  O         93.8840  -18.8630  -12.8790 O.2   160  THR160     -0.2717
    187  CB        92.1960  -18.4730  -15.6800 C.3   160  THR160      0.1784
    188  OG1       91.2190  -17.5930  -16.2380 O.3   160  THR160     -0.2211
    189  CG2       91.5200  -19.6540  -14.9760 C.3   160  THR160      0.0376
    190  N         95.1800  -18.9300  -14.7520 N.am  161  CYS161     -0.1969
    191  CA        96.2490  -19.7790  -14.2330 C.3   161  CYS161      0.1712
    192  C         96.8810  -19.2140  -12.9330 C.2   161  CYS161      0.2296
    193  O         96.7650  -19.9090  -11.9110 O.2   161  CYS161     -0.2864
    194  CB        97.2890  -20.0820  -15.3050 C.3   161  CYS161      0.0983
    195  SG        98.5270  -21.3090  -14.8130 S.3   161  CYS161     -0.0798
    196  N         94.3500  -19.3220  -10.0990 N.3   164  PHE164     -0.1241
    197  CA        94.2050  -20.7130   -9.7000 C.3   164  PHE164      0.1605
    198  C         95.3720  -21.1610   -8.8160 C.2   164  PHE164      0.2264
    199  O         95.1470  -21.3950   -7.6220 O.2   164  PHE164     -0.2867
    200  CB        94.0210  -21.6360  -10.8980 C.3   164  PHE164      0.0534
    201  CG        93.7920  -23.0500  -10.4310 C.ar  164  PHE164     -0.0203
    202  CD1       92.6660  -23.3780   -9.6780 C.ar  164  PHE164     -0.0042
    203  CD2       94.7110  -24.0520  -10.7200 C.ar  164  PHE164     -0.0042
    204  CE1       92.4680  -24.6860   -9.2180 C.ar  164  PHE164     -0.0003
    205  CE2       94.5230  -25.3530  -10.2400 C.ar  164  PHE164     -0.0003
    206  CZ        93.4010  -25.6640   -9.5010 C.ar  164  PHE164     -0.0000
@<TRIPOS>BOND
     1   154   153    2
     2   153   152    1
     3   152   151    1
     4   152   155    1
     5   155   156    1
     6   155   157    1
     7    39    38    2
     8   146   145    2
     9    38    37    1
    10    40    37    1
    11    40    41    1
    12   145   144    1
    13    37    36    1
    14    41    43   ar
    15    41    42   ar
    16    43    45   ar
    17    42    44   ar
    18   144   143    1
    19   144   147    1
    20    45    46   ar
    21    44    46   ar
    22    47    48    1
    23   147   148    1
    24    48    49    1
    25   150   148    1
    26   148   149    1
    27    30    29    2
    28    34    33    2
    29    29    28    1
    30    49    50    2
    31    49    51   am
    32   135   134    2
    33    31    28    1
    34    31    32    1
    35    33    35   am
    36    33    32    1
    37    51    52    1
    38    28    27    1
    39   134   133    1
    40   182   180    1
    41    59    57   am
    42    27    21   am
    43   105   104    2
    44    54    53    2
    45    56    55    1
    46    56    57    1
    47    52    55    1
    48    52    53    1
    49   133   132    1
    50   133   136    1
    51   106   107    1
    52   106   103    1
    53   162   159    1
    54    57    58    2
    55    53    60   am
    56   104   103    1
    57   158   159    1
    58   180   179    1
    59   159   160    1
    60   103   102    1
    61   174   172    1
    62    21    22    2
    63    21    20    1
    64   181   179    1
    65   136   137    1
    66    96    94   ar
    67    96    97   ar
    68   138   137   ar
    69   138   140   ar
    70   171   172    1
    71   171   168    1
    72    99    97   ar
    73    99   101   ar
    74    60    61    1
    75   179   176    1
    76   167   168    1
    77    20    23    1
    78    20    19    1
    79    94    93   ar
    80    97    95   ar
    81   172   173    1
    82   137   139   ar
    83    23    25    1
    84    23    24    1
    85   140   142   ar
    86    61    62    1
    87    15    14    2
    88   160   163    1
    89   160   161    2
    90   175   176    1
    91   175   169   am
    92   168   169    1
    93    18    16    1
    94   101   100   ar
    95   163   164    2
    96    26    24    1
    97   176   177    1
    98    19    14   am
    99    14    13    1
   100    93    95   ar
   101    93    92    1
   102    95    98   ar
   103   169   170    2
   104   127   126    2
   105   139   141   ar
   106   166   165    2
   107   142   141   ar
   108   177   178    2
   109    62    64   am
   110    62    63    2
   111   100    98   ar
   112    16    13    1
   113    16    17    1
   114    92    89    1
   115   164   165    1
   116    13    12    1
   117    64    65    1
   118   126   125    1
   119    91    90    2
   120    90    89    1
   121    69    68    1
   122   125   124    1
   123   125   128    1
   124    67    66    2
   125    89    88    1
   126   131   129    1
   127    65    66    1
   128    65    68    1
   129   188   187    1
   130    66    70   am
   131   187   189    1
   132   187   184    1
   133    88    86   am
   134   128   129    1
   135   183   184    1
   136   194   195    1
   137   194   191    1
   138   129   130    1
   139     4     3    2
   140   190   191    1
   141   190   185   am
   142   184   185    1
   143   108   109    1
   144    86    87    2
   145    86    85    1
   146    70    71    1
   147   113   115    1
   148   113   112    1
   149   191   192    1
   150     3     2    1
   151   119   118    2
   152   185   186    2
   153   109   112    1
   154   109   110    1
   155    71    72    1
   156    85    84    1
   157    10     8   ar
   158    10    11   ar
   159   112   114    1
   160     8     6   ar
   161   118   117    1
   162    77    76    2
   163    72    73    2
   164   192   193    2
   165   110   111    2
   166    84    76   am
   167     2     1    1
   168     2     5    1
   169    11     9   ar
   170    76    75    1
   171     6     5    1
   172     6     7   ar
   173    78    75    1
   174    78    79    1
   175   117   116    1
   176   117   120    1
   177     9     7   ar
   178    75    74    1
   179    79    80   ar
   180    79    81   ar
   181    80    82   ar
   182   120   121    1
   183   200   201    1
   184   200   197    1
   185   203   201   ar
   186   203   205   ar
   187   201   202   ar
   188    81    83   ar
   189   123   121    1
   190   205   206   ar
   191    82    83   ar
   192   196   197    1
   193   121   122    1
   194   197   198    1
   195   202   204   ar
   196   206   204   ar
   197   198   199    2
