@<TRIPOS>MOLECULE
tmp/6c0dA00.pdb
 96 88 0 0 0
SMALL
GASTEIGER

@<TRIPOS>ATOM
      1  N         71.4750   69.4050   -0.7440 N.3    83  GLN83      -0.1245
      2  CA        72.5460   70.2120   -1.3020 C.3    83  GLN83       0.1566
      3  C         72.0000   71.0190   -2.4730 C.2    83  GLN83       0.2260
      4  O         70.8560   70.8240   -2.8880 O.2    83  GLN83      -0.2867
      5  CB        73.6900   69.3020   -1.7300 C.3    83  GLN83       0.0367
      6  CG        74.7800   69.2050   -0.7030 C.3    83  GLN83       0.0905
      7  CD        75.5520   67.9230   -0.8290 C.2    83  GLN83       0.2608
      8  OE1       75.3320   67.1430   -1.7570 O.2    83  GLN83      -0.2717
      9  NE2       76.4580   67.6840    0.1110 N.am   83  GLN83      -0.0878
     10  N         76.9090   71.5240    9.4370 N.3   130  SER130     -0.1202
     11  CA        76.5710   70.1340    9.1570 C.3   130  SER130      0.2020
     12  C         76.0940   69.4090   10.4110 C.2   130  SER130      0.2618
     13  O         76.6520   69.5740   11.5020 O.2   130  SER130     -0.2717
     14  CB        77.7710   69.4050    8.5500 C.3   130  SER130      0.2103
     15  OG        78.0450   69.8870    7.2460 O.3   130  SER130     -0.2182
     16  N         75.0370   68.6170   10.2340 N.am  131  PHE131     -0.1975
     17  CA        74.4120   67.7940   11.2820 C.3   131  PHE131      0.1639
     18  C         73.8640   68.6380   12.4330 C.2   131  PHE131      0.2290
     19  O         73.7600   68.1590   13.5660 O.2   131  PHE131     -0.2864
     20  CB        75.3740   66.7310   11.8260 C.3   131  PHE131      0.0560
     21  CG        76.0390   65.8960   10.7600 C.ar  131  PHE131     -0.0200
     22  CD1       75.3210   64.9640   10.0350 C.ar  131  PHE131     -0.0042
     23  CD2       77.3960   66.0450   10.4980 C.ar  131  PHE131     -0.0042
     24  CE1       75.9390   64.1900    9.0580 C.ar  131  PHE131     -0.0003
     25  CE2       78.0210   65.2850    9.5180 C.ar  131  PHE131     -0.0003
     26  CZ        77.2880   64.3540    8.8000 C.ar  131  PHE131     -0.0000
     27  N         86.9460   58.9760    8.2950 N.3   209  ILE209     -0.1245
     28  CA        87.4680   59.7900    7.1870 C.3   209  ILE209      0.1561
     29  C         88.7420   60.5120    7.6190 C.2   209  ILE209      0.2260
     30  O         88.8430   60.9910    8.7560 O.2   209  ILE209     -0.2867
     31  CB        86.4200   60.8190    6.7020 C.3   209  ILE209      0.0252
     32  CG1       85.1010   60.1050    6.3310 C.3   209  ILE209      0.0019
     33  CG2       86.9480   61.5790    5.4580 C.3   209  ILE209      0.0019
     34  CD1       83.9160   61.0360    6.0830 C.3   209  ILE209      0.0001
     35  N         91.4090   63.5830    5.7500 N.3   211  GLU211     -0.1245
     36  CA        91.7200   64.4620    4.6260 C.3   211  GLU211      0.1567
     37  C         93.0440   65.1570    4.8910 C.2   211  GLU211      0.2260
     38  O         93.3290   65.5420    6.0260 O.2   211  GLU211     -0.2867
     39  CB        90.6060   65.4900    4.4150 C.3   211  GLU211      0.0388
     40  CG        89.3380   64.8220    3.8520 C.3   211  GLU211      0.1160
     41  CD        88.1700   65.7680    3.7180 C.2   211  GLU211      0.3649
     42  OE1       88.1240   66.7810    4.4450 O.co2 211  GLU211     -0.2457
     43  OE2       87.2970   65.4970    2.8820 O.co2 211  GLU211     -0.2457
     44  N         92.0280   62.1840    0.2400 N.3   283  GLN283     -0.1245
     45  CA        91.0250   61.7360    1.2020 C.3   283  GLN283      0.1566
     46  C         91.1370   60.2280    1.3090 C.2   283  GLN283      0.2260
     47  O         91.4570   59.5650    0.3250 O.2   283  GLN283     -0.2867
     48  CB        89.6110   62.1140    0.7460 C.3   283  GLN283      0.0367
     49  CG        88.5010   61.7330    1.7340 C.3   283  GLN283      0.0905
     50  CD        87.1380   62.0600    1.1520 C.2   283  GLN283      0.2608
     51  OE1       86.5230   61.2250    0.5000 O.2   283  GLN283     -0.2717
     52  NE2       86.6840   63.2960    1.3530 N.am  283  GLN283     -0.0878
     53  N         89.0960   56.7130    3.4950 N.3   285  ARG285     -0.1245
     54  CA        88.0230   56.2750    4.3870 C.3   285  ARG285      0.1563
     55  C         88.1280   54.7810    4.6110 C.2   285  ARG285      0.2260
     56  O         88.5150   54.0360    3.7100 O.2   285  ARG285     -0.2867
     57  CB        86.6220   56.5730    3.8200 C.3   285  ARG285      0.0307
     58  CG        86.4420   58.0040    3.3090 C.3   285  ARG285      0.0489
     59  CD        84.9730   58.2930    2.9750 C.3   285  ARG285      0.2205
     60  NE        84.8460   59.5170    2.1790 N.pl3 285  ARG285     -0.0865
     61  CZ        83.7620   60.2850    2.1460 C.cat 285  ARG285      0.5346
     62  NH1       82.6980   59.9640    2.8750 N.pl3 285  ARG285      0.1354
     63  NH2       83.7470   61.3890    1.4040 N.pl3 285  ARG285      0.1354
     64  N         91.0280   69.9160    9.0170 N.3   320  GLU320     -0.1231
     65  CA        90.0740   69.7870   10.1090 C.3   320  GLU320      0.1699
     66  C         88.9380   68.8580    9.6930 C.2   320  GLU320      0.2592
     67  O         88.6350   68.7020    8.5050 O.2   320  GLU320     -0.2718
     68  CB        89.5320   71.1610   10.5080 C.3   320  GLU320      0.0402
     69  CG        90.6430   72.0840   10.9820 C.3   320  GLU320      0.1161
     70  CD        91.0930   72.9980    9.8570 C.2   320  GLU320      0.3649
     71  OE1       90.6090   72.8760    8.7090 O.co2 320  GLU320     -0.2457
     72  OE2       91.9410   73.8710   10.1360 O.co2 320  GLU320     -0.2457
     73  N         88.3350   68.2040   10.6830 N.am  321  GLY321     -0.1957
     74  CA        87.1490   67.4080   10.4620 C.3   321  GLY321      0.1869
     75  C         87.3640   65.9240   10.2600 C.2   321  GLY321      0.2309
     76  O         86.5010   65.2770    9.6580 O.2   321  GLY321     -0.2863
     77  N         87.1230   62.0610   11.0600 N.3   323  GLU323     -0.1245
     78  CA        86.0450   61.3240   11.7070 C.3   323  GLU323      0.1567
     79  C         86.4950   59.8930   11.9590 C.2   323  GLU323      0.2260
     80  O         87.2460   59.3250   11.1610 O.2   323  GLU323     -0.2867
     81  CB        84.7680   61.3520   10.8480 C.3   323  GLU323      0.0388
     82  CG        84.1930   62.7470   10.6410 C.3   323  GLU323      0.1160
     83  CD        83.0270   62.7810    9.6470 C.2   323  GLU323      0.3649
     84  OE1       82.6230   61.7110    9.1430 O.co2 323  GLU323     -0.2457
     85  OE2       82.5110   63.8870    9.3700 O.co2 323  GLU323     -0.2457
     86  N         79.4930   56.9450    3.1830 N.3   355  ALA355     -0.1231
     87  CA        79.1400   58.3500    3.3470 C.3   355  ALA355      0.1694
     88  C         78.6910   58.6120    4.7810 C.2   355  ALA355      0.2592
     89  O         78.2870   57.6950    5.4890 O.2   355  ALA355     -0.2718
     90  CB        78.0100   58.7530    2.3880 C.3   355  ALA355      0.0304
     91  N         78.7240   59.8810    5.1790 N.am  356  SER356     -0.1952
     92  CA        78.2980   60.3000    6.5090 C.3   356  SER356      0.1924
     93  C         76.7900   60.5310    6.5470 C.2   356  SER356      0.2314
     94  O         76.1680   60.8520    5.5340 O.2   356  SER356     -0.2863
     95  CB        79.0240   61.5840    6.9140 C.3   356  SER356      0.2116
     96  OG        80.4250   61.4410    6.7800 O.3   356  SER356     -0.2180
@<TRIPOS>BOND
     1     4     3    2
     2     3     2    1
     3     8     7    2
     4     5     2    1
     5     5     6    1
     6     2     1    1
     7     7     6    1
     8     7     9   am
     9    44    45    1
    10    47    46    2
    11    51    50    2
    12    48    45    1
    13    48    49    1
    14    50    52   am
    15    50    49    1
    16    45    46    1
    17    63    61    1
    18    61    60    2
    19    61    62    1
    20    60    59    1
    21    90    87    1
    22    43    41   ar
    23    59    58    1
    24    86    87    1
    25    58    57    1
    26    87    88    1
    27    53    54    1
    28    56    55    2
    29    41    40    1
    30    41    42   ar
    31    57    54    1
    32    40    39    1
    33    54    55    1
    34    39    36    1
    35    36    37    1
    36    36    35    1
    37    88    91   am
    38    88    89    2
    39    37    38    2
    40    91    92    1
    41    33    31    1
    42    94    93    2
    43    34    32    1
    44    32    31    1
    45    92    93    1
    46    92    95    1
    47    31    28    1
    48    96    95    1
    49    28    29    1
    50    28    27    1
    51    15    14    1
    52    29    30    2
    53    67    66    2
    54    14    11    1
    55    71    70   ar
    56    26    24   ar
    57    26    25   ar
    58    64    65    1
    59    24    22   ar
    60    84    83   ar
    61    11    10    1
    62    11    12    1
    63    85    83   ar
    64    25    23   ar
    65    83    82    1
    66    76    75    2
    67    66    65    1
    68    66    73   am
    69    70    72   ar
    70    70    69    1
    71    22    21   ar
    72    65    68    1
    73    16    12   am
    74    16    17    1
    75    75    74    1
    76    12    13    2
    77    74    73    1
    78    23    21   ar
    79    68    69    1
    80    82    81    1
    81    21    20    1
    82    81    78    1
    83    77    78    1
    84    80    79    2
    85    17    20    1
    86    17    18    1
    87    78    79    1
    88    18    19    2
