@<TRIPOS>MOLECULE
tmp/6c0eA01.pdb
 82 76 0 0 0
SMALL
GASTEIGER

@<TRIPOS>ATOM
      1  N          9.7530   -5.9540   37.0540 N.3   233  LYS233     -0.1245
      2  CA        10.0370   -6.2460   35.6480 C.3   233  LYS233      0.1561
      3  C          8.9840   -7.2200   35.1250 C.2   233  LYS233      0.2260
      4  O          9.3030   -8.3430   34.7120 O.2   233  LYS233     -0.2867
      5  CB        11.4640   -6.7950   35.4880 C.3   233  LYS233      0.0271
      6  CG        11.9480   -6.9400   34.0330 C.3   233  LYS233      0.0035
      7  CD        12.2980   -5.6080   33.3730 C.3   233  LYS233      0.0206
      8  CE        12.5090   -5.8050   31.8810 C.3   233  LYS233      0.1093
      9  NZ        12.8530   -4.5540   31.1520 N.3   233  LYS233     -0.1314
     10  N          6.9540   -7.3790   32.5420 N.3   235  ASN235     -0.1225
     11  CA         6.7280   -7.7450   31.1510 C.3   235  ASN235      0.1785
     12  C          7.5120   -8.9980   30.7790 C.2   235  ASN235      0.2597
     13  O          7.0320   -9.8140   29.9780 O.2   235  ASN235     -0.2718
     14  CB         7.0950   -6.5740   30.2350 C.3   235  ASN235      0.1169
     15  CG         8.4700   -6.0050   30.5330 C.2   235  ASN235      0.2627
     16  OD1        9.0590   -6.2890   31.5750 O.2   235  ASN235     -0.2716
     17  ND2        8.9810   -5.1820   29.6250 N.am  235  ASN235     -0.0877
     18  N          8.6970   -9.1630   31.3550 N.am  236  ILE236     -0.1980
     19  CA         9.5490  -10.3200   31.0900 C.3   236  ILE236      0.1595
     20  C          9.2820  -11.4410   32.0860 C.2   236  ILE236      0.2287
     21  O          9.2050  -12.6140   31.7070 O.2   236  ILE236     -0.2864
     22  CB        11.0270   -9.8750   31.1120 C.3   236  ILE236      0.0276
     23  CG1       11.2510   -8.7410   30.1070 C.3   236  ILE236      0.0022
     24  CG2       11.9690  -11.0580   30.8550 C.3   236  ILE236      0.0022
     25  CD1       11.0890   -9.1500   28.6550 C.3   236  ILE236      0.0001
     26  N          6.1710    1.3110   37.8280 N.3   283  VAL283     -0.1231
     27  CA         7.2000    1.6220   36.8390 C.3   283  VAL283      0.1692
     28  C          8.0100    0.3550   36.5970 C.2   283  VAL283      0.2591
     29  O          8.3260   -0.3750   37.5400 O.2   283  VAL283     -0.2718
     30  CB         8.1170    2.7690   37.3130 C.3   283  VAL283      0.0266
     31  CG1        9.1970    3.0760   36.2690 C.3   283  VAL283      0.0020
     32  CG2        7.3050    4.0250   37.6280 C.3   283  VAL283      0.0020
     33  N          8.3300    0.0850   35.3330 N.am  284  ILE284     -0.1980
     34  CA         9.1710   -1.0660   35.0220 C.3   284  ILE284      0.1595
     35  C         10.5960   -0.7790   35.4860 C.2   284  ILE284      0.2287
     36  O         11.0850    0.3540   35.3920 O.2   284  ILE284     -0.2864
     37  CB         9.0840   -1.3980   33.5210 C.3   284  ILE284      0.0276
     38  CG1        7.6470   -1.8130   33.1730 C.3   284  ILE284      0.0022
     39  CG2       10.0020   -2.5490   33.1530 C.3   284  ILE284      0.0022
     40  CD1        7.4360   -2.1790   31.7030 C.3   284  ILE284      0.0001
     41  N         13.8360   -1.3240   34.8560 N.3   286  ASP286     -0.1225
     42  CA        14.9400   -0.6980   34.1350 C.3   286  ASP286      0.1805
     43  C         14.6440    0.7790   33.8820 C.2   286  ASP286      0.2597
     44  O         15.4710    1.6460   34.1890 O.2   286  ASP286     -0.2718
     45  CB        15.2540   -1.4600   32.8380 C.3   286  ASP286      0.1424
     46  CG        14.0630   -1.5880   31.9060 C.2   286  ASP286      0.3668
     47  OD1       12.9160   -1.3240   32.3200 O.co2 286  ASP286     -0.2456
     48  OD2       14.2800   -1.9590   30.7310 O.co2 286  ASP286     -0.2456
     49  N         13.4400    1.0870   33.3920 N.am  287  ALA287     -0.1979
     50  CA        13.0280    2.4810   33.2580 C.3   287  ALA287      0.1597
     51  C         13.1210    3.2300   34.5840 C.2   287  ALA287      0.2287
     52  O         13.4430    4.4240   34.6050 O.2   287  ALA287     -0.2864
     53  CB        11.6020    2.5590   32.7140 C.3   287  ALA287      0.0319
     54  N         16.3740    4.9810   35.4200 N.3   290  GLN290     -0.1231
     55  CA        16.5480    6.2880   34.8010 C.3   290  GLN290      0.1698
     56  C         15.7060    7.3440   35.5090 C.2   290  GLN290      0.2592
     57  O         16.1750    8.4630   35.7500 O.2   290  GLN290     -0.2718
     58  CB        16.1820    6.2360   33.3110 C.3   290  GLN290      0.0381
     59  CG        15.9670    7.6270   32.7080 C.3   290  GLN290      0.0905
     60  CD        15.8650    7.6340   31.1900 C.2   290  GLN290      0.2608
     61  OE1       16.7290    7.0960   30.5010 O.2   290  GLN290     -0.2717
     62  NE2       14.8140    8.2670   30.6620 N.am  290  GLN290     -0.0878
     63  N         14.4620    6.9980   35.8460 N.am  291  GLN291     -0.1979
     64  CA        13.5300    7.9830   36.3830 C.3   291  GLN291      0.1601
     65  C         14.0080    8.5390   37.7150 C.2   291  GLN291      0.2287
     66  O         13.8130    9.7260   37.9980 O.2   291  GLN291     -0.2864
     67  CB        12.1420    7.3600   36.5400 C.3   291  GLN291      0.0394
     68  CG        11.5090    6.9260   35.2340 C.3   291  GLN291      0.0908
     69  CD        11.0820    8.1010   34.3820 C.2   291  GLN291      0.2608
     70  OE1       10.7540    9.1690   34.9000 O.2   291  GLN291     -0.2717
     71  NE2       11.0860    7.9140   33.0680 N.am  291  GLN291     -0.0878
     72  N         14.0420   12.3120   37.1700 N.3   295  ARG295     -0.1245
     73  CA        12.8420   12.8880   37.7690 C.3   295  ARG295      0.1563
     74  C         12.6620   12.4080   39.2070 C.2   295  ARG295      0.2260
     75  O         11.5830   11.9020   39.5500 O.2   295  ARG295     -0.2867
     76  CB        11.5980   12.5130   36.9480 C.3   295  ARG295      0.0307
     77  CG        11.6390   12.9280   35.4730 C.3   295  ARG295      0.0489
     78  CD        10.4160   12.4130   34.7110 C.3   295  ARG295      0.2205
     79  NE        10.4760   12.6720   33.2660 N.pl3 295  ARG295     -0.0865
     80  CZ        10.0740   13.8030   32.6910 C.cat 295  ARG295      0.5346
     81  NH1        9.6000   14.7930   33.4380 N.pl3 295  ARG295      0.1354
     82  NH2       10.1430   13.9510   31.3690 N.pl3 295  ARG295      0.1354
@<TRIPOS>BOND
     1    25    23    1
     2    17    15   am
     3    13    12    2
     4    23    22    1
     5    14    15    1
     6    14    11    1
     7    61    60    2
     8    15    16    2
     9    62    60   am
    10    48    46   ar
    11    12    11    1
    12    12    18   am
    13    24    22    1
    14    19    22    1
    15    19    18    1
    16    19    20    1
    17    11    10    1
    18     9     8    1
    19    60    59    1
    20    82    80    1
    21    40    38    1
    22    21    20    2
    23     8     7    1
    24    46    47   ar
    25    46    45    1
    26    80    79    2
    27    80    81    1
    28    59    58    1
    29    53    50    1
    30    45    42    1
    31    71    69   am
    32    39    37    1
    33    38    37    1
    34    50    49    1
    35    50    51    1
    36    79    78    1
    37    58    55    1
    38     7     6    1
    39    49    43   am
    40    37    34    1
    41    43    42    1
    42    43    44    2
    43     6     5    1
    44    42    41    1
    45    69    70    2
    46    69    68    1
    47    51    52    2
    48    78    77    1
    49     4     3    2
    50    55    54    1
    51    55    56    1
    52    34    33    1
    53    34    35    1
    54     3     2    1
    55    68    67    1
    56    33    28   am
    57    36    35    2
    58    77    76    1
    59     5     2    1
    60    56    57    2
    61    56    63   am
    62     2     1    1
    63    63    64    1
    64    31    30    1
    65    64    67    1
    66    64    65    1
    67    28    27    1
    68    28    29    2
    69    27    30    1
    70    27    26    1
    71    76    73    1
    72    72    73    1
    73    30    32    1
    74    65    66    2
    75    73    74    1
    76    74    75    2
