@<TRIPOS>MOLECULE
tmp/6c0lA00.pdb
 183 184 0 0 0
SMALL
GASTEIGER

@<TRIPOS>ATOM
      1  N         46.5320  -19.2100   36.8050 N.3    97  PRO97      -0.2116
      2  CA        46.8690  -19.5720   35.4260 C.3    97  PRO97       0.1372
      3  C         45.6830  -20.2160   34.7350 C.2    97  PRO97       0.2244
      4  O         44.8960  -20.9320   35.3530 O.2    97  PRO97      -0.2868
      5  CB        48.0170  -20.5760   35.5900 C.3    97  PRO97       0.0268
      6  CG        48.5910  -20.2920   36.9160 C.3    97  PRO97       0.0207
      7  CD        47.4670  -19.7990   37.7780 C.3    97  PRO97       0.0892
      8  N         49.3920  -23.3730   30.0310 N.3   102  LEU102     -0.1231
      9  CA        50.4810  -24.1660   30.5840 C.3   102  LEU102      0.1693
     10  C         51.0840  -25.0850   29.5310 C.2   102  LEU102      0.2592
     11  O         50.4210  -25.4950   28.5750 O.2   102  LEU102     -0.2718
     12  CB        49.9880  -24.9900   31.7710 C.3   102  LEU102      0.0284
     13  CG        49.3890  -24.1290   32.8800 C.3   102  LEU102      0.0019
     14  CD1       48.7910  -25.0070   33.9780 C.3   102  LEU102      0.0001
     15  CD2       50.4380  -23.1470   33.4270 C.3   102  LEU102      0.0001
     16  N         52.3610  -25.4040   29.7180 N.am  103  LYS103     -0.1966
     17  CA        53.0530  -26.4070   28.9210 C.3   103  LYS103      0.1728
     18  C         53.1380  -27.7180   29.6920 C.2   103  LYS103      0.2616
     19  O         53.2420  -27.7300   30.9240 O.2   103  LYS103     -0.2715
     20  CB        54.4590  -25.9450   28.5310 C.3   103  LYS103      0.0311
     21  CG        54.4780  -24.9180   27.4010 C.3   103  LYS103      0.0038
     22  CD        55.8910  -24.4600   27.0790 C.3   103  LYS103      0.0206
     23  CE        56.4740  -23.6310   28.2120 C.3   103  LYS103      0.1093
     24  NZ        57.8780  -23.1740   27.9260 N.3   103  LYS103     -0.1314
     25  N         53.0790  -28.8230   28.9450 N.am  104  LYS104     -0.1963
     26  CA        53.1970  -30.1610   29.5180 C.3   104  LYS104      0.1728
     27  C         54.4570  -30.2850   30.3640 C.2   104  LYS104      0.2616
     28  O         55.5170  -29.7720   30.0030 O.2   104  LYS104     -0.2715
     29  CB        53.2420  -31.2090   28.4040 C.3   104  LYS104      0.0311
     30  CG        51.9100  -31.6670   27.8710 C.3   104  LYS104      0.0038
     31  CD        52.1180  -32.5670   26.6450 C.3   104  LYS104      0.0206
     32  CE        52.8400  -31.8070   25.5290 C.3   104  LYS104      0.1093
     33  NZ        52.9140  -32.5900   24.2630 N.3   104  LYS104     -0.1314
     34  N         54.3450  -31.0020   31.4800 N.am  105  LYS105     -0.1963
     35  CA        55.4980  -31.3540   32.3060 C.3   105  LYS105      0.1728
     36  C         55.4560  -32.8500   32.5830 C.2   105  LYS105      0.2616
     37  O         54.4620  -33.3530   33.1190 O.2   105  LYS105     -0.2715
     38  CB        55.5060  -30.5600   33.6200 C.3   105  LYS105      0.0311
     39  CG        55.4580  -29.0390   33.4460 C.3   105  LYS105      0.0038
     40  CD        56.6530  -28.5390   32.6520 C.3   105  LYS105      0.0206
     41  CE        56.5440  -27.0450   32.3490 C.3   105  LYS105      0.1093
     42  NZ        57.7340  -26.6060   31.5750 N.3   105  LYS105     -0.1314
     43  N         56.5310  -33.5590   32.2240 N.am  106  LYS106     -0.1963
     44  CA        56.5830  -35.0040   32.4540 C.3   106  LYS106      0.1728
     45  C         56.2190  -35.3580   33.8910 C.2   106  LYS106      0.2617
     46  O         55.4030  -36.2540   34.1400 O.2   106  LYS106     -0.2715
     47  CB        57.9760  -35.5480   32.1340 C.3   106  LYS106      0.0311
     48  CG        58.3720  -35.5460   30.6730 C.3   106  LYS106      0.0038
     49  CD        59.7400  -36.1980   30.5100 C.3   106  LYS106      0.0206
     50  CE        60.1590  -36.2820   29.0500 C.3   106  LYS106      0.1093
     51  NZ        61.5060  -36.9090   28.9100 N.3   106  LYS106     -0.1314
     52  N         56.8280  -34.6730   34.8520 N.am  107  SER107     -0.1936
     53  CA        56.7510  -35.0570   36.2520 C.3   107  SER107      0.2055
     54  C         56.3390  -33.8670   37.1020 C.2   107  SER107      0.2642
     55  O         56.8310  -32.7500   36.9060 O.2   107  SER107     -0.2714
     56  CB        58.1020  -35.6030   36.7430 C.3   107  SER107      0.2130
     57  OG        58.6740  -36.4720   35.7810 O.3   107  SER107     -0.2179
     58  N         55.4560  -34.1240   38.0650 N.am  108  VAL108     -0.1977
     59  CA        54.9680  -33.1040   38.9790 C.3   108  VAL108      0.1596
     60  C         54.9630  -33.6710   40.3870 C.2   108  VAL108      0.2287
     61  O         54.4080  -34.7470   40.6300 O.2   108  VAL108     -0.2864
     62  CB        53.5610  -32.6180   38.5910 C.3   108  VAL108      0.0276
     63  CG1       52.9840  -31.7640   39.6930 C.3   108  VAL108      0.0022
     64  CG2       53.6260  -31.8390   37.2960 C.3   108  VAL108      0.0022
     65  N         59.5860  -25.8670   37.1140 N.3   181  VAL181     -0.1231
     66  CA        58.6070  -24.8350   37.4080 C.3   181  VAL181      0.1692
     67  C         58.0650  -25.0740   38.8060 C.2   181  VAL181      0.2592
     68  O         57.8980  -26.2200   39.2370 O.2   181  VAL181     -0.2718
     69  CB        57.4690  -24.8090   36.3670 C.3   181  VAL181      0.0266
     70  CG1       58.0610  -24.5990   34.9840 C.3   181  VAL181      0.0020
     71  CG2       56.6760  -26.0980   36.4220 C.3   181  VAL181      0.0020
     72  N         57.7980  -23.9830   39.5100 N.am  182  ILE182     -0.1966
     73  CA        57.3270  -24.0040   40.8840 C.3   182  ILE182      0.1727
     74  C         56.1090  -23.1050   40.9620 C.2   182  ILE182      0.2616
     75  O         56.1740  -21.9330   40.5720 O.2   182  ILE182     -0.2715
     76  CB        58.4130  -23.5170   41.8580 C.3   182  ILE182      0.0290
     77  CG1       59.7390  -24.2160   41.5480 C.3   182  ILE182      0.0022
     78  CG2       57.9670  -23.7220   43.2970 C.3   182  ILE182      0.0023
     79  CD1       60.8660  -23.8300   42.5100 C.3   182  ILE182      0.0001
     80  N         55.0020  -23.6490   41.4540 N.am  183  TYR183     -0.1974
     81  CA        53.7640  -22.8980   41.6120 C.3   183  TYR183      0.1639
     82  C         53.2440  -23.1360   43.0170 C.2   183  TYR183      0.2290
     83  O         53.1900  -24.2830   43.4700 O.2   183  TYR183     -0.2864
     84  CB        52.7090  -23.3240   40.5880 C.3   183  TYR183      0.0560
     85  CG        51.4150  -22.5450   40.7020 C.ar  183  TYR183     -0.0198
     86  CD1       51.2950  -21.2770   40.1390 C.ar  183  TYR183     -0.0009
     87  CD2       50.3190  -23.0680   41.3770 C.ar  183  TYR183     -0.0009
     88  CE1       50.1160  -20.5560   40.2410 C.ar  183  TYR183      0.0417
     89  CE2       49.1280  -22.3540   41.4810 C.ar  183  TYR183      0.0417
     90  CZ        49.0360  -21.1000   40.9120 C.ar  183  TYR183      0.1957
     91  OH        47.8640  -20.3800   41.0080 O.3   183  TYR183     -0.2866
     92  N         53.6790  -26.8670   44.1630 N.3   190  TYR190     -0.1227
     93  CA        53.7080  -27.7340   42.9940 C.3   190  TYR190      0.1736
     94  C         55.0100  -27.5180   42.2310 C.2   190  TYR190      0.2595
     95  O         55.3300  -26.3870   41.8490 O.2   190  TYR190     -0.2718
     96  CB        52.5070  -27.4570   42.0870 C.3   190  TYR190      0.0548
     97  CG        51.1610  -27.6020   42.7650 C.ar  190  TYR190     -0.0200
     98  CD1       50.5960  -26.5450   43.4720 C.ar  190  TYR190     -0.0009
     99  CD2       50.4460  -28.7950   42.6880 C.ar  190  TYR190     -0.0009
    100  CE1       49.3610  -26.6730   44.0880 C.ar  190  TYR190      0.0417
    101  CE2       49.2130  -28.9350   43.3020 C.ar  190  TYR190      0.0417
    102  CZ        48.6740  -27.8720   44.0000 C.ar  190  TYR190      0.1957
    103  OH        47.4460  -28.0020   44.6110 O.3   190  TYR190     -0.2866
    104  N         55.7500  -28.5990   42.0000 N.am  191  VAL191     -0.1966
    105  CA        57.0190  -28.5570   41.2830 C.3   191  VAL191      0.1727
    106  C         56.9030  -29.4770   40.0800 C.2   191  VAL191      0.2616
    107  O         56.5820  -30.6620   40.2330 O.2   191  VAL191     -0.2715
    108  CB        58.1950  -28.9810   42.1810 C.3   191  VAL191      0.0290
    109  CG1       59.5130  -28.6410   41.5130 C.3   191  VAL191      0.0023
    110  CG2       58.0810  -28.3330   43.5550 C.3   191  VAL191      0.0023
    111  N         57.1750  -28.9420   38.8880 N.am  192  GLY192     -0.1955
    112  CA        57.0690  -29.7110   37.6690 C.3   192  GLY192      0.1869
    113  C         58.3400  -29.6050   36.8480 C.2   192  GLY192      0.2309
    114  O         59.0820  -28.6280   36.9340 O.2   192  GLY192     -0.2863
    115  N         46.2840  -38.7460   39.4190 N.3   227  PRO227     -0.2116
    116  CA        45.8040  -37.7950   38.4220 C.3   227  PRO227      0.1372
    117  C         44.3480  -38.0450   38.1080 C.2   227  PRO227      0.2244
    118  O         43.8780  -39.2000   38.1230 O.2   227  PRO227     -0.2868
    119  CB        46.7020  -38.0750   37.2080 C.3   227  PRO227      0.0268
    120  CG        47.1330  -39.4860   37.3810 C.3   227  PRO227      0.0207
    121  CD        47.2750  -39.6820   38.8650 C.3   227  PRO227      0.0892
    122  N         44.7510  -33.6890   38.9450 N.3   229  PHE229     -0.1241
    123  CA        44.6880  -32.7530   40.0560 C.3   229  PHE229      0.1605
    124  C         43.3730  -31.9870   40.0130 C.2   229  PHE229      0.2264
    125  O         43.0180  -31.4020   38.9860 O.2   229  PHE229     -0.2867
    126  CB        45.8650  -31.7800   40.0010 C.3   229  PHE229      0.0534
    127  CG        47.2010  -32.4360   40.1840 C.ar  229  PHE229     -0.0203
    128  CD1       47.3310  -33.5590   40.9880 C.ar  229  PHE229     -0.0042
    129  CD2       48.3280  -31.9340   39.5530 C.ar  229  PHE229     -0.0042
    130  CE1       48.5630  -34.1720   41.1660 C.ar  229  PHE229     -0.0003
    131  CE2       49.5670  -32.5400   39.7280 C.ar  229  PHE229     -0.0003
    132  CZ        49.6810  -33.6630   40.5320 C.ar  229  PHE229     -0.0000
    133  N         41.9360  -28.8810   40.8440 N.3   231  TRP231     -0.1241
    134  CA        42.5190  -27.5830   41.1460 C.3   231  TRP231      0.1605
    135  C         41.6870  -26.4940   40.4900 C.2   231  TRP231      0.2264
    136  O         41.5120  -26.4950   39.2680 O.2   231  TRP231     -0.2867
    137  CB        43.9720  -27.5280   40.6630 C.3   231  TRP231      0.0550
    138  CG        44.5880  -26.1660   40.7080 C.ar  231  TRP231      0.0003
    139  CD1       45.1290  -25.5440   41.7950 C.ar  231  TRP231      0.0946
    140  CD2       44.7420  -25.2610   39.6090 C.ar  231  TRP231      0.0152
    141  NE1       45.6040  -24.3040   41.4430 N.ar  231  TRP231     -0.2442
    142  CE2       45.3840  -24.1080   40.1050 C.ar  231  TRP231      0.0810
    143  CE3       44.4030  -25.3150   38.2540 C.ar  231  TRP231      0.0012
    144  CZ2       45.6870  -23.0140   39.2970 C.ar  231  TRP231      0.0191
    145  CZ3       44.7060  -24.2220   37.4480 C.ar  231  TRP231      0.0001
    146  CH2       45.3370  -23.0880   37.9740 C.ar  231  TRP231      0.0015
    147  N         43.2560  -31.2150   35.7670 N.3   236  LEU236     -0.1231
    148  CA        44.5600  -31.1720   35.1120 C.3   236  LEU236      0.1693
    149  C         45.0500  -32.6070   34.9740 C.2   236  LEU236      0.2592
    150  O         45.4930  -33.2220   35.9450 O.2   236  LEU236     -0.2718
    151  CB        45.5410  -30.3160   35.9070 C.3   236  LEU236      0.0284
    152  CG        45.0450  -28.9360   36.3430 C.3   236  LEU236      0.0019
    153  CD1       46.1250  -28.1990   37.1380 C.3   236  LEU236      0.0001
    154  CD2       44.6130  -28.1160   35.1410 C.3   236  LEU236      0.0001
    155  N         44.9630  -33.1460   33.7700 N.am  237  HIS237     -0.1962
    156  CA        45.4920  -34.4650   33.4700 C.3   237  HIS237      0.1772
    157  C         46.8820  -34.3440   32.8610 C.2   237  HIS237      0.2462
    158  O         47.2630  -33.2800   32.3700 O.2   237  HIS237     -0.2730
    159  CB        44.5530  -35.2010   32.5070 C.3   237  HIS237      0.0785
    160  CG        43.1640  -35.4020   33.0400 C.ar  237  HIS237      0.0821
    161  ND1       42.7230  -36.6110   33.5340 N.ar  237  HIS237     -0.2267
    162  CD2       42.1150  -34.5500   33.1460 C.ar  237  HIS237      0.1154
    163  CE1       41.4660  -36.4960   33.9250 C.ar  237  HIS237      0.1986
    164  NE2       41.0730  -35.2550   33.7000 N.ar  237  HIS237     -0.2212
    165  N         47.6830  -35.4080   32.8700 N.am  238  PRO238     -0.2727
    166  CA        49.0470  -35.2760   32.3260 C.3   238  PRO238      0.1402
    167  C         49.0790  -34.7490   30.8990 C.2   238  PRO238      0.2269
    168  O         49.9390  -33.9220   30.5690 O.2   238  PRO238     -0.2865
    169  CB        49.6030  -36.7070   32.4320 C.3   238  PRO238      0.0296
    170  CG        48.8350  -37.3220   33.5570 C.3   238  PRO238      0.0237
    171  CD        47.4390  -36.7530   33.4210 C.3   238  PRO238      0.0939
    172  N         47.4020  -28.7390   25.9170 N.3   320  TYR320     -0.1241
    173  CA        48.3050  -27.7730   26.5070 C.3   320  TYR320      0.1605
    174  C         49.0520  -27.0250   25.4070 C.2   320  TYR320      0.2264
    175  O         48.9460  -27.3440   24.2150 O.2   320  TYR320     -0.2867
    176  CB        49.2710  -28.4630   27.4650 C.3   320  TYR320      0.0534
    177  CG        48.5890  -29.0500   28.6850 C.ar  320  TYR320     -0.0201
    178  CD1       47.8730  -28.2400   29.5670 C.ar  320  TYR320     -0.0009
    179  CD2       48.6470  -30.4200   28.9470 C.ar  320  TYR320     -0.0009
    180  CE1       47.2470  -28.7820   30.6840 C.ar  320  TYR320      0.0417
    181  CE2       48.0300  -30.9660   30.0630 C.ar  320  TYR320      0.0417
    182  CZ        47.3230  -30.1310   30.9260 C.ar  320  TYR320      0.1957
    183  OH        46.7090  -30.6690   32.0400 O.3   320  TYR320     -0.2866
@<TRIPOS>BOND
     1   175   174    2
     2    33    32    1
     3   174   173    1
     4    32    31    1
     5   172   173    1
     6   173   176    1
     7    31    30    1
     8    22    21    1
     9    22    23    1
    10    21    20    1
    11   176   177    1
    12    30    29    1
    13    24    23    1
    14    29    26    1
    15    20    17    1
    16    11    10    2
    17   177   179   ar
    18   177   178   ar
    19    51    50    1
    20    17    18    1
    21    17    16    1
    22    25    26    1
    23    25    18   am
    24   179   181   ar
    25    50    49    1
    26    26    27    1
    27    10    16   am
    28    10     9    1
    29   178   180   ar
    30    18    19    2
    31    28    27    2
    32     8     9    1
    33   181   182   ar
    34    27    34   am
    35    49    48    1
    36   168   167    2
    37     9    12    1
    38    48    47    1
    39   180   182   ar
    40   167   166    1
    41   182   183    1
    42    34    35    1
    43    42    41    1
    44    12    13    1
    45    47    44    1
    46    43    44    1
    47    43    36   am
    48    35    36    1
    49    35    38    1
    50   166   169    1
    51   166   165    1
    52    41    40    1
    53   158   157    2
    54   169   170    1
    55    44    45    1
    56   159   160    1
    57   159   156    1
    58    36    37    2
    59    40    39    1
    60   157   165   am
    61   157   156    1
    62   165   171    1
    63    13    15    1
    64    13    14    1
    65   160   162   ar
    66   160   161   ar
    67   162   164   ar
    68   171   170    1
    69    39    38    1
    70   156   155    1
    71   161   163   ar
    72   164   163   ar
    73   155   149   am
    74    45    46    2
    75    45    52   am
    76     3     4    2
    77     3     2    1
    78    52    53    1
    79   149   148    1
    80   149   150    2
    81    70    69    1
    82   148   147    1
    83   148   151    1
    84   154   152    1
    85     2     5    1
    86     2     1    1
    87     5     6    1
    88    57    56    1
    89   151   152    1
    90    53    56    1
    91    53    54    1
    92   152   153    1
    93    69    71    1
    94    69    66    1
    95     1     7    1
    96   113   114    2
    97   113   112    1
    98    55    54    2
    99     6     7    1
   100    54    58   am
   101    65    66    1
   102   119   120    1
   103   119   116    1
   104    64    62    1
   105   120   121    1
   106    66    67    1
   107   145   146   ar
   108   145   143   ar
   109   112   111    1
   110   146   144   ar
   111    58    59    1
   112   117   118    2
   113   117   116    1
   114   143   140   ar
   115   116   115    1
   116    62    59    1
   117    62    63    1
   118    67    68    2
   119    67    72   am
   120   121   115    1
   121   111   106   am
   122   122   123    1
   123    59    60    1
   124   125   124    2
   125   136   135    2
   126   144   142   ar
   127    72    73    1
   128   129   131   ar
   129   129   127   ar
   130   140   142   ar
   131   140   138   ar
   132   131   132   ar
   133   126   123    1
   134   126   127    1
   135   124   123    1
   136   106   107    2
   137   106   105    1
   138   142   141   ar
   139    86    88   ar
   140    86    85   ar
   141   127   128   ar
   142    88    90   ar
   143    60    61    2
   144   135   134    1
   145   132   130   ar
   146    75    74    2
   147    84    85    1
   148    84    81    1
   149   137   138    1
   150   137   134    1
   151    85    87   ar
   152   138   139   ar
   153   133   134    1
   154    73    74    1
   155    73    76    1
   156    90    91    1
   157    90    89   ar
   158    74    80   am
   159   128   130   ar
   160   105   104    1
   161   105   108    1
   162    87    89   ar
   163   141   139   ar
   164    80    81    1
   165   109   108    1
   166    77    76    1
   167    77    79    1
   168    81    82    1
   169    95    94    2
   170    76    78    1
   171   104    94   am
   172    96    97    1
   173    96    93    1
   174   108   110    1
   175    94    93    1
   176    99    97   ar
   177    99   101   ar
   178    97    98   ar
   179    93    92    1
   180    82    83    2
   181   101   102   ar
   182    98   100   ar
   183   102   100   ar
   184   102   103    1
