@<TRIPOS>MOLECULE
tmp/6c0sA00.pdb
 202 200 0 0 0
SMALL
GASTEIGER

@<TRIPOS>ATOM
      1  N         49.3100  -27.6980   38.1030 N.3    26  ARG26      -0.1231
      2  CA        49.0820  -26.3000   37.7570 C.3    26  ARG26       0.1694
      3  C         47.6110  -25.9240   37.9180 C.2    26  ARG26       0.2592
      4  O         46.7310  -26.7860   37.8730 O.2    26  ARG26      -0.2718
      5  CB        49.5690  -25.9600   36.3150 C.3    26  ARG26       0.0321
      6  CG        49.3600  -27.0410   35.2620 C.3    26  ARG26       0.0489
      7  CD        48.1680  -26.8150   34.3700 C.3    26  ARG26       0.2205
      8  NE        48.5420  -26.1870   33.1000 N.pl3  26  ARG26      -0.0865
      9  CZ        47.7100  -25.9860   32.0770 C.cat  26  ARG26       0.5346
     10  NH1       46.4430  -26.3870   32.1500 N.pl3  26  ARG26       0.1354
     11  NH2       48.1400  -25.3880   30.9710 N.pl3  26  ARG26       0.1354
     12  N         47.3530  -24.6080   38.0310 N.am   27  HIS27      -0.1962
     13  CA        46.0320  -24.0310   38.0490 C.3    27  HIS27       0.1787
     14  C         45.3880  -24.3970   36.6970 C.2    27  HIS27       0.2620
     15  O         46.0430  -24.2960   35.6610 O.2    27  HIS27      -0.2715
     16  CB        46.1760  -22.5220   38.1710 C.3    27  HIS27       0.0785
     17  CG        44.9050  -21.7730   37.9350 C.ar   27  HIS27       0.0821
     18  ND1       44.0080  -21.5430   38.9590 N.ar   27  HIS27      -0.2267
     19  CD2       44.4520  -21.1780   36.8090 C.ar   27  HIS27       0.1154
     20  CE1       43.0290  -20.8410   38.4200 C.ar   27  HIS27       0.1986
     21  NE2       43.2510  -20.6120   37.1220 N.ar   27  HIS27      -0.2212
     22  N         44.1460  -24.8700   36.7310 N.am   28  LEU28      -0.1963
     23  CA        43.3480  -25.2540   35.5700 C.3    28  LEU28       0.1728
     24  C         42.2020  -24.2540   35.3680 C.2    28  LEU28       0.2616
     25  O         42.0320  -23.7160   34.2700 O.2    28  LEU28      -0.2715
     26  CB        42.7870  -26.6950   35.7830 C.3    28  LEU28       0.0311
     27  CG        41.8360  -27.2610   34.7180 C.3    28  LEU28       0.0022
     28  CD1       42.5680  -27.5210   33.3790 C.3    28  LEU28       0.0001
     29  CD2       41.0320  -28.4640   35.2560 C.3    28  LEU28       0.0001
     30  N         41.4240  -23.9970   36.4420 N.am   29  CYS29      -0.1968
     31  CA        40.2180  -23.1650   36.4000 C.3    29  CYS29       0.1712
     32  C         39.9120  -22.5890   37.7610 C.2    29  CYS29       0.2296
     33  O         40.4110  -23.0590   38.7760 O.2    29  CYS29      -0.2864
     34  CB        39.0360  -24.0230   35.9380 C.3    29  CYS29       0.0983
     35  SG        38.8790  -24.1890   34.1390 S.3    29  CYS29      -0.0798
     36  N         33.6180  -26.7100   30.4440 N.3    44  HIS44      -0.1226
     37  CA        34.7560  -26.6640   29.4950 C.3    44  HIS44       0.1752
     38  C         36.0980  -26.9290   30.1650 C.2    44  HIS44       0.2596
     39  O         37.0330  -27.3610   29.4830 O.2    44  HIS44      -0.2718
     40  CB        34.8250  -25.3790   28.5830 C.3    44  HIS44       0.0759
     41  CG        35.1890  -24.1210   29.2910 C.ar   44  HIS44       0.0818
     42  ND1       34.2920  -23.0680   29.4020 N.ar   44  HIS44      -0.2268
     43  CD2       36.3260  -23.7850   29.9480 C.ar   44  HIS44       0.1154
     44  CE1       34.9060  -22.1310   30.1020 C.ar   44  HIS44       0.1986
     45  NE2       36.1400  -22.5080   30.4390 N.ar   44  HIS44      -0.2212
     46  N         36.1840  -26.7110   31.4900 N.am   45  CYS45      -0.1970
     47  CA        37.3880  -26.9630   32.3010 C.3    45  CYS45       0.1712
     48  C         37.8660  -28.4000   32.2180 C.2    45  CYS45       0.2296
     49  O         39.0310  -28.6510   32.4860 O.2    45  CYS45      -0.2864
     50  CB        37.1390  -26.5750   33.7560 C.3    45  CYS45       0.0983
     51  SG        36.9500  -24.8010   34.0170 S.3    45  CYS45      -0.0798
     52  N         37.8100  -30.5410   29.5480 N.3    47  TYR47      -0.1241
     53  CA        38.1700  -31.0290   28.2170 C.3    47  TYR47       0.1605
     54  C         39.4420  -31.8940   28.3960 C.2    47  TYR47       0.2264
     55  O         40.4690  -31.4130   28.8970 O.2    47  TYR47      -0.2867
     56  CB        38.4490  -29.8560   27.2570 C.3    47  TYR47       0.0534
     57  CG        38.7900  -30.3250   25.8600 C.ar   47  TYR47      -0.0201
     58  CD1       37.7870  -30.6190   24.9380 C.ar   47  TYR47      -0.0009
     59  CD2       40.1110  -30.5780   25.4900 C.ar   47  TYR47      -0.0009
     60  CE1       38.0920  -31.0980   23.6640 C.ar   47  TYR47       0.0417
     61  CE2       40.4260  -31.0790   24.2250 C.ar   47  TYR47       0.0417
     62  CZ        39.4150  -31.3130   23.3060 C.ar   47  TYR47       0.1957
     63  OH        39.7100  -31.8050   22.0560 O.3    47  TYR47      -0.2866
     64  N         45.1290  -14.5210   33.0960 N.3   134  TYR134     -0.1241
     65  CA        45.9810  -13.6020   32.3190 C.3   134  TYR134      0.1605
     66  C         45.4220  -12.2040   32.3820 C.2   134  TYR134      0.2264
     67  O         44.2060  -12.0350   32.5270 O.2   134  TYR134     -0.2867
     68  CB        45.9700  -14.0430   30.8320 C.3   134  TYR134      0.0534
     69  CG        46.7450  -15.2910   30.4760 C.ar  134  TYR134     -0.0201
     70  CD1       47.1160  -16.2100   31.4500 C.ar  134  TYR134     -0.0009
     71  CD2       47.0380  -15.5980   29.1420 C.ar  134  TYR134     -0.0009
     72  CE1       47.7520  -17.4090   31.1120 C.ar  134  TYR134      0.0417
     73  CE2       47.6980  -16.7830   28.7950 C.ar  134  TYR134      0.0417
     74  CZ        48.0480  -17.6850   29.7830 C.ar  134  TYR134      0.1957
     75  OH        48.7100  -18.8420   29.4520 O.3   134  TYR134     -0.2866
     76  N         45.7300  -11.3840   26.4030 N.3   137  LEU137     -0.1245
     77  CA        45.7300  -12.6800   25.6830 C.3   137  LEU137      0.1561
     78  C         47.0090  -13.4840   25.7610 C.2   137  LEU137      0.2260
     79  O         46.9470  -14.7090   25.8080 O.2   137  LEU137     -0.2867
     80  CB        45.3590  -12.5320   24.2000 C.3   137  LEU137      0.0270
     81  CG        43.9060  -12.6260   23.7980 C.3   137  LEU137      0.0019
     82  CD1       43.7950  -12.5650   22.2760 C.3   137  LEU137      0.0001
     83  CD2       43.2570  -13.9040   24.3110 C.3   137  LEU137      0.0001
     84  N         50.5440  -14.7930   31.5990 N.3   140  LYS140     -0.1231
     85  CA        50.7130  -15.9260   32.5030 C.3   140  LYS140      0.1693
     86  C         49.7020  -15.8160   33.6330 C.2   140  LYS140      0.2591
     87  O         49.0790  -14.7670   33.7930 O.2   140  LYS140     -0.2718
     88  CB        52.1670  -15.9870   33.0620 C.3   140  LYS140      0.0285
     89  CG        52.6920  -14.6670   33.5970 C.3   140  LYS140      0.0035
     90  CD        53.5660  -14.8020   34.8160 C.3   140  LYS140      0.0206
     91  CE        53.8150  -13.4420   35.4530 C.3   140  LYS140      0.1093
     92  NZ        52.6110  -12.8940   36.1540 N.3   140  LYS140     -0.1314
     93  N         49.5570  -16.8920   34.4270 N.am  141  ILE141     -0.1980
     94  CA        48.6570  -16.9370   35.5820 C.3   141  ILE141      0.1595
     95  C         49.1990  -15.9870   36.6630 C.2   141  ILE141      0.2287
     96  O         50.4010  -15.9590   36.9150 O.2   141  ILE141     -0.2864
     97  CB        48.4750  -18.4160   36.0510 C.3   141  ILE141      0.0276
     98  CG1       47.6270  -19.2220   35.0190 C.3   141  ILE141      0.0022
     99  CG2       47.9190  -18.5760   37.4890 C.3   141  ILE141      0.0022
    100  CD1       46.2200  -18.7530   34.7500 C.3   141  ILE141      0.0001
    101  N         37.7440   -7.3170   31.9600 N.3   182  ASP182     -0.1225
    102  CA        37.1110   -8.6000   31.5960 C.3   182  ASP182      0.1805
    103  C         37.8790   -9.7400   32.2310 C.2   182  ASP182      0.2598
    104  O         38.9640   -9.5500   32.7930 O.2   182  ASP182     -0.2718
    105  CB        37.2070   -8.7840   30.0380 C.3   182  ASP182      0.1424
    106  CG        36.3700   -9.8450   29.3070 C.2   182  ASP182      0.3668
    107  OD1       35.4740  -10.4440   29.9390 O.co2 182  ASP182     -0.2456
    108  OD2       36.5930  -10.0410   28.0870 O.co2 182  ASP182     -0.2456
    109  N         37.3450  -10.9430   32.0350 N.am  183  ALA183     -0.1966
    110  CA        37.9680  -12.2100   32.3430 C.3   183  ALA183      0.1728
    111  C         38.9030  -12.4950   31.1560 C.2   183  ALA183      0.2616
    112  O         38.7590  -11.9140   30.0740 O.2   183  ALA183     -0.2715
    113  CB        36.9010  -13.2990   32.4410 C.3   183  ALA183      0.0334
    114  N         39.8860  -13.3560   31.3790 N.am  184  CYS184     -0.1954
    115  CA        40.7990  -13.7960   30.3460 C.3   184  CYS184      0.1843
    116  C         41.2260  -15.2240   30.6940 C.2   184  CYS184      0.2625
    117  O         40.6450  -15.8460   31.6040 O.2   184  CYS184     -0.2714
    118  CB        41.9850  -12.8440   30.1870 C.3   184  CYS184      0.0997
    119  SG        42.8210  -12.9530   28.5800 S.3   184  CYS184     -0.0797
    120  N         42.1680  -15.7680   29.9370 N.am  185  LYS185     -0.1963
    121  CA        42.6470  -17.1470   30.0950 C.3   185  LYS185      0.1728
    122  C         43.0530  -17.4650   31.5260 C.2   185  LYS185      0.2616
    123  O         43.8790  -16.7600   32.0940 O.2   185  LYS185     -0.2715
    124  CB        43.8070  -17.3980   29.1430 C.3   185  LYS185      0.0311
    125  CG        43.4240  -17.1620   27.6990 C.3   185  LYS185      0.0038
    126  CD        44.5940  -17.4080   26.7740 C.3   185  LYS185      0.0206
    127  CE        44.1460  -17.3470   25.3430 C.3   185  LYS185      0.1093
    128  NZ        45.2630  -17.6440   24.4240 N.3   185  LYS185     -0.1314
    129  N         42.4460  -18.5000   32.0950 N.am  186  GLY186     -0.1955
    130  CA        42.7220  -18.9370   33.4570 C.3   186  GLY186      0.1869
    131  C         41.6720  -18.5730   34.4740 C.2   186  GLY186      0.2309
    132  O         41.7280  -19.0370   35.6140 O.2   186  GLY186     -0.2863
    133  N         38.1960  -18.8870   33.7380 N.3   188  SER188     -0.1217
    134  CA        36.9760  -19.6640   33.4700 C.3   188  SER188      0.1889
    135  C         36.6380  -20.6410   34.5740 C.2   188  SER188      0.2288
    136  O         37.5510  -21.1690   35.2130 O.2   188  SER188     -0.2866
    137  CB        37.0320  -20.3370   32.1140 C.3   188  SER188      0.2089
    138  OG        38.0340  -21.3370   32.1120 O.3   188  SER188     -0.2183
    139  N         32.3000  -17.6990   34.7080 N.3   206  THR206     -0.1203
    140  CA        33.1680  -17.2370   33.6160 C.3   206  THR206      0.1994
    141  C         33.2520  -18.3170   32.5510 C.2   206  THR206      0.2619
    142  O         33.6360  -19.4390   32.8470 O.2   206  THR206     -0.2717
    143  CB        34.5140  -16.7960   34.1570 C.3   206  THR206      0.1784
    144  OG1       34.2780  -15.7640   35.1130 O.3   206  THR206     -0.2211
    145  CG2       35.4910  -16.3330   33.0240 C.3   206  THR206      0.0376
    146  N         32.8110  -17.9940   31.3400 N.am  207  SER207     -0.1937
    147  CA        32.7050  -18.9940   30.2870 C.3   207  SER207      0.2055
    148  C         33.5510  -18.6710   29.0440 C.2   207  SER207      0.2643
    149  O         34.5590  -19.3350   28.8350 O.2   207  SER207     -0.2714
    150  CB        31.2320  -19.2460   29.9350 C.3   207  SER207      0.2130
    151  OG        31.1020  -20.2470   28.9430 O.3   207  SER207     -0.2179
    152  N         33.1610  -17.6950   28.2140 N.am  208  TRP208     -0.1959
    153  CA        33.9510  -17.4220   27.0040 C.3   208  TRP208      0.1771
    154  C         33.8090  -15.9840   26.5400 C.2   208  TRP208      0.2620
    155  O         32.9400  -15.2740   27.0190 O.2   208  TRP208     -0.2715
    156  CB        33.5290  -18.3940   25.8760 C.3   208  TRP208      0.0590
    157  CG        32.1050  -18.2130   25.4190 C.ar  208  TRP208      0.0006
    158  CD1       30.9810  -18.7340   25.9900 C.ar  208  TRP208      0.0946
    159  CD2       31.6630  -17.4570   24.2710 C.ar  208  TRP208      0.0152
    160  NE1       29.8660  -18.3420   25.2810 N.ar  208  TRP208     -0.2442
    161  CE2       30.2590  -17.6040   24.1910 C.ar  208  TRP208      0.0810
    162  CE3       32.3320  -16.7070   23.2710 C.ar  208  TRP208      0.0012
    163  CZ2       29.5000  -16.9640   23.2080 C.ar  208  TRP208      0.0191
    164  CZ3       31.5830  -16.1340   22.2530 C.ar  208  TRP208      0.0001
    165  CH2       30.1860  -16.2580   22.2340 C.ar  208  TRP208      0.0015
    166  N         34.6510  -15.5890   25.5900 N.am  209  GLY209     -0.1954
    167  CA        34.5660  -14.3120   24.8910 C.3   209  GLY209      0.1869
    168  C         35.4380  -14.3270   23.6480 C.2   209  GLY209      0.2309
    169  O         36.2860  -15.2120   23.5070 O.2   209  GLY209     -0.2863
    170  N         38.4850  -12.8580   22.2920 N.3   211  GLY211     -0.1210
    171  CA        39.6260  -12.1280   22.8610 C.3   211  GLY211      0.1956
    172  C         39.3510  -11.7790   24.3200 C.2   211  GLY211      0.2612
    173  O         38.3810  -12.2780   24.8860 O.2   211  GLY211     -0.2717
    174  N         40.1450  -10.8870   24.9350 N.am  212  CYS212     -0.1970
    175  CA        39.9120  -10.4460   26.3230 C.3   212  CYS212      0.1712
    176  C         39.7260   -8.9570   26.3920 C.2   212  CYS212      0.2296
    177  O         40.5660   -8.2360   25.8630 O.2   212  CYS212     -0.2864
    178  CB        41.0480  -10.8850   27.2360 C.3   212  CYS212      0.0983
    179  SG        41.3380  -12.6570   27.2110 S.3   212  CYS212     -0.0798
    180  N         32.1710  -10.2120   27.9870 N.3   219  GLY219     -0.1210
    181  CA        32.5050  -11.5620   28.4100 C.3   219  GLY219      0.1956
    182  C         31.1880  -12.2870   28.5100 C.2   219  GLY219      0.2612
    183  O         30.1690  -11.6480   28.7490 O.2   219  GLY219     -0.2717
    184  N         31.1760  -13.5960   28.2260 N.am  220  VAL220     -0.1965
    185  CA        29.9650  -14.4410   28.2530 C.3   220  VAL220      0.1727
    186  C         30.0610  -15.3880   29.4130 C.2   220  VAL220      0.2616
    187  O         31.0800  -16.0500   29.5980 O.2   220  VAL220     -0.2715
    188  CB        29.6340  -15.1330   26.9090 C.3   220  VAL220      0.0290
    189  CG1       28.2450  -15.7840   26.9680 C.3   220  VAL220      0.0023
    190  CG2       29.6900  -14.1300   25.7570 C.3   220  VAL220      0.0023
    191  N         29.0170  -15.4010   30.2360 N.am  221  TYR221     -0.1974
    192  CA        28.9440  -16.1720   31.4630 C.3   221  TYR221      0.1639
    193  C         27.7480  -17.0940   31.4530 C.2   221  TYR221      0.2290
    194  O         26.7350  -16.7880   30.8200 O.2   221  TYR221     -0.2864
    195  CB        28.8370  -15.2060   32.6670 C.3   221  TYR221      0.0560
    196  CG        30.0070  -14.2430   32.7940 C.ar  221  TYR221     -0.0198
    197  CD1       30.0950  -13.1050   31.9910 C.ar  221  TYR221     -0.0009
    198  CD2       31.0110  -14.4550   33.7380 C.ar  221  TYR221     -0.0009
    199  CE1       31.1840  -12.2390   32.0830 C.ar  221  TYR221      0.0417
    200  CE2       32.1280  -13.6230   33.8060 C.ar  221  TYR221      0.0417
    201  CZ        32.2010  -12.5040   32.9880 C.ar  221  TYR221      0.1957
    202  OH        33.2590  -11.6320   33.1050 O.3   221  TYR221     -0.2866
@<TRIPOS>BOND
     1    63    62    1
     2   165   164   ar
     3   165   163   ar
     4   164   162   ar
     5    82    81    1
     6   170   171    1
     7   171   172    1
     8   163   161   ar
     9   162   159   ar
    10    62    60   ar
    11    62    61   ar
    12   169   168    2
    13   168   167    1
    14    60    58   ar
    15    81    80    1
    16    81    83    1
    17   161   159   ar
    18   161   160   ar
    19    80    77    1
    20    61    59   ar
    21   159   157   ar
    22   172   173    2
    23   172   174   am
    24   128   127    1
    25   167   166    1
    26   174   175    1
    27    58    57   ar
    28   160   158   ar
    29   127   126    1
    30   157   156    1
    31   157   158   ar
    32    59    57   ar
    33   166   154   am
    34    77    78    1
    35    77    76    1
    36   190   188    1
    37    78    79    2
    38    57    56    1
    39   177   176    2
    40   156   153    1
    41   175   176    1
    42   175   178    1
    43   154   153    1
    44   154   155    2
    45   126   125    1
    46   188   189    1
    47   188   185    1
    48   153   152    1
    49   179   178    1
    50   179   119    1
    51    56    53    1
    52   125   124    1
    53   180   181    1
    54   108   106   ar
    55   152   148   am
    56    53    54    1
    57    53    52    1
    58   184   185    1
    59   184   182   am
    60   185   186    1
    61    54    55    2
    62   181   182    1
    63   182   183    2
    64   119   118    1
    65    40    41    1
    66    40    37    1
    67    73    71   ar
    68    73    74   ar
    69   149   148    2
    70   151   150    1
    71   148   147    1
    72    71    69   ar
    73   124   121    1
    74    41    42   ar
    75    41    43   ar
    76   106   107   ar
    77   106   105    1
    78    42    44   ar
    79   186   187    2
    80   186   191   am
    81    75    74    1
    82    39    38    2
    83    37    38    1
    84    37    36    1
    85    74    72   ar
    86   150   147    1
    87   120   121    1
    88   120   116   am
    89    43    45   ar
    90   105   102    1
    91   112   111    2
    92   121   122    1
    93    44    45   ar
    94    38    46   am
    95   118   115    1
    96   191   192    1
    97   147   146    1
    98   115   116    1
    99   115   114    1
   100    69    68    1
   101    69    70   ar
   102   116   117    2
   103   194   193    2
   104    68    65    1
   105    11     9    1
   106    72    70   ar
   107   111   114   am
   108   111   110    1
   109   146   141   am
   110   193   192    1
   111   192   195    1
   112    46    47    1
   113   122   123    2
   114   122   129   am
   115   102   101    1
   116   102   103    1
   117    84    85    1
   118   197   199   ar
   119   197   196   ar
   120   109   103   am
   121   109   110    1
   122     9    10    1
   123     9     8    2
   124   199   201   ar
   125   129   130    1
   126   138   137    1
   127   137   134    1
   128    48    47    1
   129    48    49    2
   130   103   104    2
   131    47    50    1
   132    65    66    1
   133    65    64    1
   134   110   113    1
   135    66    67    2
   136    85    88    1
   137    85    86    1
   138   141   142    2
   139   141   140    1
   140   195   196    1
   141   196   198   ar
   142   201   202    1
   143   201   200   ar
   144   145   143    1
   145    88    89    1
   146     8     7    1
   147    28    27    1
   148   130   131    1
   149   134   133    1
   150   134   135    1
   151    89    90    1
   152   140   143    1
   153   140   139    1
   154    86    87    2
   155    86    93   am
   156   198   200   ar
   157    50    51    1
   158    51    35    1
   159    35    34    1
   160   143   144    1
   161    25    24    2
   162     7     6    1
   163    93    94    1
   164   131   132    2
   165   135   136    2
   166    27    29    1
   167    27    26    1
   168   100    98    1
   169    90    91    1
   170    98    97    1
   171     6     5    1
   172    24    23    1
   173    24    30   am
   174    91    92    1
   175    23    26    1
   176    23    22    1
   177    94    97    1
   178    94    95    1
   179    15    14    2
   180    34    31    1
   181    97    99    1
   182     5     2    1
   183    31    30    1
   184    31    32    1
   185    95    96    2
   186    14    22   am
   187    14    13    1
   188    19    21   ar
   189    19    17   ar
   190    21    20   ar
   191     2     3    1
   192     2     1    1
   193    32    33    2
   194     4     3    2
   195     3    12   am
   196    17    16    1
   197    17    18   ar
   198    12    13    1
   199    13    16    1
   200    20    18   ar
