@<TRIPOS>MOLECULE
tmp/6c0tA01.pdb
 90 89 0 0 0
SMALL
GASTEIGER

@<TRIPOS>ATOM
      1  N         -4.5470   24.2480   -9.3160 N.3     8  LYS8       -0.1245
      2  CA        -4.7510   24.9170   -8.0370 C.3     8  LYS8        0.1561
      3  C         -4.8340   23.9100   -6.9010 C.2     8  LYS8        0.2260
      4  O         -4.2500   24.1310   -5.8360 O.2     8  LYS8       -0.2867
      5  CB        -6.0090   25.7760   -8.0830 C.3     8  LYS8        0.0271
      6  CG        -6.2210   26.5370   -6.7930 C.3     8  LYS8        0.0035
      7  CD        -7.3090   27.5770   -6.9330 C.3     8  LYS8        0.0206
      8  CE        -8.5990   27.1040   -6.3090 C.3     8  LYS8        0.1093
      9  NZ        -9.2200   25.9840   -7.0460 N.3     8  LYS8       -0.1314
     10  N         -1.2020   22.7160   -6.2830 N.3    11  ALA11      -0.1231
     11  CA        -0.4640   23.7330   -5.5370 C.3    11  ALA11       0.1694
     12  C         -0.9140   23.7920   -4.0760 C.2    11  ALA11       0.2591
     13  O         -0.0800   23.8620   -3.1600 O.2    11  ALA11      -0.2718
     14  CB        -0.6320   25.0920   -6.2010 C.3    11  ALA11       0.0304
     15  N         -2.2300   23.7790   -3.8400 N.am   12  GLU12      -0.1979
     16  CA        -2.7450   23.7580   -2.4710 C.3    12  GLU12       0.1602
     17  C         -2.1590   22.5920   -1.6960 C.2    12  GLU12       0.2287
     18  O         -1.6390   22.7660   -0.5880 O.2    12  GLU12      -0.2864
     19  CB        -4.2720   23.6610   -2.4730 C.3    12  GLU12       0.0415
     20  CG        -4.9740   24.9910   -2.5680 C.3    12  GLU12       0.1163
     21  CD        -6.4730   24.8440   -2.7480 C.2    12  GLU12       0.3649
     22  OE1       -6.9810   23.6940   -2.7520 O.co2  12  GLU12      -0.2457
     23  OE2       -7.1440   25.8890   -2.8980 O.co2  12  GLU12      -0.2457
     24  N          1.1950   23.3180   -0.6520 N.3    15  PHE15      -0.1227
     25  CA         1.2720   24.3800    0.3470 C.3    15  PHE15       0.1736
     26  C          1.0020   23.8440    1.7530 C.2    15  PHE15       0.2595
     27  O          1.7540   24.1350    2.6950 O.2    15  PHE15      -0.2718
     28  CB         0.2930   25.4950   -0.0320 C.3    15  PHE15       0.0547
     29  CG        -0.0210   26.4530    1.0850 C.ar   15  PHE15      -0.0202
     30  CD1        0.7550   27.5780    1.2880 C.ar   15  PHE15      -0.0042
     31  CD2       -1.1200   26.2490    1.9020 C.ar   15  PHE15      -0.0042
     32  CE1        0.4570   28.4660    2.3020 C.ar   15  PHE15      -0.0003
     33  CE2       -1.4200   27.1350    2.9190 C.ar   15  PHE15      -0.0003
     34  CZ        -0.6310   28.2410    3.1200 C.ar   15  PHE15      -0.0000
     35  N         -0.0540   23.0380    1.9120 N.am   16  PHE16      -0.1976
     36  CA        -0.3800   22.5060    3.2350 C.3    16  PHE16       0.1639
     37  C          0.5970   21.4230    3.6730 C.2    16  PHE16       0.2290
     38  O          0.7950   21.2250    4.8760 O.2    16  PHE16      -0.2864
     39  CB        -1.8160   21.9730    3.2590 C.3    16  PHE16       0.0560
     40  CG        -2.8530   23.0390    3.0620 C.ar   16  PHE16      -0.0200
     41  CD1       -3.1300   23.9530    4.0650 C.ar   16  PHE16      -0.0042
     42  CD2       -3.5340   23.1410    1.8640 C.ar   16  PHE16      -0.0042
     43  CE1       -4.0770   24.9450    3.8740 C.ar   16  PHE16      -0.0003
     44  CE2       -4.4770   24.1300    1.6630 C.ar   16  PHE16      -0.0003
     45  CZ        -4.7550   25.0320    2.6710 C.ar   16  PHE16      -0.0000
     46  N         -4.2880   37.2980    6.4550 N.3    48  SER48      -0.1202
     47  CA        -5.5210   37.1450    5.6930 C.3    48  SER48       0.2020
     48  C         -6.0610   35.7180    5.7130 C.2    48  SER48       0.2619
     49  O         -7.2700   35.5310    5.5370 O.2    48  SER48      -0.2717
     50  CB        -5.3190   37.5770    4.2460 C.3    48  SER48       0.2103
     51  OG        -4.3710   36.7610    3.5710 O.3    48  SER48      -0.2182
     52  N         -5.2060   34.7140    5.9150 N.am   49  LYS49      -0.1965
     53  CA        -5.5890   33.3130    5.7550 C.3    49  LYS49       0.1728
     54  C         -6.0220   32.7330    7.0980 C.2    49  LYS49       0.2617
     55  O         -5.1840   32.4750    7.9670 O.2    49  LYS49      -0.2715
     56  CB        -4.4230   32.5140    5.1800 C.3    49  LYS49       0.0311
     57  CG        -4.0400   32.8740    3.7640 C.3    49  LYS49       0.0038
     58  CD        -2.9720   31.9060    3.2840 C.3    49  LYS49       0.0206
     59  CE        -2.5500   32.1760    1.8530 C.3    49  LYS49       0.1093
     60  NZ        -2.0590   33.5620    1.6590 N.3    49  LYS49      -0.1314
     61  N         -7.3220   32.4950    7.2580 N.am   50  THR50      -0.1937
     62  CA        -7.8450   31.7780    8.4140 C.3    50  THR50       0.2028
     63  C         -8.4960   30.4700    7.9760 C.2    50  THR50       0.2642
     64  O         -8.9330   30.3290    6.8260 O.2    50  THR50      -0.2714
     65  CB        -8.8620   32.6310    9.1990 C.3    50  THR50       0.1808
     66  OG1       -9.9260   33.0430    8.3310 O.3    50  THR50      -0.2208
     67  CG2       -8.1870   33.8670    9.8090 C.3    50  THR50       0.0379
     68  N         -8.5520   29.5140    8.9070 N.am   51  PHE51      -0.1973
     69  CA        -9.0670   28.1700    8.6630 C.3    51  PHE51       0.1639
     70  C         -9.8950   27.6960    9.8490 C.2    51  PHE51       0.2290
     71  O         -9.8610   28.2800   10.9390 O.2    51  PHE51      -0.2864
     72  CB        -7.9430   27.1550    8.4370 C.3    51  PHE51       0.0560
     73  CG        -7.0120   27.5210    7.3330 C.ar   51  PHE51      -0.0200
     74  CD1       -7.1980   27.0020    6.0610 C.ar   51  PHE51      -0.0042
     75  CD2       -5.9430   28.3720    7.5650 C.ar   51  PHE51      -0.0042
     76  CE1       -6.3390   27.3360    5.0340 C.ar   51  PHE51      -0.0003
     77  CE2       -5.0780   28.7110    6.5430 C.ar   51  PHE51      -0.0003
     78  CZ        -5.2780   28.1920    5.2710 C.ar   51  PHE51      -0.0000
     79  N         -8.2460   20.1440    4.0800 N.3    89  TYR89      -0.1241
     80  CA        -6.9590   20.2910    3.4270 C.3    89  TYR89       0.1605
     81  C         -5.9610   19.2430    3.9090 C.2    89  TYR89       0.2264
     82  O         -5.2660   18.6300    3.0930 O.2    89  TYR89      -0.2867
     83  CB        -6.4290   21.7080    3.6480 C.3    89  TYR89       0.0534
     84  CG        -7.2890   22.7870    3.0040 C.ar   89  TYR89      -0.0201
     85  CD1       -7.4720   22.8340    1.6170 C.ar   89  TYR89      -0.0009
     86  CD2       -7.9090   23.7550    3.7740 C.ar   89  TYR89      -0.0009
     87  CE1       -8.2590   23.8320    1.0250 C.ar   89  TYR89       0.0417
     88  CE2       -8.6880   24.7400    3.2080 C.ar   89  TYR89       0.0417
     89  CZ        -8.8630   24.7800    1.8350 C.ar   89  TYR89       0.1957
     90  OH        -9.6480   25.7790    1.3050 O.3    89  TYR89      -0.2866
@<TRIPOS>BOND
     1     1     2    1
     2     5     2    1
     3     5     6    1
     4     2     3    1
     5     9     8    1
     6     7     6    1
     7     7     8    1
     8     3     4    2
     9    10    11    1
    10    14    11    1
    11    11    12    1
    12    12    15   am
    13    12    13    2
    14    15    16    1
    15    23    21   ar
    16    22    21   ar
    17    21    20    1
    18    20    19    1
    19    19    16    1
    20    16    17    1
    21    17    18    2
    22    24    25    1
    23    28    25    1
    24    28    29    1
    25    25    26    1
    26    87    85   ar
    27    87    89   ar
    28    29    30   ar
    29    29    31   ar
    30    30    32   ar
    31    90    89    1
    32    85    84   ar
    33    60    59    1
    34    44    42   ar
    35    44    45   ar
    36    26    35   am
    37    26    27    2
    38    89    88   ar
    39    59    58    1
    40    42    40   ar
    41    31    33   ar
    42    35    36    1
    43    32    34   ar
    44    45    43   ar
    45    33    34   ar
    46    84    83    1
    47    84    86   ar
    48    40    39    1
    49    40    41   ar
    50    82    81    2
    51    88    86   ar
    52    36    39    1
    53    36    37    1
    54    58    57    1
    55    80    83    1
    56    80    81    1
    57    80    79    1
    58    51    50    1
    59    37    38    2
    60    57    56    1
    61    43    41   ar
    62    50    47    1
    63    76    78   ar
    64    76    74   ar
    65    56    53    1
    66    78    77   ar
    67    49    48    2
    68    47    48    1
    69    47    46    1
    70    48    52   am
    71    53    52    1
    72    53    54    1
    73    74    73   ar
    74    77    75   ar
    75    64    63    2
    76    54    61   am
    77    54    55    2
    78    61    62    1
    79    73    75   ar
    80    73    72    1
    81    63    62    1
    82    63    68   am
    83    66    65    1
    84    62    65    1
    85    72    69    1
    86    69    68    1
    87    69    70    1
    88    65    67    1
    89    70    71    2
