@<TRIPOS>MOLECULE
tmp/6c17A00.pdb
 145 136 0 0 0
SMALL
GASTEIGER

@<TRIPOS>ATOM
      1  N        -20.0870  109.2350   67.5320 N.3    16  TYR16      -0.1241
      2  CA       -20.5870  109.4080   68.8890 C.3    16  TYR16       0.1605
      3  C        -19.4610  109.3040   69.9100 C.2    16  TYR16       0.2264
      4  O        -19.3300  110.1570   70.7970 O.2    16  TYR16      -0.2867
      5  CB       -21.6870  108.3750   69.1460 C.3    16  TYR16       0.0534
      6  CG       -22.0800  108.3090   70.5920 C.ar   16  TYR16      -0.0201
      7  CD1      -23.0570  109.1480   71.1160 C.ar   16  TYR16      -0.0009
      8  CD2      -21.4730  107.3990   71.4530 C.ar   16  TYR16      -0.0009
      9  CE1      -23.4080  109.0850   72.4390 C.ar   16  TYR16       0.0417
     10  CE2      -21.8230  107.3290   72.7720 C.ar   16  TYR16       0.0417
     11  CZ       -22.7880  108.1690   73.2630 C.ar   16  TYR16       0.1957
     12  OH       -23.1440  108.1200   74.5970 O.3    16  TYR16      -0.2866
     13  N        -18.1560  112.1350   72.6060 N.3    20  VAL20      -0.1245
     14  CA       -17.9870  111.8790   74.0330 C.3    20  VAL20       0.1561
     15  C        -16.5550  112.1780   74.4560 C.2    20  VAL20       0.2260
     16  O        -16.3140  112.8170   75.4890 O.2    20  VAL20      -0.2867
     17  CB       -18.4100  110.4350   74.3860 C.3    20  VAL20       0.0252
     18  CG1      -18.1190  110.1250   75.8520 C.3    20  VAL20       0.0019
     19  CG2      -19.9010  110.2360   74.1170 C.3    20  VAL20       0.0019
     20  N        -29.1970  103.7670   81.0050 N.3    40  ASN40      -0.1240
     21  CA       -27.8420  103.7650   81.5300 C.3    40  ASN40       0.1653
     22  C        -27.8210  103.5280   83.0360 C.2    40  ASN40       0.2266
     23  O        -28.3540  104.3480   83.7900 O.2    40  ASN40      -0.2867
     24  CB       -27.1290  105.0900   81.2770 C.3    40  ASN40       0.1155
     25  CG       -25.7310  105.0630   81.8300 C.2    40  ASN40       0.2627
     26  OD1      -24.9150  104.2800   81.3590 O.2    40  ASN40      -0.2716
     27  ND2      -25.4510  105.8700   82.8680 N.am   40  ASN40      -0.0877
     28  N        -28.3170  114.4180   81.1870 N.3    56  PHE56      -0.1227
     29  CA       -27.4750  113.2440   81.4060 C.3    56  PHE56       0.1736
     30  C        -26.0260  113.5090   81.0040 C.2    56  PHE56       0.2595
     31  O        -25.0940  113.2450   81.7750 O.2    56  PHE56      -0.2718
     32  CB       -28.0650  112.0710   80.6120 C.3    56  PHE56       0.0547
     33  CG       -27.2150  110.8250   80.6050 C.ar   56  PHE56      -0.0202
     34  CD1      -27.3250  109.8990   81.6210 C.ar   56  PHE56      -0.0042
     35  CD2      -26.3380  110.5660   79.5640 C.ar   56  PHE56      -0.0042
     36  CE1      -26.5600  108.7400   81.6170 C.ar   56  PHE56      -0.0003
     37  CE2      -25.5680  109.4100   79.5540 C.ar   56  PHE56      -0.0003
     38  CZ       -25.6850  108.4980   80.5860 C.ar   56  PHE56      -0.0000
     39  N        -25.8100  113.9890   79.7800 N.am   57  TYR57      -0.1976
     40  CA       -24.4440  114.2320   79.3250 C.3    57  TYR57       0.1639
     41  C        -23.7860  115.4040   80.0470 C.2    57  TYR57       0.2290
     42  O        -22.5760  115.3780   80.2780 O.2    57  TYR57      -0.2864
     43  CB       -24.3960  114.3880   77.7990 C.3    57  TYR57       0.0560
     44  CG       -24.6190  113.0700   77.0890 C.ar   57  TYR57      -0.0198
     45  CD1      -23.6240  112.1080   77.0800 C.ar   57  TYR57      -0.0009
     46  CD2      -25.8140  112.7790   76.4600 C.ar   57  TYR57      -0.0009
     47  CE1      -23.8120  110.8870   76.4740 C.ar   57  TYR57       0.0417
     48  CE2      -26.0170  111.5550   75.8500 C.ar   57  TYR57       0.0417
     49  CZ       -25.0050  110.6150   75.8610 C.ar   57  TYR57       0.1957
     50  OH       -25.2170  109.3870   75.2580 O.3    57  TYR57      -0.2866
     51  N        -22.5590  113.7810   83.2130 N.3    60  GLY60      -0.1210
     52  CA       -21.4800  112.8290   83.0300 C.3    60  GLY60       0.1956
     53  C        -20.2000  113.4580   82.5210 C.2    60  GLY60       0.2611
     54  O        -19.1040  113.0520   82.9200 O.2    60  GLY60      -0.2717
     55  N        -20.3160  114.4600   81.6400 N.am   61  LEU61      -0.1979
     56  CA       -19.1720  115.0250   80.9420 C.3    61  LEU61       0.1596
     57  C        -18.8710  116.4690   81.2990 C.2    61  LEU61       0.2287
     58  O        -17.8100  116.9600   80.9160 O.2    61  LEU61      -0.2864
     59  CB       -19.3990  114.9670   79.4240 C.3    61  LEU61       0.0297
     60  CG       -19.7470  113.5960   78.8530 C.3    61  LEU61       0.0022
     61  CD1      -19.9700  113.6510   77.3470 C.3    61  LEU61       0.0001
     62  CD2      -18.6400  112.6070   79.1680 C.3    61  LEU61       0.0001
     63  N        -12.9940  113.6030   81.2620 N.3    66  VAL66      -0.1245
     64  CA       -13.5270  112.3550   80.7180 C.3    66  VAL66       0.1561
     65  C        -12.9770  112.1230   79.3180 C.2    66  VAL66       0.2260
     66  O        -12.9780  113.0270   78.4710 O.2    66  VAL66      -0.2867
     67  CB       -15.0670  112.3120   80.7110 C.3    66  VAL66       0.0252
     68  CG1      -15.5630  110.9720   80.1290 C.3    66  VAL66       0.0019
     69  CG2      -15.6070  112.5350   82.1250 C.3    66  VAL66       0.0019
     70  N        -16.2650   99.9650   74.3800 N.3    86  PHE86      -0.1241
     71  CA       -15.4240  101.1280   74.6070 C.3    86  PHE86       0.1605
     72  C        -15.0720  101.2170   76.0740 C.2    86  PHE86       0.2264
     73  O        -15.6190  100.5030   76.9190 O.2    86  PHE86      -0.2867
     74  CB       -16.0410  102.4130   74.0720 C.3    86  PHE86       0.0534
     75  CG       -17.3540  102.8050   74.7010 C.ar   86  PHE86      -0.0203
     76  CD1      -18.5410  102.1850   74.3510 C.ar   86  PHE86      -0.0042
     77  CD2      -17.4000  103.8460   75.5980 C.ar   86  PHE86      -0.0042
     78  CE1      -19.7490  102.5920   74.9050 C.ar   86  PHE86      -0.0003
     79  CE2      -18.5980  104.2650   76.1380 C.ar   86  PHE86      -0.0003
     80  CZ       -19.7840  103.6520   75.8000 C.ar   86  PHE86      -0.0000
     81  N        -14.3490  104.2320   79.0630 N.3    88  VAL88      -0.1245
     82  CA       -14.4370  105.6190   79.4990 C.3    88  VAL88       0.1561
     83  C        -13.4110  105.7900   80.5990 C.2    88  VAL88       0.2260
     84  O        -13.3410  104.9670   81.5180 O.2    88  VAL88      -0.2867
     85  CB       -15.8480  105.9280   80.0280 C.3    88  VAL88       0.0252
     86  CG1      -15.9340  107.3750   80.4700 C.3    88  VAL88       0.0019
     87  CG2      -16.8950  105.6100   78.9700 C.3    88  VAL88       0.0019
     88  N        -11.9600  108.4290   83.5180 N.3    90  MET90      -0.1245
     89  CA       -12.3240  109.6240   84.2600 C.3    90  MET90       0.1570
     90  C        -11.5410  109.6340   85.5650 C.2    90  MET90       0.2261
     91  O        -10.5320  108.9360   85.7060 O.2    90  MET90      -0.2867
     92  CB       -13.8450  109.6790   84.4690 C.3    90  MET90       0.0387
     93  CG       -14.3820  108.5360   85.2920 C.3    90  MET90       0.0595
     94  SD       -14.3460  106.9650   84.4140 S.3    90  MET90      -0.1393
     95  CE       -16.0180  106.4540   84.7450 C.3    90  MET90       0.0692
     96  N        -14.1520  102.8170   83.1340 N.3    99  LEU99      -0.1245
     97  CA       -15.3920  102.0560   83.0500 C.3    99  LEU99       0.1561
     98  C        -15.4620  101.4210   81.6710 C.2    99  LEU99       0.2260
     99  O        -15.4350  102.1230   80.6530 O.2    99  LEU99      -0.2867
    100  CB       -16.6040  102.9520   83.2730 C.3    99  LEU99       0.0270
    101  CG       -17.9690  102.2510   83.2570 C.3    99  LEU99       0.0019
    102  CD1      -18.1260  101.3080   84.4560 C.3    99  LEU99       0.0001
    103  CD2      -19.1060  103.2630   83.2320 C.3    99  LEU99       0.0001
    104  N        -17.6400   99.5900   78.8550 N.3   101  VAL101     -0.1245
    105  CA       -19.0450   99.7150   78.4760 C.3   101  VAL101      0.1561
    106  C        -19.2450   99.0890   77.0980 C.2   101  VAL101      0.2260
    107  O        -18.3410   99.1040   76.2620 O.2   101  VAL101     -0.2867
    108  CB       -19.4700  101.2080   78.4160 C.3   101  VAL101      0.0252
    109  CG1      -20.9460  101.3510   78.1040 C.3   101  VAL101      0.0019
    110  CG2      -19.1450  101.9400   79.7100 C.3   101  VAL101      0.0019
    111  N        -22.2350   99.8780   74.2620 N.3   103  ASP103     -0.1239
    112  CA       -23.4840  100.5380   73.8980 C.3   103  ASP103      0.1674
    113  C        -24.1310   99.7990   72.7380 C.2   103  ASP103      0.2266
    114  O        -23.4580   99.4440   71.7670 O.2   103  ASP103     -0.2867
    115  CB       -23.2950  101.9930   73.4460 C.3   103  ASP103      0.1410
    116  CG       -23.0790  102.9750   74.5810 C.2   103  ASP103      0.3668
    117  OD1      -23.0800  102.6030   75.7750 O.co2 103  ASP103     -0.2456
    118  OD2      -22.9340  104.1800   74.2200 O.co2 103  ASP103     -0.2456
    119  N        -30.5430  104.2370   72.9350 N.3   116  MET116     -0.1245
    120  CA       -29.2110  103.8550   73.3830 C.3   116  MET116      0.1570
    121  C        -29.3520  103.0630   74.6710 C.2   116  MET116      0.2261
    122  O        -30.1260  103.4420   75.5600 O.2   116  MET116     -0.2867
    123  CB       -28.2970  105.0740   73.5790 C.3   116  MET116      0.0387
    124  CG       -26.8540  104.6990   73.9220 C.3   116  MET116      0.0595
    125  SD       -26.5800  104.3950   75.6870 S.3   116  MET116     -0.1393
    126  CE       -25.9600  105.9890   76.1890 C.3   116  MET116      0.0692
    127  N        -26.7130  101.2450   77.4800 N.3   118  ALA118     -0.1245
    128  CA       -25.3210  101.1680   77.9000 C.3   118  ALA118      0.1562
    129  C        -25.1900  100.0130   78.8860 C.2   118  ALA118      0.2260
    130  O        -25.6210  100.1120   80.0440 O.2   118  ALA118     -0.2867
    131  CB       -24.8770  102.4760   78.5430 C.3   118  ALA118      0.0290
    132  N        -23.1710   97.8960   81.3910 N.3   120  TRP120     -0.1241
    133  CA       -22.0640   97.8920   82.3300 C.3   120  TRP120      0.1605
    134  C        -22.6480   97.6830   83.7130 C.2   120  TRP120      0.2264
    135  O        -23.8250   97.9530   83.9480 O.2   120  TRP120     -0.2867
    136  CB       -21.2550   99.2070   82.3170 C.3   120  TRP120      0.0550
    137  CG       -22.0340  100.4560   82.6580 C.ar  120  TRP120      0.0003
    138  CD1      -22.6850  101.2580   81.7880 C.ar  120  TRP120      0.0946
    139  CD2      -22.2100  101.0470   83.9610 C.ar  120  TRP120      0.0152
    140  NE1      -23.2670  102.3150   82.4580 N.ar  120  TRP120     -0.2442
    141  CE2      -22.9910  102.1970   83.7910 C.ar  120  TRP120      0.0810
    142  CE3      -21.7830  100.7080   85.2460 C.ar  120  TRP120      0.0012
    143  CZ2      -23.3640  103.0170   84.8640 C.ar  120  TRP120      0.0191
    144  CZ3      -22.1640  101.5150   86.3110 C.ar  120  TRP120      0.0001
    145  CH2      -22.9420  102.6560   86.1110 C.ar  120  TRP120      0.0015
@<TRIPOS>BOND
     1     1     2    1
     2     2     5    1
     3     2     3    1
     4     5     6    1
     5     3     4    2
     6     6     7   ar
     7     6     8   ar
     8     7     9   ar
     9     8    10   ar
    10   114   113    2
    11     9    11   ar
    12    13    14    1
    13   113   112    1
    14    10    11   ar
    15   119   120    1
    16    11    12    1
    17   120   123    1
    18   120   121    1
    19   115   112    1
    20   115   116    1
    21   123   124    1
    22   112   111    1
    23   124   125    1
    24    14    17    1
    25    14    15    1
    26    74    71    1
    27    74    75    1
    28    19    17    1
    29   118   116   ar
    30    76    75   ar
    31    76    78   ar
    32    70    71    1
    33    17    18    1
    34    15    16    2
    35   116   117   ar
    36    71    72    1
    37   121   122    2
    38    75    77   ar
    39    78    80   ar
    40    50    49    1
    41    77    79   ar
    42   125   126    1
    43    80    79   ar
    44    48    49   ar
    45    48    46   ar
    46    49    47   ar
    47    72    73    2
    48   107   106    2
    49    46    44   ar
    50    47    45   ar
    51    45    44   ar
    52    44    43    1
    53   106   105    1
    54    61    60    1
    55   127   128    1
    56    43    40    1
    57   128   131    1
    58   128   129    1
    59   109   108    1
    60   108   105    1
    61   108   110    1
    62    66    65    2
    63   105   104    1
    64    60    62    1
    65    60    59    1
    66   129   130    2
    67    87    85    1
    68    81    82    1
    69    65    64    1
    70    40    39    1
    71    40    41    1
    72    59    56    1
    73    82    85    1
    74    82    83    1
    75    37    35   ar
    76    37    38   ar
    77    35    33   ar
    78    39    30   am
    79    85    86    1
    80    41    42    2
    81    68    67    1
    82    38    36   ar
    83    83    84    2
    84    33    32    1
    85    33    34   ar
    86    32    29    1
    87    99    98    2
    88    67    64    1
    89    67    69    1
    90    64    63    1
    91    58    57    2
    92    56    57    1
    93    56    55    1
    94    30    29    1
    95    30    31    2
    96    20    21    1
    97    28    29    1
    98    24    21    1
    99    24    25    1
   100    26    25    2
   101   132   133    1
   102    21    22    1
   103    36    34   ar
   104    55    53   am
   105    98    97    1
   106   138   140   ar
   107   138   137   ar
   108    25    27   am
   109   136   133    1
   110   136   137    1
   111   133   134    1
   112   140   141   ar
   113    53    54    2
   114    53    52    1
   115   137   139   ar
   116    52    51    1
   117    22    23    2
   118    97    96    1
   119    97   100    1
   120   103   101    1
   121   101   100    1
   122   101   102    1
   123    88    89    1
   124   134   135    2
   125   141   139   ar
   126   141   143   ar
   127   139   142   ar
   128    89    92    1
   129    89    90    1
   130    94    95    1
   131    94    93    1
   132    92    93    1
   133   143   145   ar
   134   142   144   ar
   135    90    91    2
   136   145   144   ar
