@<TRIPOS>MOLECULE
tmp/6c18B00.pdb
 176 163 0 0 0
SMALL
GASTEIGER

@<TRIPOS>ATOM
      1  N        -48.8170   36.7460   39.4740 N.3    19  LEU19      -0.1231
      2  CA       -49.3070   37.4090   38.2620 C.3    19  LEU19       0.1693
      3  C        -50.0290   36.4690   37.2920 C.2    19  LEU19       0.2592
      4  O        -50.9970   36.8870   36.6700 O.2    19  LEU19      -0.2718
      5  CB       -48.1690   38.1650   37.5610 C.3    19  LEU19       0.0284
      6  CG       -47.6300   39.3600   38.3620 C.3    19  LEU19       0.0019
      7  CD1      -46.2700   39.7990   37.8100 C.3    19  LEU19       0.0001
      8  CD2      -48.6280   40.5230   38.4300 C.3    19  LEU19       0.0001
      9  N        -49.5690   35.2150   37.1900 N.am   20  GLY20      -0.1957
     10  CA       -50.0820   34.2440   36.2100 C.3    20  GLY20       0.1869
     11  C        -49.2570   32.9670   36.1780 C.2    20  GLY20       0.2309
     12  O        -49.2990   32.2180   35.2010 O.2    20  GLY20      -0.2863
     13  N        -45.5280   32.9950   37.5500 N.3    23  VAL23      -0.1245
     14  CA       -45.0000   34.3490   37.5670 C.3    23  VAL23       0.1561
     15  C        -45.5000   35.1080   38.7930 C.2    23  VAL23       0.2260
     16  O        -46.6880   35.0630   39.1190 O.2    23  VAL23      -0.2867
     17  CB       -45.4000   35.1340   36.2830 C.3    23  VAL23       0.0252
     18  CG1      -44.7540   36.5110   36.2690 C.3    23  VAL23       0.0019
     19  CG2      -45.0070   34.3670   35.0160 C.3    23  VAL23       0.0019
     20  N        -40.9690   41.3020   37.4840 N.3    41  ALA41      -0.1245
     21  CA       -41.6480   40.0210   37.3430 C.3    41  ALA41       0.1562
     22  C        -40.6530   38.8680   37.4840 C.2    41  ALA41       0.2260
     23  O        -39.5540   38.8990   36.9210 O.2    41  ALA41      -0.2867
     24  CB       -42.3350   39.9410   36.0000 C.3    41  ALA41       0.0290
     25  N        -40.0760   34.7080   37.1870 N.3    43  LYS43      -0.1245
     26  CA       -40.6050   33.4390   36.7600 C.3    43  LYS43       0.1561
     27  C        -39.8740   32.3570   37.4930 C.2    43  LYS43       0.2260
     28  O        -38.6630   32.3470   37.5170 O.2    43  LYS43      -0.2867
     29  CB       -40.4610   33.2140   35.2560 C.3    43  LYS43       0.0271
     30  CG       -41.0910   31.9060   34.8280 C.3    43  LYS43       0.0035
     31  CD       -40.8120   31.5580   33.3720 C.3    43  LYS43       0.0206
     32  CE       -41.8570   32.1320   32.4530 C.3    43  LYS43       0.1093
     33  NZ       -41.9230   31.3250   31.1990 N.3    43  LYS43      -0.1314
     34  N        -37.0100   26.1640   31.5250 N.3    57  LEU57      -0.1245
     35  CA       -36.8530   27.4740   32.1580 C.3    57  LEU57       0.1561
     36  C        -35.4630   28.0100   31.9560 C.2    57  LEU57       0.2260
     37  O        -35.2830   29.1880   31.6840 O.2    57  LEU57      -0.2867
     38  CB       -37.1350   27.4030   33.6600 C.3    57  LEU57       0.0270
     39  CG       -37.1610   28.7590   34.3770 C.3    57  LEU57       0.0019
     40  CD1      -38.1840   29.7030   33.7490 C.3    57  LEU57       0.0001
     41  CD2      -37.4590   28.5780   35.8530 C.3    57  LEU57       0.0001
     42  N        -34.8120   29.0710   28.3700 N.3    60  GLU60      -0.1245
     43  CA       -35.4520   30.3360   28.1200 C.3    60  GLU60       0.1567
     44  C        -34.6670   31.4910   28.6910 C.2    60  GLU60       0.2260
     45  O        -34.6040   32.5260   28.0640 O.2    60  GLU60      -0.2867
     46  CB       -36.8680   30.3520   28.6780 C.3    60  GLU60       0.0388
     47  CG       -37.5110   31.7400   28.6350 C.3    60  GLU60       0.1160
     48  CD       -38.9430   31.7480   29.1180 C.2    60  GLU60       0.3649
     49  OE1      -39.2410   31.0210   30.0750 O.co2  60  GLU60      -0.2457
     50  OE2      -39.7620   32.4810   28.5310 O.co2  60  GLU60      -0.2457
     51  N        -32.7660   34.5940   26.4490 N.3    64  MET64      -0.1245
     52  CA       -32.9180   36.0000   26.6760 C.3    64  MET64       0.1570
     53  C        -31.5570   36.6500   26.7520 C.2    64  MET64       0.2261
     54  O        -31.3810   37.7350   26.2220 O.2    64  MET64      -0.2867
     55  CB       -33.7340   36.2420   27.9280 C.3    64  MET64       0.0387
     56  CG       -35.1430   35.6840   27.7800 C.3    64  MET64       0.0595
     57  SD       -36.2420   36.0910   29.1230 S.3    64  MET64      -0.1393
     58  CE       -36.2720   37.8720   28.9770 C.3    64  MET64       0.0692
     59  N        -39.6880   42.4860   26.5480 N.3    74  ILE74      -0.1245
     60  CA       -39.5950   42.2090   27.9660 C.3    74  ILE74       0.1561
     61  C        -38.1750   41.7450   28.2430 C.2    74  ILE74       0.2260
     62  O        -37.8000   40.6610   27.7840 O.2    74  ILE74      -0.2867
     63  CB       -40.5600   41.0920   28.3780 C.3    74  ILE74       0.0252
     64  CG1      -42.0050   41.5400   28.1550 C.3    74  ILE74       0.0019
     65  CG2      -40.3190   40.7000   29.8510 C.3    74  ILE74       0.0019
     66  CD1      -42.4800   42.5510   29.1900 C.3    74  ILE74       0.0001
     67  N        -36.0090   33.6460   37.4770 N.3    88  VAL88      -0.1245
     68  CA       -35.6110   34.3830   36.2880 C.3    88  VAL88       0.1561
     69  C        -36.3520   35.6980   36.3540 C.2    88  VAL88       0.2260
     70  O        -37.5810   35.7550   36.2640 O.2    88  VAL88      -0.2867
     71  CB       -36.0230   33.6330   35.0060 C.3    88  VAL88       0.0252
     72  CG1      -35.6760   34.4780   33.7750 C.3    88  VAL88       0.0019
     73  CG2      -35.3430   32.2720   34.9440 C.3    88  VAL88       0.0019
     74  N        -37.4430   39.4780   35.3390 N.3    90  VAL90      -0.1231
     75  CA       -37.5910   40.3290   34.1530 C.3    90  VAL90       0.1692
     76  C        -38.3760   41.5950   34.4500 C.2    90  VAL90       0.2592
     77  O        -38.9610   41.7480   35.5170 O.2    90  VAL90      -0.2718
     78  CB       -38.2680   39.5850   32.9770 C.3    90  VAL90       0.0266
     79  CG1      -37.5620   38.2740   32.6960 C.3    90  VAL90       0.0020
     80  CG2      -39.7340   39.3310   33.2710 C.3    90  VAL90       0.0020
     81  N        -38.3900   42.5000   33.4740 N.am   91  GLU91      -0.1966
     82  CA       -39.1880   43.7120   33.5540 C.3    91  GLU91       0.1733
     83  C        -40.6660   43.3820   33.7370 C.2    91  GLU91       0.2616
     84  O        -41.1540   42.3550   33.2820 O.2    91  GLU91      -0.2715
     85  CB       -38.9830   44.5830   32.3120 C.3    91  GLU91       0.0429
     86  CG       -37.5790   45.1800   32.1310 C.3    91  GLU91       0.1163
     87  CD       -37.3730   45.8070   30.7390 C.2    91  GLU91       0.3649
     88  OE1      -37.8550   45.2460   29.7070 O.co2  91  GLU91      -0.2457
     89  OE2      -36.7080   46.8640   30.6770 O.co2  91  GLU91      -0.2457
     90  N        -41.3650   44.2720   34.4230 N.am   92  TYR92      -0.1960
     91  CA       -42.7420   44.0680   34.8120 C.3    92  TYR92       0.1771
     92  C        -43.5860   45.0850   34.0780 C.2    92  TYR92       0.2619
     93  O        -43.1640   46.2220   33.9310 O.2    92  TYR92      -0.2715
     94  CB       -42.8430   44.2890   36.3090 C.3    92  TYR92       0.0574
     95  CG       -44.2190   44.6150   36.8300 C.ar   92  TYR92      -0.0198
     96  CD1      -45.2580   43.7100   36.6980 C.ar   92  TYR92      -0.0009
     97  CD2      -44.4640   45.8120   37.5090 C.ar   92  TYR92      -0.0009
     98  CE1      -46.5190   43.9890   37.1920 C.ar   92  TYR92       0.0417
     99  CE2      -45.7220   46.1010   38.0030 C.ar   92  TYR92       0.0417
    100  CZ       -46.7390   45.1740   37.8370 C.ar   92  TYR92       0.1957
    101  OH       -47.9810   45.4300   38.3340 O.3    92  TYR92      -0.2866
    102  N        -44.7700   44.6730   33.6260 N.am   93  ALA93      -0.1963
    103  CA       -45.6970   45.5580   32.8820 C.3    93  ALA93       0.1728
    104  C        -47.0040   45.7250   33.6630 C.2    93  ALA93       0.2616
    105  O        -47.8030   44.7940   33.7500 O.2    93  ALA93      -0.2715
    106  CB       -45.9720   44.9800   31.5000 C.3    93  ALA93       0.0334
    107  N        -47.2180   46.9110   34.2220 N.am   94  SER94      -0.1950
    108  CA       -48.3130   47.1300   35.1730 C.3    94  SER94       0.1924
    109  C        -49.7140   47.2270   34.5610 C.2    94  SER94       0.2314
    110  O        -50.7090   46.8900   35.2180 O.2    94  SER94      -0.2863
    111  CB       -48.0360   48.3790   35.9960 C.3    94  SER94       0.2116
    112  OG       -47.9780   49.5210   35.1830 O.3    94  SER94      -0.2180
    113  N        -51.0570   45.6290   32.0180 N.3    96  GLY96      -0.1210
    114  CA       -51.6330   44.4100   31.4770 C.3    96  GLY96       0.1956
    115  C        -51.0690   44.1160   30.1100 C.2    96  GLY96       0.2611
    116  O        -50.1690   44.8260   29.6310 O.2    96  GLY96      -0.2717
    117  N        -51.5930   43.0750   29.4670 N.am   97  ASN97      -0.1974
    118  CA       -51.2450   42.8300   28.0860 C.3    97  ASN97       0.1688
    119  C        -51.9650   43.8380   27.2140 C.2    97  ASN97       0.2292
    120  O        -52.8920   44.5060   27.6800 O.2    97  ASN97      -0.2864
    121  CB       -51.5740   41.4090   27.6760 C.3    97  ASN97       0.1181
    122  CG       -53.0590   41.1690   27.5240 C.2    97  ASN97       0.2629
    123  OD1      -53.8320   42.0620   27.1390 O.2    97  ASN97      -0.2716
    124  ND2      -53.4640   39.9470   27.8080 N.am   97  ASN97      -0.0877
    125  N        -56.0780   43.5260   26.7570 N.3   100  GLU100     -0.1245
    126  CA       -56.8720   44.0760   27.8670 C.3   100  GLU100      0.1567
    127  C        -56.5850   45.5670   28.0870 C.2   100  GLU100      0.2260
    128  O        -57.4810   46.3240   28.4560 O.2   100  GLU100     -0.2867
    129  CB       -56.7550   43.2260   29.1520 C.3   100  GLU100      0.0388
    130  CG       -55.4200   43.2300   29.8670 C.3   100  GLU100      0.1160
    131  CD       -55.1590   41.9610   30.7040 C.2   100  GLU100      0.3649
    132  OE1      -54.1520   41.9310   31.4330 O.co2 100  GLU100     -0.2457
    133  OE2      -55.9350   40.9780   30.6380 O.co2 100  GLU100     -0.2457
    134  N        -52.2400   39.5930   22.8440 N.3   140  ARG140     -0.1245
    135  CA       -52.0520   38.7530   24.0330 C.3   140  ARG140      0.1563
    136  C        -50.5880   38.7810   24.5270 C.2   140  ARG140      0.2260
    137  O        -50.3370   38.8500   25.7140 O.2   140  ARG140     -0.2867
    138  CB       -52.4820   37.2970   23.7230 C.3   140  ARG140      0.0307
    139  CG       -53.9950   37.2070   23.6020 C.3   140  ARG140      0.0489
    140  CD       -54.4230   35.8280   23.0960 C.3   140  ARG140      0.2205
    141  NE       -53.7850   35.4230   21.8440 N.pl3 140  ARG140     -0.0865
    142  CZ       -53.8370   34.1770   21.3460 C.cat 140  ARG140      0.5346
    143  NH1      -54.4920   33.2050   22.0110 N.pl3 140  ARG140      0.1354
    144  NH2      -53.2120   33.9040   20.1780 N.pl3 140  ARG140      0.1354
    145  N        -47.0690   43.3660   26.2640 N.3   143  LEU143     -0.1245
    146  CA       -47.3770   43.8270   27.6090 C.3   143  LEU143      0.1561
    147  C        -47.1450   45.3070   27.6740 C.2   143  LEU143      0.2260
    148  O        -46.2380   45.8040   27.0370 O.2   143  LEU143     -0.2867
    149  CB       -46.5030   43.1230   28.6400 C.3   143  LEU143      0.0270
    150  CG       -46.5350   41.5940   28.6520 C.3   143  LEU143      0.0019
    151  CD1      -45.5480   41.0520   29.6760 C.3   143  LEU143      0.0001
    152  CD2      -47.9310   41.0780   28.9400 C.3   143  LEU143      0.0001
    153  N        -43.6650   39.9020   24.4440 N.3   153  ALA153     -0.1231
    154  CA       -43.5870   38.8740   25.4800 C.3   153  ALA153      0.1694
    155  C        -43.4690   37.5200   24.8530 C.2   153  ALA153      0.2592
    156  O        -43.8610   37.3470   23.7110 O.2   153  ALA153     -0.2718
    157  CB       -44.8440   38.9040   26.3250 C.3   153  ALA153      0.0304
    158  N        -42.9330   36.5730   25.6270 N.am  154  ASP154     -0.1960
    159  CA       -42.8560   35.1440   25.2820 C.3   154  ASP154      0.1840
    160  C        -42.2350   34.8640   23.9370 C.2   154  ASP154      0.2622
    161  O        -42.7950   34.1390   23.1170 O.2   154  ASP154     -0.2715
    162  CB       -44.2310   34.4690   25.4090 C.3   154  ASP154      0.1450
    163  CG       -44.5890   34.1820   26.8410 C.2   154  ASP154      0.3671
    164  OD1      -43.8110   33.4530   27.5100 O.co2 154  ASP154     -0.2456
    165  OD2      -45.6260   34.6920   27.3230 O.co2 154  ASP154     -0.2456
    166  N        -41.0660   35.4550   23.7330 N.am  155  PHE155     -0.1974
    167  CA       -40.2700   35.2820   22.5010 C.3   155  PHE155      0.1639
    168  C        -39.1830   34.2190   22.6110 C.2   155  PHE155      0.2290
    169  O        -38.5950   33.8500   21.6020 O.2   155  PHE155     -0.2864
    170  CB       -39.6220   36.6140   22.0740 C.3   155  PHE155      0.0560
    171  CG       -38.8450   37.3310   23.1690 C.ar  155  PHE155     -0.0200
    172  CD1      -39.4680   38.2760   23.9880 C.ar  155  PHE155     -0.0042
    173  CD2      -37.4880   37.0900   23.3570 C.ar  155  PHE155     -0.0042
    174  CE1      -38.7600   38.9560   24.9620 C.ar  155  PHE155     -0.0003
    175  CE2      -36.7730   37.7770   24.3320 C.ar  155  PHE155     -0.0003
    176  CZ       -37.4100   38.7070   25.1360 C.ar  155  PHE155     -0.0000
@<TRIPOS>BOND
     1   144   142    1
     2   142   141    2
     3   142   143    1
     4   169   168    2
     5   141   140    1
     6   170   167    1
     7   170   171    1
     8   167   168    1
     9   167   166    1
    10   134   135    1
    11   140   139    1
    12   161   160    2
    13   171   173   ar
    14   171   172   ar
    15   173   175   ar
    16   139   138    1
    17   156   155    2
    18   138   135    1
    19   166   160   am
    20   160   159    1
    21   172   174   ar
    22   135   136    1
    23   175   176   ar
    24   153   154    1
    25   136   137    2
    26   155   154    1
    27   155   158   am
    28   174   176   ar
    29   159   162    1
    30   159   158    1
    31   162   163    1
    32   154   157    1
    33    54    53    2
    34   145   146    1
    35    51    52    1
    36    59    60    1
    37    52    53    1
    38    52    55    1
    39   125   126    1
    40   163   165   ar
    41   163   164   ar
    42   148   147    2
    43   123   122    2
    44   119   120    2
    45   119   118    1
    46   122   121    1
    47   122   124   am
    48   146   147    1
    49   146   149    1
    50   121   118    1
    51    56    55    1
    52    56    57    1
    53    62    61    2
    54   126   127    1
    55   126   129    1
    56    60    61    1
    57    60    63    1
    58    45    44    2
    59   118   117    1
    60   127   128    2
    61    43    42    1
    62    43    46    1
    63    43    44    1
    64    64    63    1
    65    64    66    1
    66    63    65    1
    67    50    48   ar
    68    47    46    1
    69    47    48    1
    70   149   150    1
    71   150   152    1
    72   150   151    1
    73    58    57    1
    74    48    49   ar
    75   129   130    1
    76   117   115   am
    77   116   115    2
    78    88    87   ar
    79   130   131    1
    80   115   114    1
    81   133   131   ar
    82    89    87   ar
    83   131   132   ar
    84    87    86    1
    85    33    32    1
    86   114   113    1
    87   106   103    1
    88    34    35    1
    89    37    36    2
    90    36    35    1
    91    86    85    1
    92    35    38    1
    93    85    82    1
    94    32    31    1
    95    79    78    1
    96   103   102    1
    97   103   104    1
    98    78    80    1
    99    78    75    1
   100    84    83    2
   101    31    30    1
   102    81    82    1
   103    81    76   am
   104    82    83    1
   105   102    92   am
   106    38    39    1
   107   104   105    2
   108   104   107   am
   109    83    90   am
   110    40    39    1
   111    72    71    1
   112    93    92    2
   113    92    91    1
   114    75    76    1
   115    75    74    1
   116   107   108    1
   117    39    41    1
   118    90    91    1
   119    76    77    2
   120   109   108    1
   121   109   110    2
   122    91    94    1
   123    30    29    1
   124    73    71    1
   125    71    68    1
   126    19    17    1
   127   108   111    1
   128   112   111    1
   129    12    11    2
   130    29    26    1
   131    24    21    1
   132    11    10    1
   133    10     9    1
   134    70    69    2
   135    18    17    1
   136    17    14    1
   137    68    69    1
   138    68    67    1
   139    94    95    1
   140     4     3    2
   141    96    95   ar
   142    96    98   ar
   143    26    25    1
   144    26    27    1
   145    95    97   ar
   146    23    22    2
   147     9     3   am
   148    98   100   ar
   149     3     2    1
   150    21    20    1
   151    21    22    1
   152    27    28    2
   153    97    99   ar
   154    13    14    1
   155     5     2    1
   156     5     6    1
   157    14    15    1
   158     7     6    1
   159   100    99   ar
   160   100   101    1
   161     2     1    1
   162     6     8    1
   163    15    16    2
