@<TRIPOS>MOLECULE
tmp/6c19A00.pdb
 180 167 0 0 0
SMALL
GASTEIGER

@<TRIPOS>ATOM
      1  N        -19.7310  -16.9760   17.9580 N.3    21  LEU21      -0.1231
      2  CA       -20.3830  -16.0390   17.0310 C.3    21  LEU21       0.1693
      3  C        -20.9290  -16.6600   15.7450 C.2    21  LEU21       0.2592
      4  O        -21.8010  -16.0730   15.1200 O.2    21  LEU21      -0.2718
      5  CB       -19.4070  -14.9440   16.6280 C.3    21  LEU21       0.0284
      6  CG       -19.1090  -13.8760   17.6720 C.3    21  LEU21       0.0019
      7  CD1      -18.1840  -12.8240   17.0560 C.3    21  LEU21       0.0001
      8  CD2      -20.3940  -13.2330   18.1730 C.3    21  LEU21       0.0001
      9  N        -20.4040  -17.8190   15.3540 N.am   22  GLY22      -0.1957
     10  CA       -20.6970  -18.4340   14.0590 C.3    22  GLY22       0.1869
     11  C        -19.5100  -19.2260   13.5290 C.2    22  GLY22       0.2309
     12  O        -18.3560  -18.8500   13.7630 O.2    22  GLY22      -0.2863
     13  N        -15.6800  -18.9010   14.8480 N.3    25  VAL25      -0.1245
     14  CA       -15.4170  -17.5600   15.3370 C.3    25  VAL25       0.1561
     15  C        -16.0760  -17.4010   16.7030 C.2    25  VAL25       0.2260
     16  O        -17.2320  -17.7900   16.8770 O.2    25  VAL25      -0.2867
     17  CB       -15.9830  -16.4970   14.3940 C.3    25  VAL25       0.0252
     18  CG1      -15.7340  -15.0970   14.9370 C.3    25  VAL25       0.0019
     19  CG2      -15.3900  -16.6300   13.0040 C.3    25  VAL25       0.0019
     20  N        -13.1170  -10.3190   17.8360 N.3    45  ALA45      -0.1245
     21  CA       -13.4780  -11.6280   17.2930 C.3    45  ALA45       0.1562
     22  C        -12.2250  -12.4580   17.0720 C.2    45  ALA45       0.2260
     23  O        -11.1880  -11.9370   16.6570 O.2    45  ALA45      -0.2867
     24  CB       -14.2340  -11.4890   15.9830 C.3    45  ALA45       0.0290
     25  N        -10.8240  -16.0970   15.4010 N.3    47  LYS47      -0.1245
     26  CA       -11.1040  -17.2090   14.5250 C.3    47  LYS47       0.1561
     27  C        -10.1180  -18.3050   14.8360 C.2    47  LYS47       0.2260
     28  O         -8.9370  -18.0320   14.9890 O.2    47  LYS47      -0.2867
     29  CB       -10.9760  -16.7540   13.0720 C.3    47  LYS47       0.0271
     30  CG       -11.3210  -17.7930   12.0140 C.3    47  LYS47       0.0035
     31  CD       -11.4000  -17.1170   10.6200 C.3    47  LYS47       0.0206
     32  CE       -11.9220  -18.0700    9.5660 C.3    47  LYS47       0.1093
     33  NZ       -12.0520  -17.3910    8.2400 N.3    47  LYS47      -0.1314
     34  N         -6.1510  -20.8140    6.8130 N.3    61  LEU61      -0.1245
     35  CA        -6.2680  -19.9130    7.9610 C.3    61  LEU61       0.1561
     36  C         -5.0110  -19.0660    8.0890 C.2    61  LEU61       0.2260
     37  O         -5.0660  -17.8910    8.3770 O.2    61  LEU61      -0.2867
     38  CB        -6.5020  -20.7140    9.2510 C.3    61  LEU61       0.0270
     39  CG        -6.6270  -19.9150   10.5510 C.3    61  LEU61       0.0019
     40  CD1       -7.8280  -18.9990   10.4820 C.3    61  LEU61       0.0001
     41  CD2       -6.7150  -20.8090   11.7680 C.3    61  LEU61       0.0001
     42  N         -5.0080  -16.5730    5.1250 N.3    64  GLU64      -0.1245
     43  CA        -5.8940  -15.4470    5.4190 C.3    64  GLU64       0.1567
     44  C         -5.1580  -14.4570    6.3120 C.2    64  GLU64       0.2260
     45  O         -5.0810  -13.2900    6.0000 O.2    64  GLU64      -0.2867
     46  CB        -7.1790  -15.8910    6.0840 C.3    64  GLU64       0.0388
     47  CG        -8.1840  -14.7770    6.2510 C.3    64  GLU64       0.1160
     48  CD        -9.5530  -15.2630    6.7090 C.2    64  GLU64       0.3649
     49  OE1       -9.6610  -16.2670    7.4440 O.co2  64  GLU64      -0.2457
     50  OE2      -10.5390  -14.6160    6.3550 O.co2  64  GLU64      -0.2457
     51  N         -4.0820  -10.5580    5.4040 N.3    68  MET68      -0.1245
     52  CA        -4.6030   -9.4310    6.1700 C.3    68  MET68       0.1570
     53  C         -3.4430   -8.5890    6.7410 C.2    68  MET68       0.2261
     54  O         -3.5170   -7.3670    6.7470 O.2    68  MET68      -0.2867
     55  CB        -5.5230   -9.8930    7.2850 C.3    68  MET68       0.0387
     56  CG        -6.8400  -10.4510    6.7870 C.3    68  MET68       0.0595
     57  SD        -7.8780  -10.9270    8.1720 S.3    68  MET68      -0.1393
     58  CE        -6.9430  -12.3420    8.6970 C.3    68  MET68       0.0692
     59  N        -12.8100   -5.2240    7.9640 N.3    78  ILE78      -0.1245
     60  CA       -12.5600   -5.9030    9.2060 C.3    78  ILE78       0.1561
     61  C        -11.0390   -6.0390    9.3490 C.2    78  ILE78       0.2260
     62  O        -10.3990   -6.6790    8.5240 O.2    78  ILE78      -0.2867
     63  CB       -13.2120   -7.2980    9.2200 C.3    78  ILE78       0.0252
     64  CG1      -14.7520   -7.1900    9.3490 C.3    78  ILE78       0.0019
     65  CG2      -12.6010   -8.1390   10.3240 C.3    78  ILE78       0.0019
     66  CD1      -15.2930   -6.8230   10.7130 C.3    78  ILE78       0.0001
     67  N         -6.5690  -16.2130   15.3580 N.3    92  VAL92      -0.1245
     68  CA        -6.4770  -14.9640   14.6040 C.3    92  VAL92       0.1561
     69  C         -7.4900  -13.9650   15.1660 C.2    92  VAL92       0.2260
     70  O         -8.6790  -14.2750   15.2630 O.2    92  VAL92      -0.2867
     71  CB        -6.7390  -15.2050   13.1220 C.3    92  VAL92       0.0252
     72  CG1       -6.3770  -13.9670   12.2920 C.3    92  VAL92       0.0019
     73  CG2       -5.9170  -16.3990   12.6450 C.3    92  VAL92       0.0019
     74  N         -9.3470  -10.3470   15.1750 N.3    94  VAL94      -0.1231
     75  CA        -9.8110   -9.2820   14.3260 C.3    94  VAL94       0.1692
     76  C        -10.8920   -8.4720   15.0240 C.2    94  VAL94       0.2592
     77  O        -11.3430   -8.8140   16.1220 O.2    94  VAL94      -0.2718
     78  CB       -10.3470   -9.8180   12.9810 C.3    94  VAL94       0.0266
     79  CG1       -9.3640  -10.8020   12.3790 C.3    94  VAL94       0.0020
     80  CG2      -11.7120  -10.4630   13.1510 C.3    94  VAL94       0.0020
     81  N        -11.2770   -7.3750   14.3920 N.am   95  GLU95      -0.1966
     82  CA       -12.2830   -6.4830   14.9360 C.3    95  GLU95       0.1733
     83  C        -13.6360   -7.1410   15.0820 C.2    95  GLU95       0.2616
     84  O        -14.0080   -7.9530   14.2300 O.2    95  GLU95      -0.2715
     85  CB       -12.4180   -5.2580   14.0430 C.3    95  GLU95       0.0429
     86  CG       -11.2530   -4.3160   14.2290 C.3    95  GLU95       0.1163
     87  CD       -11.2380   -3.2070   13.2160 C.2    95  GLU95       0.3649
     88  OE1      -11.8130   -3.3850   12.1250 O.co2  95  GLU95      -0.2457
     89  OE2      -10.6450   -2.1600   13.5150 O.co2  95  GLU95      -0.2457
     90  N        -14.3700   -6.7840   16.1470 N.am   96  TYR96      -0.1960
     91  CA       -15.6920   -7.3140   16.3660 C.3    96  TYR96       0.1771
     92  C        -16.7830   -6.3370   15.9120 C.2    96  TYR96       0.2619
     93  O        -16.7130   -5.1320   16.1670 O.2    96  TYR96      -0.2715
     94  CB       -15.8680   -7.6590   17.8520 C.3    96  TYR96       0.0574
     95  CG       -17.2630   -7.9800   18.3340 C.ar   96  TYR96      -0.0198
     96  CD1      -17.9090   -9.1290   17.9220 C.ar   96  TYR96      -0.0009
     97  CD2      -17.8950   -7.1850   19.2820 C.ar   96  TYR96      -0.0009
     98  CE1      -19.1560   -9.4500   18.3720 C.ar   96  TYR96       0.0417
     99  CE2      -19.1590   -7.5120   19.7600 C.ar   96  TYR96       0.0417
    100  CZ       -19.7690   -8.6460   19.2940 C.ar   96  TYR96       0.1957
    101  OH       -20.9880   -9.0010   19.7610 O.3    96  TYR96      -0.2866
    102  N        -17.8110   -6.8920   15.2810 N.am   97  ALA97      -0.1963
    103  CA       -18.9410   -6.1160   14.7670 C.3    97  ALA97       0.1728
    104  C        -20.1950   -6.5990   15.4860 C.2    97  ALA97       0.2616
    105  O        -20.7210   -7.6600   15.1600 O.2    97  ALA97      -0.2715
    106  CB       -19.0500   -6.3100   13.2490 C.3    97  ALA97       0.0334
    107  N        -20.6190   -5.8650   16.5050 N.am   98  SER98      -0.1950
    108  CA       -21.6810   -6.3090   17.4160 C.3    98  SER98       0.1924
    109  C        -23.0480   -6.4020   16.7530 C.2    98  SER98       0.2314
    110  O        -23.9030   -7.1510   17.1880 O.2    98  SER98      -0.2863
    111  CB       -21.7730   -5.3720   18.6290 C.3    98  SER98       0.2116
    112  OG       -22.2130   -4.0890   18.2130 O.3    98  SER98      -0.2180
    113  N        -23.6450   -7.5460   13.7210 N.3   100  GLY100     -0.1210
    114  CA       -23.7380   -8.6690   12.7750 C.3   100  GLY100      0.1956
    115  C        -23.5350   -8.2590   11.3230 C.2   100  GLY100      0.2611
    116  O        -23.0130   -7.1870   11.0310 O.2   100  GLY100     -0.2717
    117  N        -23.9210   -9.1350   10.4120 N.am  101  ASN101     -0.1974
    118  CA       -23.7570   -8.8840    9.0060 C.3   101  ASN101      0.1688
    119  C        -24.8870   -7.9900    8.4290 C.2   101  ASN101      0.2292
    120  O        -25.9720   -7.8660    8.9970 O.2   101  ASN101     -0.2864
    121  CB       -23.5680  -10.2000    8.2280 C.3   101  ASN101      0.1181
    122  CG       -24.8550  -11.0080    8.0840 C.2   101  ASN101      0.2629
    123  OD1      -25.7950  -10.6240    7.3810 O.2   101  ASN101     -0.2716
    124  ND2      -24.8730  -12.1610    8.7030 N.am  101  ASN101     -0.0877
    125  N        -28.6080   -9.3410    7.7040 N.3   104  GLU104     -0.1245
    126  CA       -29.4450   -9.4760    8.9080 C.3   104  GLU104      0.1567
    127  C        -29.8080   -8.1110    9.5020 C.2   104  GLU104      0.2260
    128  O        -30.9400   -7.9000    9.9100 O.2   104  GLU104     -0.2867
    129  CB       -28.7450  -10.3350    9.9560 C.3   104  GLU104      0.0388
    130  CG       -28.5680  -11.7500    9.4620 C.3   104  GLU104      0.1160
    131  CD       -27.7310  -12.6380   10.3580 C.2   104  GLU104      0.3649
    132  OE1      -27.4570  -12.2700   11.5270 O.co2 104  GLU104     -0.2457
    133  OE2      -27.3520  -13.7290    9.8660 O.co2 104  GLU104     -0.2457
    134  N        -24.0820  -10.2760    3.0790 N.3   155  ARG155     -0.1245
    135  CA       -23.6660  -11.2420    4.1070 C.3   155  ARG155      0.1563
    136  C        -22.1980  -11.0180    4.4900 C.2   155  ARG155      0.2260
    137  O        -21.8400  -11.2640    5.6190 O.2   155  ARG155     -0.2867
    138  CB       -23.9370  -12.7220    3.7240 C.3   155  ARG155      0.0307
    139  CG       -22.9070  -13.3160    2.7900 C.3   155  ARG155      0.0489
    140  CD       -23.4120  -14.5280    2.0530 C.3   155  ARG155      0.2205
    141  NE       -22.5760  -14.7300    0.8790 N.pl3 155  ARG155     -0.0865
    142  CZ       -22.7610  -15.6150   -0.0840 C.cat 155  ARG155      0.5346
    143  NH1      -23.8120  -16.4460   -0.0910 N.pl3 155  ARG155      0.1354
    144  NH2      -21.8880  -15.7250   -1.0930 N.pl3 155  ARG155      0.1354
    145  N        -19.9880   -6.5330    7.6460 N.3   158  LEU158     -0.1245
    146  CA       -20.4180   -6.5500    9.0480 C.3   158  LEU158      0.1561
    147  C        -20.5700   -5.1300    9.5640 C.2   158  LEU158      0.2260
    148  O        -20.0100   -4.2040    8.9940 O.2   158  LEU158     -0.2867
    149  CB       -19.4470   -7.3180    9.9100 C.3   158  LEU158      0.0270
    150  CG       -19.1690   -8.7260    9.4560 C.3   158  LEU158      0.0019
    151  CD1      -18.1350   -9.3390   10.3840 C.3   158  LEU158      0.0001
    152  CD2      -20.4430   -9.5630    9.4990 C.3   158  LEU158      0.0001
    153  N        -16.0390   -7.9150    4.9380 N.3   168  ALA168     -0.1231
    154  CA       -15.6150   -9.1270    5.5890 C.3   168  ALA168      0.1694
    155  C        -15.0890  -10.1270    4.5790 C.2   168  ALA168      0.2592
    156  O        -15.4580  -10.0960    3.4120 O.2   168  ALA168     -0.2718
    157  CB       -16.7790   -9.7440    6.3590 C.3   168  ALA168      0.0304
    158  N        -14.2480  -11.0340    5.0570 N.am  169  ASP169     -0.1960
    159  CA       -13.7720  -12.1810    4.2810 C.3   169  ASP169      0.1840
    160  C        -13.1610  -11.8270    2.9330 C.2   169  ASP169      0.2622
    161  O        -13.3900  -12.4920    1.9510 O.2   169  ASP169     -0.2715
    162  CB       -14.9040  -13.2040    4.1190 C.3   169  ASP169      0.1450
    163  CG       -15.1740  -13.9910    5.4080 C.2   169  ASP169      0.3671
    164  OD1      -14.3690  -13.8880    6.3610 O.co2 169  ASP169     -0.2456
    165  OD2      -16.1740  -14.7380    5.4640 O.co2 169  ASP169     -0.2456
    166  N        -12.3670  -10.7740    2.9200 N.am  170  PHE170     -0.1960
    167  CA       -11.6830  -10.2870    1.7060 C.3   170  PHE170      0.1771
    168  C        -10.3200  -10.9120    1.5250 C.2   170  PHE170      0.2620
    169  O         -9.5650  -10.4990    0.6360 O.2   170  PHE170     -0.2715
    170  CB       -11.4750   -8.7770    1.7840 C.3   170  PHE170      0.0574
    171  CG       -10.7610   -8.3390    3.0230 C.ar  170  PHE170     -0.0200
    172  CD1       -9.3750   -8.2880    3.0570 C.ar  170  PHE170     -0.0042
    173  CD2      -11.4650   -8.0000    4.1540 C.ar  170  PHE170     -0.0042
    174  CE1       -8.7060   -7.8900    4.2160 C.ar  170  PHE170     -0.0003
    175  CE2      -10.8190   -7.6000    5.2980 C.ar  170  PHE170     -0.0003
    176  CZ        -9.4400   -7.5390    5.3370 C.ar  170  PHE170     -0.0000
    177  N         -9.9970  -11.8940    2.3560 N.am  171  GLY171     -0.1954
    178  CA        -8.6570  -12.4780    2.3430 C.3   171  GLY171      0.1869
    179  C         -8.5320  -13.9140    1.9170 C.2   171  GLY171      0.2309
    180  O         -7.4500  -14.4930    2.0290 O.2   171  GLY171     -0.2863
@<TRIPOS>BOND
     1   144   142    1
     2   143   142    1
     3   142   141    2
     4   169   168    2
     5   141   140    1
     6   168   167    1
     7   168   177   am
     8   167   170    1
     9   167   166    1
    10   170   171    1
    11   179   180    2
    12   179   178    1
    13   161   160    2
    14   140   139    1
    15   178   177    1
    16   139   138    1
    17   166   160   am
    18   160   159    1
    19   171   172   ar
    20   171   173   ar
    21   172   174   ar
    22   134   135    1
    23   156   155    2
    24   138   135    1
    25   135   136    1
    26   162   159    1
    27   162   163    1
    28   173   175   ar
    29   174   176   ar
    30   159   158    1
    31   136   137    2
    32   155   158   am
    33   155   154    1
    34   153   154    1
    35    42    43    1
    36   175   176   ar
    37    51    52    1
    38   163   165   ar
    39   163   164   ar
    40    43    46    1
    41    43    44    1
    42   154   157    1
    43    45    44    2
    44    46    47    1
    45    52    53    1
    46    52    55    1
    47    47    48    1
    48    50    48   ar
    49    48    49   ar
    50    53    54    2
    51    56    55    1
    52    56    57    1
    53    34    35    1
    54   123   122    2
    55   145   146    1
    56   125   126    1
    57    35    36    1
    58    35    38    1
    59    59    60    1
    60   122   121    1
    61   122   124   am
    62    36    37    2
    63    57    58    1
    64   121   118    1
    65    33    32    1
    66   119   120    2
    67   119   118    1
    68    62    61    2
    69   126   127    1
    70   126   129    1
    71   148   147    2
    72   118   117    1
    73   146   147    1
    74   146   149    1
    75    60    63    1
    76    60    61    1
    77    63    64    1
    78    63    65    1
    79    38    39    1
    80    64    66    1
    81   150   152    1
    82   150   149    1
    83   150   151    1
    84   130   129    1
    85   130   131    1
    86   127   128    2
    87    32    31    1
    88   133   131   ar
    89   131   132   ar
    90   117   115   am
    91    40    39    1
    92    39    41    1
    93    31    30    1
    94   116   115    2
    95   115   114    1
    96    30    29    1
    97    88    87   ar
    98    72    71    1
    99    79    78    1
   100    73    71    1
   101   114   113    1
   102    78    80    1
   103    78    75    1
   104    19    17    1
   105    29    26    1
   106    71    68    1
   107    87    89   ar
   108    87    86    1
   109   106   103    1
   110    11    12    2
   111    11    10    1
   112    85    86    1
   113    85    82    1
   114    10     9    1
   115    84    83    2
   116    75    76    1
   117    75    74    1
   118    81    82    1
   119    81    76   am
   120    17    18    1
   121    17    14    1
   122    26    27    1
   123    26    25    1
   124    68    69    1
   125    68    67    1
   126   103   102    1
   127   103   104    1
   128    27    28    2
   129    13    14    1
   130    82    83    1
   131    76    77    2
   132    83    90   am
   133     4     3    2
   134   105   104    2
   135    69    70    2
   136   102    92   am
   137    14    15    1
   138     9     3   am
   139   104   107   am
   140     3     2    1
   141    92    93    2
   142    92    91    1
   143    24    21    1
   144    90    91    1
   145    91    94    1
   146   107   108    1
   147     5     2    1
   148     5     6    1
   149    23    22    2
   150    15    16    2
   151   109   110    2
   152   109   108    1
   153     2     1    1
   154     7     6    1
   155    22    21    1
   156    21    20    1
   157   108   111    1
   158     6     8    1
   159    94    95    1
   160    96    95   ar
   161    96    98   ar
   162   112   111    1
   163    95    97   ar
   164    98   100   ar
   165    97    99   ar
   166   100    99   ar
   167   100   101    1
