@<TRIPOS>MOLECULE
tmp/6c1cB00.pdb
 184 171 0 0 0
SMALL
GASTEIGER

@<TRIPOS>ATOM
      1  N        -50.9340   38.2280   39.7940 N.3    22  LEU22      -0.1231
      2  CA       -51.3000   38.9510   38.5630 C.3    22  LEU22       0.1693
      3  C        -51.9090   38.0500   37.4910 C.2    22  LEU22       0.2592
      4  O        -52.7030   38.5070   36.6910 O.2    22  LEU22      -0.2718
      5  CB       -50.0810   39.6780   37.9840 C.3    22  LEU22       0.0284
      6  CG       -49.4870   40.7730   38.8720 C.3    22  LEU22       0.0019
      7  CD1      -48.2190   41.3480   38.2620 C.3    22  LEU22       0.0001
      8  CD2      -50.5040   41.8730   39.1310 C.3    22  LEU22       0.0001
      9  N        -51.5480   36.7750   37.4810 N.am   23  GLY23      -0.1957
     10  CA       -51.9900   35.8630   36.4420 C.3    23  GLY23       0.1869
     11  C        -51.2010   34.5700   36.5340 C.2    23  GLY23       0.2309
     12  O        -50.1430   34.5230   37.1670 O.2    23  GLY23      -0.2863
     13  N        -47.4780   34.4560   38.0610 N.3    29  VAL29      -0.1245
     14  CA       -46.8540   35.7620   38.0400 C.3    29  VAL29       0.1561
     15  C        -47.3620   36.5650   39.2050 C.2    29  VAL29       0.2260
     16  O        -48.5590   36.6430   39.4240 O.2    29  VAL29      -0.2867
     17  CB       -47.1840   36.5110   36.7400 C.3    29  VAL29       0.0252
     18  CG1      -46.5650   37.9080   36.7550 C.3    29  VAL29       0.0019
     19  CG2      -46.7060   35.7090   35.5340 C.3    29  VAL29       0.0019
     20  N        -42.7280   42.5330   37.7720 N.3    47  ALA47      -0.1245
     21  CA       -43.4420   41.2490   37.7190 C.3    47  ALA47       0.1562
     22  C        -42.4480   40.1200   37.8640 C.2    47  ALA47       0.2260
     23  O        -41.3560   40.1690   37.3100 O.2    47  ALA47      -0.2867
     24  CB       -44.1730   41.0970   36.4000 C.3    47  ALA47       0.0290
     25  N        -42.0250   35.9040   37.6780 N.3    49  LYS49      -0.1245
     26  CA       -42.5550   34.6170   37.3330 C.3    49  LYS49       0.1561
     27  C        -41.8310   33.5430   38.1430 C.2    49  LYS49       0.2260
     28  O        -40.5920   33.5360   38.2550 O.2    49  LYS49      -0.2867
     29  CB       -42.4420   34.3450   35.8270 C.3    49  LYS49       0.0271
     30  CG       -43.2370   33.1170   35.4120 C.3    49  LYS49       0.0035
     31  CD       -43.0020   32.6750   33.9700 C.3    49  LYS49       0.0206
     32  CE       -44.1950   32.9690   33.0870 C.3    49  LYS49       0.1093
     33  NZ       -43.9490   32.5550   31.6810 N.3    49  LYS49      -0.1314
     34  N        -39.2460   27.0790   32.4210 N.3    63  LEU63      -0.1245
     35  CA       -39.0220   28.4220   33.0110 C.3    63  LEU63       0.1561
     36  C        -37.5730   28.8840   32.8350 C.2    63  LEU63       0.2260
     37  O        -37.2980   30.0700   32.5620 O.2    63  LEU63      -0.2867
     38  CB       -39.4410   28.4730   34.4920 C.3    63  LEU63       0.0270
     39  CG       -39.4050   29.8740   35.1220 C.3    63  LEU63       0.0019
     40  CD1      -40.2030   30.8670   34.2950 C.3    63  LEU63       0.0001
     41  CD2      -39.9310   29.8720   36.5430 C.3    63  LEU63       0.0001
     42  N        -37.1130   30.0140   29.0340 N.3    66  GLU66      -0.1245
     43  CA       -37.6790   31.3540   28.8350 C.3    66  GLU66       0.1567
     44  C        -36.7090   32.4090   29.3540 C.2    66  GLU66       0.2260
     45  O        -36.3520   33.3230   28.6250 O.2    66  GLU66      -0.2867
     46  CB       -39.0500   31.5090   29.4990 C.3    66  GLU66       0.0388
     47  CG       -39.6840   32.8620   29.2110 C.3    66  GLU66       0.1160
     48  CD       -41.1590   32.8940   29.5060 C.2    66  GLU66       0.3649
     49  OE1      -41.5440   32.6210   30.6490 O.co2  66  GLU66      -0.2457
     50  OE2      -41.9450   33.1860   28.5870 O.co2  66  GLU66      -0.2457
     51  N        -33.7400   32.5420   27.0680 N.3    69  MET69      -0.1230
     52  CA       -34.1160   33.1630   25.7870 C.3    69  MET69       0.1702
     53  C        -34.1310   34.6920   25.9370 C.2    69  MET69       0.2592
     54  O        -33.6010   35.4130   25.0960 O.2    69  MET69      -0.2718
     55  CB       -35.4490   32.5970   25.2810 C.3    69  MET69       0.0401
     56  CG       -36.1180   33.3770   24.1490 C.3    69  MET69       0.0596
     57  SD       -37.1040   34.7900   24.7300 S.3    69  MET69      -0.1393
     58  CE       -38.2350   34.0430   25.9050 C.3    69  MET69       0.0692
     59  N        -34.6920   35.1880   27.0310 N.am   70  MET70      -0.1979
     60  CA       -34.7630   36.6410   27.2440 C.3    70  MET70       0.1605
     61  C        -33.3890   37.2790   27.3340 C.2    70  MET70       0.2287
     62  O        -33.1630   38.3760   26.8070 O.2    70  MET70      -0.2864
     63  CB       -35.5890   36.9580   28.4830 C.3    70  MET70       0.0413
     64  CG       -37.0470   36.5770   28.3260 C.3    70  MET70       0.0598
     65  SD       -38.0700   37.0610   29.7120 S.3    70  MET70      -0.1393
     66  CE       -38.1910   38.8320   29.4690 C.3    70  MET70       0.0692
     67  N        -41.3380   43.4120   26.8060 N.3    80  ILE80      -0.1245
     68  CA       -41.1710   43.1390   28.2330 C.3    80  ILE80       0.1561
     69  C        -39.7490   42.6290   28.4650 C.2    80  ILE80       0.2260
     70  O        -39.3910   41.5500   27.9670 O.2    80  ILE80      -0.2867
     71  CB       -42.1790   42.0800   28.7330 C.3    80  ILE80       0.0252
     72  CG1      -43.6210   42.5950   28.6690 C.3    80  ILE80       0.0019
     73  CG2      -41.8450   41.6520   30.1570 C.3    80  ILE80       0.0019
     74  CD1      -43.9630   43.6230   29.7330 C.3    80  ILE80       0.0001
     75  N        -38.0610   34.8050   38.1720 N.3    94  VAL94      -0.1245
     76  CA       -37.6400   35.4840   36.9730 C.3    94  VAL94       0.1561
     77  C        -38.3040   36.8690   36.9870 C.2    94  VAL94       0.2260
     78  O        -39.5130   36.9930   36.9490 O.2    94  VAL94      -0.2867
     79  CB       -37.9710   34.6730   35.7070 C.3    94  VAL94       0.0252
     80  CG1      -37.4160   35.3630   34.4810 C.3    94  VAL94       0.0019
     81  CG2      -37.3750   33.2750   35.7960 C.3    94  VAL94       0.0019
     82  N        -39.1620   40.5270   35.6680 N.3    96  VAL96      -0.1231
     83  CA       -39.2740   41.2990   34.4370 C.3    96  VAL96       0.1692
     84  C        -39.9870   42.6500   34.6880 C.2    96  VAL96       0.2592
     85  O        -40.4160   42.9430   35.8080 O.2    96  VAL96      -0.2718
     86  CB       -39.9890   40.4690   33.3430 C.3    96  VAL96       0.0266
     87  CG1      -39.3850   39.0710   33.2390 C.3    96  VAL96       0.0020
     88  CG2      -41.4760   40.3510   33.6170 C.3    96  VAL96       0.0020
     89  N        -40.1250   43.4540   33.6390 N.am   97  GLU97      -0.1966
     90  CA       -40.8600   44.7320   33.7250 C.3    97  GLU97       0.1733
     91  C        -42.3570   44.5500   33.9950 C.2    97  GLU97       0.2616
     92  O        -42.9760   43.5920   33.5200 O.2    97  GLU97      -0.2715
     93  CB       -40.6770   45.5410   32.4410 C.3    97  GLU97       0.0429
     94  CG       -39.2210   45.8620   32.1470 C.3    97  GLU97       0.1163
     95  CD       -39.0370   46.6090   30.8430 C.2    97  GLU97       0.3649
     96  OE1      -39.5330   46.1390   29.7940 O.co2  97  GLU97      -0.2457
     97  OE2      -38.3740   47.6640   30.8710 O.co2  97  GLU97      -0.2457
     98  N        -42.9210   45.4900   34.7530 N.am   98  TYR98      -0.1960
     99  CA       -44.3090   45.4580   35.1830 C.3    98  TYR98       0.1771
    100  C        -45.1320   46.4180   34.3390 C.2    98  TYR98       0.2619
    101  O        -44.7070   47.5350   34.0940 O.2    98  TYR98      -0.2715
    102  CB       -44.3980   45.8690   36.6560 C.3    98  TYR98       0.0574
    103  CG       -45.7960   46.1510   37.1550 C.ar   98  TYR98      -0.0198
    104  CD1      -46.7530   45.1530   37.1660 C.ar   98  TYR98      -0.0009
    105  CD2      -46.1530   47.4170   37.6470 C.ar   98  TYR98      -0.0009
    106  CE1      -48.0290   45.3810   37.6210 C.ar   98  TYR98       0.0417
    107  CE2      -47.4450   47.6650   38.1110 C.ar   98  TYR98       0.0417
    108  CZ       -48.3740   46.6320   38.1000 C.ar   98  TYR98       0.1957
    109  OH       -49.6590   46.8240   38.5430 O.3    98  TYR98      -0.2866
    110  N        -46.3050   45.9730   33.9020 N.am   99  ALA99      -0.1963
    111  CA       -47.1870   46.7770   33.0750 C.3    99  ALA99       0.1728
    112  C        -48.5160   46.9940   33.7920 C.2    99  ALA99       0.2616
    113  O        -49.3570   46.0960   33.8030 O.2    99  ALA99      -0.2715
    114  CB       -47.4090   46.0890   31.7380 C.3    99  ALA99       0.0334
    115  N        -48.7000   48.1790   34.3810 N.am  100  SER100     -0.1950
    116  CA       -49.8750   48.4520   35.2510 C.3   100  SER100      0.1924
    117  C        -51.2280   48.5010   34.5530 C.2   100  SER100      0.2314
    118  O        -52.2620   48.2090   35.1700 O.2   100  SER100     -0.2863
    119  CB       -49.6980   49.7840   35.9800 C.3   100  SER100      0.2116
    120  OG       -49.3650   50.7880   35.0490 O.3   100  SER100     -0.2180
    121  N        -52.6010   46.7750   32.0470 N.3   102  GLY102     -0.1210
    122  CA       -53.1890   45.5880   31.4290 C.3   102  GLY102      0.1956
    123  C        -52.6630   45.3060   30.0330 C.2   102  GLY102      0.2611
    124  O        -51.7740   45.9990   29.5360 O.2   102  GLY102     -0.2717
    125  N        -53.2190   44.2840   29.3930 N.am  103  ASN103     -0.1974
    126  CA       -52.8930   44.0230   27.9970 C.3   103  ASN103      0.1688
    127  C        -53.5480   45.0820   27.1120 C.2   103  ASN103      0.2292
    128  O        -54.3770   45.8700   27.5790 O.2   103  ASN103     -0.2864
    129  CB       -53.3140   42.6220   27.5830 C.3   103  ASN103      0.1181
    130  CG       -54.8130   42.4730   27.4880 C.2   103  ASN103      0.2629
    131  OD1      -55.5210   43.4260   27.1840 O.2   103  ASN103     -0.2716
    132  ND2      -55.3030   41.2770   27.7450 N.am  103  ASN103     -0.0877
    133  N        -57.5800   45.1390   26.7210 N.3   106  GLU106     -0.1245
    134  CA       -58.2520   45.6890   27.9030 C.3   106  GLU106      0.1567
    135  C        -58.0570   47.2010   28.0090 C.2   106  GLU106      0.2260
    136  O        -58.9780   47.9300   28.3690 O.2   106  GLU106     -0.2867
    137  CB       -57.7240   45.0270   29.1750 C.3   106  GLU106      0.0388
    138  CG       -57.9770   43.5240   29.2600 C.3   106  GLU106      0.1160
    139  CD       -57.1390   42.8390   30.3310 C.2   106  GLU106      0.3649
    140  OE1      -55.9970   43.2830   30.6160 O.co2 106  GLU106     -0.2457
    141  OE2      -57.6180   41.8310   30.8850 O.co2 106  GLU106     -0.2457
    142  N        -53.8410   40.9650   23.0480 N.3   147  ARG147     -0.1245
    143  CA       -53.7270   40.3030   24.3540 C.3   147  ARG147      0.1563
    144  C        -52.2740   39.9980   24.7490 C.2   147  ARG147      0.2260
    145  O        -51.9720   39.8610   25.9340 O.2   147  ARG147     -0.2867
    146  CB       -54.5720   39.0070   24.4140 C.3   147  ARG147      0.0307
    147  CG       -54.1400   37.9460   23.4120 C.3   147  ARG147      0.0489
    148  CD       -54.8100   36.5840   23.5950 C.3   147  ARG147      0.2205
    149  NE       -54.4200   35.7100   22.4820 N.pl3 147  ARG147     -0.0865
    150  CZ       -54.9460   35.7590   21.2590 C.cat 147  ARG147      0.5346
    151  NH1      -55.9100   36.6230   20.9630 N.pl3 147  ARG147      0.1354
    152  NH2      -54.5010   34.9490   20.3230 N.pl3 147  ARG147      0.1354
    153  N        -48.5600   44.4280   26.3890 N.3   150  LEU150     -0.1245
    154  CA       -48.8620   45.0350   27.6800 C.3   150  LEU150      0.1561
    155  C        -48.5290   46.5350   27.6620 C.2   150  LEU150      0.2260
    156  O        -47.5850   46.9840   26.9710 O.2   150  LEU150     -0.2867
    157  CB       -48.0830   44.3430   28.8010 C.3   150  LEU150      0.0270
    158  CG       -48.3440   42.8380   29.0300 C.3   150  LEU150      0.0019
    159  CD1      -47.2600   42.1790   29.8650 C.3   150  LEU150      0.0001
    160  CD2      -49.6740   42.5890   29.6920 C.3   150  LEU150      0.0001
    161  N        -45.4830   41.0010   24.7520 N.3   160  ALA160     -0.1231
    162  CA       -45.4620   39.9630   25.7890 C.3   160  ALA160      0.1694
    163  C        -45.3170   38.5370   25.2040 C.2   160  ALA160      0.2592
    164  O        -45.7650   38.2740   24.0950 O.2   160  ALA160     -0.2718
    165  CB       -46.7380   40.0290   26.6120 C.3   160  ALA160      0.0304
    166  N        -44.7010   37.6390   25.9820 N.am  161  ASP161     -0.1960
    167  CA       -44.6390   36.1940   25.6770 C.3   161  ASP161      0.1840
    168  C        -44.0720   35.8680   24.3150 C.2   161  ASP161      0.2622
    169  O        -44.5610   34.9930   23.6070 O.2   161  ASP161     -0.2715
    170  CB       -46.0120   35.5390   25.8790 C.3   161  ASP161      0.1450
    171  CG       -46.3790   35.4380   27.3410 C.2   161  ASP161      0.3671
    172  OD1      -45.4530   35.3450   28.1640 O.co2 161  ASP161     -0.2456
    173  OD2      -47.5710   35.4760   27.6850 O.co2 161  ASP161     -0.2456
    174  N        -42.9820   36.5500   24.0020 N.am  162  PHE162     -0.1974
    175  CA       -42.3600   36.4820   22.6900 C.3   162  PHE162      0.1639
    176  C        -41.3400   35.3620   22.4710 C.2   162  PHE162      0.2290
    177  O        -40.7640   35.2880   21.4000 O.2   162  PHE162     -0.2864
    178  CB       -41.6610   37.7940   22.4040 C.3   162  PHE162      0.0560
    179  CG       -40.7480   38.2430   23.5000 C.ar  162  PHE162     -0.0200
    180  CD1      -39.4910   37.6710   23.6580 C.ar  162  PHE162     -0.0042
    181  CD2      -41.1390   39.2620   24.3650 C.ar  162  PHE162     -0.0042
    182  CE1      -38.6390   38.1130   24.6470 C.ar  162  PHE162     -0.0003
    183  CE2      -40.2960   39.7000   25.3530 C.ar  162  PHE162     -0.0003
    184  CZ       -39.0450   39.1360   25.4980 C.ar  162  PHE162     -0.0000
@<TRIPOS>BOND
     1   152   150    1
     2   151   150    1
     3   150   149    2
     4   177   176    2
     5   178   175    1
     6   178   179    1
     7   176   175    1
     8   149   148    1
     9   175   174    1
    10   142   143    1
    11   147   148    1
    12   147   146    1
    13   179   180   ar
    14   179   181   ar
    15   169   168    2
    16   180   182   ar
    17   174   168   am
    18   164   163    2
    19    56    57    1
    20    56    55    1
    21   168   167    1
    22   143   146    1
    23   143   144    1
    24   181   183   ar
    25   182   184   ar
    26    57    58    1
    27   144   145    2
    28   161   162    1
    29    54    53    2
    30   163   162    1
    31   163   166   am
    32    55    52    1
    33   183   184   ar
    34   167   170    1
    35   167   166    1
    36    52    53    1
    37    52    51    1
    38   162   165    1
    39   170   171    1
    40    53    59   am
    41   153   154    1
    42   133   134    1
    43    67    68    1
    44    62    61    2
    45   156   155    2
    46    59    60    1
    47   127   128    2
    48   127   126    1
    49   131   130    2
    50    60    61    1
    51    60    63    1
    52   171   173   ar
    53   171   172   ar
    54   130   129    1
    55   130   132   am
    56   129   126    1
    57   155   154    1
    58   154   157    1
    59   134   135    1
    60   134   137    1
    61    70    69    2
    62   126   125    1
    63   135   136    2
    64    68    69    1
    65    68    71    1
    66    64    63    1
    67    64    65    1
    68    50    48   ar
    69    45    44    2
    70    72    71    1
    71    72    74    1
    72    71    73    1
    73   157   158    1
    74    43    42    1
    75    43    44    1
    76    43    46    1
    77   158   160    1
    78   158   159    1
    79   137   138    1
    80    47    46    1
    81    47    48    1
    82   138   139    1
    83   125   123   am
    84    66    65    1
    85    48    49   ar
    86   124   123    2
    87    96    95   ar
    88   123   122    1
    89   139   140   ar
    90   139   141   ar
    91    95    97   ar
    92    95    94    1
    93   122   121    1
    94    33    32    1
    95   114   111    1
    96    94    93    1
    97    34    35    1
    98    93    90    1
    99    37    36    2
   100    36    35    1
   101    35    38    1
   102   111   112    1
   103   111   110    1
   104    32    31    1
   105    87    86    1
   106    86    88    1
   107    86    83    1
   108    92    91    2
   109    89    90    1
   110    89    84   am
   111    90    91    1
   112   112   113    2
   113   112   115   am
   114   110   100   am
   115    31    30    1
   116    91    98   am
   117   101   100    2
   118    40    39    1
   119   100    99    1
   120   115   116    1
   121    83    84    1
   122    83    82    1
   123    80    79    1
   124    38    39    1
   125   117   118    2
   126   117   116    1
   127    84    85    2
   128    98    99    1
   129   120   119    1
   130    39    41    1
   131    99   102    1
   132   116   119    1
   133    30    29    1
   134    19    17    1
   135    79    81    1
   136    79    76    1
   137    29    26    1
   138    24    21    1
   139    10    11    1
   140    10     9    1
   141    11    12    2
   142   102   103    1
   143     4     3    2
   144    17    18    1
   145    17    14    1
   146    78    77    2
   147    76    77    1
   148    76    75    1
   149   103   104   ar
   150   103   105   ar
   151   104   106   ar
   152    23    22    2
   153    26    25    1
   154    26    27    1
   155     9     3   am
   156     3     2    1
   157   106   108   ar
   158   105   107   ar
   159    21    20    1
   160    21    22    1
   161     5     2    1
   162     5     6    1
   163    14    13    1
   164    14    15    1
   165   108   107   ar
   166   108   109    1
   167    27    28    2
   168     7     6    1
   169     2     1    1
   170     6     8    1
   171    15    16    2
