@<TRIPOS>MOLECULE
tmp/6c1eB08.pdb
 86 85 0 0 0
SMALL
GASTEIGER

@<TRIPOS>ATOM
      1  N         33.5090  116.6470   38.1360 N.3    75  PRO75      -0.2102
      2  CA        34.1150  116.9970   36.8520 C.3    75  PRO75       0.1504
      3  C         34.3700  115.7680   35.9990 C.2    75  PRO75       0.2575
      4  O         34.0920  115.7650   34.7900 O.2    75  PRO75      -0.2718
      5  CB        35.4350  117.6610   37.2520 C.3    75  PRO75       0.0282
      6  CG        35.2360  118.1500   38.6060 C.3    75  PRO75       0.0208
      7  CD        34.2920  117.1750   39.2660 C.3    75  PRO75       0.0893
      8  N         34.8960  114.7310   36.6400 N.am   76  TRP76      -0.1977
      9  CA        35.2580  113.5140   35.9400 C.3    76  TRP76       0.1640
     10  C         34.0570  112.8090   35.3420 C.2    76  TRP76       0.2290
     11  O         34.1370  112.2450   34.2600 O.2    76  TRP76      -0.2864
     12  CB        35.9910  112.5740   36.8800 C.3    76  TRP76       0.0576
     13  CG        37.0520  113.2440   37.6430 C.ar   76  TRP76       0.0006
     14  CD1       36.9410  113.7950   38.8740 C.ar   76  TRP76       0.0946
     15  CD2       38.3930  113.4970   37.2050 C.ar   76  TRP76       0.0152
     16  NE1       38.1400  114.3440   39.2570 N.ar   76  TRP76      -0.2442
     17  CE2       39.0500  114.1770   38.2500 C.ar   76  TRP76       0.0810
     18  CE3       39.1050  113.1990   36.0400 C.ar   76  TRP76       0.0012
     19  CZ2       40.3830  114.5660   38.1700 C.ar   76  TRP76       0.0191
     20  CZ3       40.4310  113.5800   35.9630 C.ar   76  TRP76       0.0001
     21  CH2       41.0560  114.2610   37.0190 C.ar   76  TRP76       0.0015
     22  N         32.7870  114.7500   32.3720 N.3    79  PHE79      -0.1241
     23  CA        33.6230  114.3660   31.2380 C.3    79  PHE79       0.1605
     24  C         33.1850  113.0280   30.6430 C.2    79  PHE79       0.2264
     25  O         32.8800  112.9490   29.4560 O.2    79  PHE79      -0.2867
     26  CB        35.1020  114.3010   31.6220 C.3    79  PHE79       0.0534
     27  CG        35.9940  113.9300   30.4660 C.ar   79  PHE79      -0.0203
     28  CD1       36.2410  114.8450   29.4440 C.ar   79  PHE79      -0.0042
     29  CD2       36.5890  112.6780   30.3910 C.ar   79  PHE79      -0.0042
     30  CE1       37.0650  114.5180   28.3520 C.ar   79  PHE79      -0.0003
     31  CE2       37.4110  112.3400   29.3020 C.ar   79  PHE79      -0.0003
     32  CZ        37.6500  113.2710   28.2840 C.ar   79  PHE79      -0.0000
     33  N         40.6620  109.4840   26.8900 N.3   107  PHE107     -0.1241
     34  CA        41.0560  110.2640   28.0610 C.3   107  PHE107      0.1605
     35  C         40.2670  109.7340   29.2650 C.2   107  PHE107      0.2264
     36  O         40.4860  110.1250   30.4070 O.2   107  PHE107     -0.2867
     37  CB        40.7920  111.7520   27.8520 C.3   107  PHE107      0.0534
     38  CG        41.9010  112.4740   27.1530 C.ar  107  PHE107     -0.0203
     39  CD1       41.6340  113.2610   26.0210 C.ar  107  PHE107     -0.0042
     40  CD2       43.2090  112.3880   27.6180 C.ar  107  PHE107     -0.0042
     41  CE1       42.6590  113.9480   25.3560 C.ar  107  PHE107     -0.0003
     42  CE2       44.2410  113.0730   26.9610 C.ar  107  PHE107     -0.0003
     43  CZ        43.9620  113.8560   25.8240 C.ar  107  PHE107     -0.0000
     44  N         42.1510  108.3220   32.0110 N.3   110  VAL110     -0.1231
     45  CA        42.5940  109.2580   33.0470 C.3   110  VAL110      0.1692
     46  C         41.5590  109.2900   34.1650 C.2   110  VAL110      0.2592
     47  O         41.8920  109.3160   35.3490 O.2   110  VAL110     -0.2718
     48  CB        42.7970  110.7020   32.4810 C.3   110  VAL110      0.0266
     49  CG1       42.6340  111.7480   33.5800 C.3   110  VAL110      0.0020
     50  CG2       44.1360  110.8410   31.7690 C.3   110  VAL110      0.0020
     51  N         40.2930  109.2700   33.7740 N.am  111  THR111     -0.1953
     52  CA        39.2010  109.1980   34.7270 C.3   111  THR111      0.1897
     53  C         39.2060  107.8890   35.5100 C.2   111  THR111      0.2313
     54  O         39.4480  107.8860   36.7070 O.2   111  THR111     -0.2863
     55  CB        37.8440  109.3490   34.0270 C.3   111  THR111      0.1794
     56  OG1       37.7450  110.6620   33.4740 O.3   111  THR111     -0.2208
     57  CG2       36.7150  109.1600   35.0300 C.3   111  THR111      0.0378
     58  N         46.6400  114.8820   36.5630 N.3   120  VAL120     -0.1231
     59  CA        45.8240  115.8490   35.8450 C.3   120  VAL120      0.1692
     60  C         45.3740  116.9420   36.7980 C.2   120  VAL120      0.2592
     61  O         45.4950  118.1400   36.4960 O.2   120  VAL120     -0.2718
     62  CB        44.5950  115.2000   35.2020 C.3   120  VAL120      0.0266
     63  CG1       43.7100  116.2610   34.5900 C.3   120  VAL120      0.0020
     64  CG2       45.0220  114.2020   34.1500 C.3   120  VAL120      0.0020
     65  N         44.9170  116.4960   37.9720 N.am  121  SER121     -0.1952
     66  CA        44.4090  117.3530   39.0440 C.3   121  SER121      0.1924
     67  C         45.4510  118.3180   39.5640 C.2   121  SER121      0.2314
     68  O         45.1430  119.4760   39.8340 O.2   121  SER121     -0.2863
     69  CB        43.9130  116.4960   40.1970 C.3   121  SER121      0.2116
     70  OG        42.6840  115.8990   39.8450 O.3   121  SER121     -0.2180
     71  N         48.1220  119.2610   37.7900 N.3   123  LEU123     -0.1231
     72  CA        48.4490  120.1560   36.6770 C.3   123  LEU123      0.1693
     73  C         47.4480  121.2930   36.5720 C.2   123  LEU123      0.2591
     74  O         47.8370  122.4590   36.4630 O.2   123  LEU123     -0.2718
     75  CB        48.5150  119.4010   35.3490 C.3   123  LEU123      0.0284
     76  CG        49.6400  118.3820   35.2200 C.3   123  LEU123      0.0019
     77  CD1       49.4060  117.4900   34.0290 C.3   123  LEU123      0.0001
     78  CD2       50.9310  119.1180   35.0680 C.3   123  LEU123      0.0001
     79  N         46.1660  120.9420   36.6240 N.am  124  ILE124     -0.1980
     80  CA        45.0750  121.9130   36.5610 C.3   124  ILE124      0.1595
     81  C         45.0460  122.9290   37.7200 C.2   124  ILE124      0.2287
     82  O         44.7180  124.0940   37.5280 O.2   124  ILE124     -0.2864
     83  CB        43.7410  121.1720   36.5110 C.3   124  ILE124      0.0276
     84  CG1       43.6180  120.4650   35.1690 C.3   124  ILE124      0.0022
     85  CG2       42.5740  122.1100   36.7250 C.3   124  ILE124      0.0022
     86  CD1       42.4810  119.4850   35.1270 C.3   124  ILE124      0.0001
@<TRIPOS>BOND
     1    41    43   ar
     2    41    39   ar
     3    43    42   ar
     4    39    38   ar
     5    33    34    1
     6    42    40   ar
     7    38    40   ar
     8    38    37    1
     9    37    34    1
    10    34    35    1
    11    32    30   ar
    12    32    31   ar
    13    30    28   ar
    14    35    36    2
    15    31    29   ar
    16    28    27   ar
    17    25    24    2
    18    29    27   ar
    19    27    26    1
    20    24    23    1
    21    23    26    1
    22    23    22    1
    23    50    48    1
    24    44    45    1
    25    48    45    1
    26    48    49    1
    27    45    46    1
    28    56    55    1
    29    51    46   am
    30    51    52    1
    31    55    52    1
    32    55    57    1
    33    77    76    1
    34    64    62    1
    35    46    47    2
    36    11    10    2
    37    63    62    1
    38    52    53    1
    39     4     3    2
    40    78    76    1
    41    86    84    1
    42    84    83    1
    43    62    59    1
    44    76    75    1
    45    10     9    1
    46    75    72    1
    47    53    54    2
    48    59    58    1
    49    59    60    1
    50     9     8    1
    51     9    12    1
    52    20    18   ar
    53    20    21   ar
    54     3     8   am
    55     3     2    1
    56    18    15   ar
    57    74    73    2
    58    61    60    2
    59    83    80    1
    60    83    85    1
    61    80    79    1
    62    80    81    1
    63    73    79   am
    64    73    72    1
    65    72    71    1
    66    60    65   am
    67     2     5    1
    68     2     1    1
    69    12    13    1
    70    21    19   ar
    71    15    13   ar
    72    15    17   ar
    73     5     6    1
    74    82    81    2
    75    13    14   ar
    76    65    66    1
    77     1     7    1
    78    19    17   ar
    79    17    16   ar
    80     6     7    1
    81    14    16   ar
    82    66    67    1
    83    66    69    1
    84    67    68    2
    85    70    69    1
