@<TRIPOS>MOLECULE
tmp/6c1eA07.pdb
 111 102 0 0 0
SMALL
GASTEIGER

@<TRIPOS>ATOM
      1  N         51.2970  143.8090   36.5140 N.3   120  VAL120     -0.1245
      2  CA        52.2470  144.6510   35.8150 C.3   120  VAL120      0.1561
      3  C         53.3260  145.0830   36.7970 C.2   120  VAL120      0.2260
      4  O         54.5260  144.9780   36.4960 O.2   120  VAL120     -0.2867
      5  CB        51.5780  145.8760   35.1920 C.3   120  VAL120      0.0252
      6  CG1       52.6220  146.7850   34.5520 C.3   120  VAL120      0.0019
      7  CG2       50.5860  145.4350   34.1550 C.3   120  VAL120      0.0019
      8  N         55.6380  142.2490   37.8250 N.3   123  LEU123     -0.1231
      9  CA        56.5010  141.9450   36.6920 C.3   123  LEU123      0.1693
     10  C         57.6330  142.9590   36.5550 C.2   123  LEU123      0.2591
     11  O         58.7940  142.5760   36.3960 O.2   123  LEU123     -0.2718
     12  CB        55.6780  141.8720   35.3990 C.3   123  LEU123      0.0284
     13  CG        54.6670  140.7200   35.3090 C.3   123  LEU123      0.0019
     14  CD1       53.6690  140.9220   34.1930 C.3   123  LEU123      0.0001
     15  CD2       55.4050  139.4270   35.0860 C.3   123  LEU123      0.0001
     16  N         57.2940  144.2440   36.6210 N.am  124  ILE124     -0.1980
     17  CA        58.2840  145.3210   36.5120 C.3   124  ILE124      0.1595
     18  C         59.3120  145.3730   37.6530 C.2   124  ILE124      0.2287
     19  O         60.4800  145.6800   37.4360 O.2   124  ILE124     -0.2864
     20  CB        57.5820  146.6760   36.4210 C.3   124  ILE124      0.0276
     21  CG1       56.8140  146.7820   35.1060 C.3   124  ILE124      0.0022
     22  CG2       58.5720  147.8060   36.5360 C.3   124  ILE124      0.0022
     23  CD1       55.8760  147.9620   35.0820 C.3   124  ILE124      0.0001
     24  N         62.7080  143.7740   37.2140 N.3   127  ILE127     -0.1245
     25  CA        63.6900  144.3600   36.2920 C.3   127  ILE127      0.1561
     26  C         64.9630  144.9520   36.9290 C.2   127  ILE127      0.2260
     27  O         66.0550  144.6890   36.4340 O.2   127  ILE127     -0.2867
     28  CB        63.0120  145.4350   35.3930 C.3   127  ILE127      0.0252
     29  CG1       61.7800  144.8240   34.7120 C.3   127  ILE127      0.0019
     30  CG2       63.9860  145.9660   34.3480 C.3   127  ILE127      0.0019
     31  CD1       61.1110  145.6980   33.6910 C.3   127  ILE127      0.0001
     32  N         68.3340  143.1200   37.4090 N.3   130  MET130     -0.1245
     33  CA        68.7050  142.4690   36.1630 C.3   130  MET130      0.1570
     34  C         69.6700  143.3560   35.4010 C.2   130  MET130      0.2261
     35  O         70.4620  142.8760   34.5890 O.2   130  MET130     -0.2867
     36  CB        67.4600  142.1700   35.3100 C.3   130  MET130      0.0387
     37  CG        66.7650  140.8520   35.6320 C.3   130  MET130      0.0595
     38  SD        65.1990  140.5610   34.7490 S.3   130  MET130     -0.1393
     39  CE        65.7670  140.6200   33.0570 C.3   130  MET130      0.0692
     40  N         71.7770  142.6540   32.1740 N.3   134  ILE134     -0.1245
     41  CA        71.3860  143.3010   30.9340 C.3   134  ILE134      0.1561
     42  C         72.4990  144.1830   30.3700 C.2   134  ILE134      0.2260
     43  O         72.7500  144.1660   29.1700 O.2   134  ILE134     -0.2867
     44  CB        70.1300  144.1400   31.1320 C.3   134  ILE134      0.0252
     45  CG1       68.9330  143.2180   31.3660 C.3   134  ILE134      0.0019
     46  CG2       69.8940  145.0400   29.9310 C.3   134  ILE134      0.0019
     47  CD1       67.6400  143.9520   31.7210 C.3   134  ILE134      0.0001
     48  N         70.9260  138.9050   17.4320 N.3   171  PHE171     -0.1241
     49  CA        69.7680  138.6950   18.2600 C.3   171  PHE171      0.1605
     50  C         69.0620  137.4510   17.8030 C.2   171  PHE171      0.2264
     51  O         68.6360  136.6200   18.6140 O.2   171  PHE171     -0.2867
     52  CB        68.8180  139.8640   18.2090 C.3   171  PHE171      0.0534
     53  CG        67.6400  139.6820   19.0900 C.ar  171  PHE171     -0.0203
     54  CD1       67.7890  139.7500   20.4510 C.ar  171  PHE171     -0.0042
     55  CD2       66.3970  139.4120   18.5690 C.ar  171  PHE171     -0.0042
     56  CE1       66.7040  139.5730   21.2670 C.ar  171  PHE171     -0.0003
     57  CE2       65.3150  139.2300   19.3870 C.ar  171  PHE171     -0.0003
     58  CZ        65.4740  139.3060   20.7400 C.ar  171  PHE171     -0.0000
     59  N         70.8170  134.5150   18.9340 N.3   174  MET174     -0.1230
     60  CA        70.5340  134.3050   20.3330 C.3   174  MET174      0.1702
     61  C         69.2020  133.5910   20.5090 C.2   174  MET174      0.2593
     62  O         69.1100  132.6810   21.3180 O.2   174  MET174     -0.2718
     63  CB        70.5210  135.6060   21.1090 C.3   174  MET174      0.0401
     64  CG        70.0280  135.3830   22.5120 C.3   174  MET174      0.0596
     65  SD        70.2950  136.7490   23.5940 S.3   174  MET174     -0.1393
     66  CE        68.9980  137.8380   23.0530 C.3   174  MET174      0.0692
     67  N         68.1760  133.9810   19.7520 N.am  175  THR175     -0.1939
     68  CA        66.8900  133.2740   19.8160 C.3   175  THR175      0.2028
     69  C         66.9910  131.8800   19.1700 C.2   175  THR175      0.2642
     70  O         66.0370  131.0810   19.2400 O.2   175  THR175     -0.2714
     71  CB        65.7630  134.0570   19.1420 C.3   175  THR175      0.1808
     72  OG1       65.9410  134.0550   17.7210 O.3   175  THR175     -0.2208
     73  CG2       65.7070  135.5000   19.7100 C.3   175  THR175      0.0379
     74  N         68.1610  131.5980   18.5810 N.am  176  LEU176     -0.1977
     75  CA        68.4940  130.3210   17.9450 C.3   176  LEU176      0.1596
     76  C         67.6880  130.0030   16.6890 C.2   176  LEU176      0.2287
     77  O         67.7910  128.8960   16.1790 O.2   176  LEU176     -0.2864
     78  CB        68.3140  129.1720   18.9330 C.3   176  LEU176      0.0297
     79  CG        69.1920  129.0660   20.1760 C.3   176  LEU176      0.0022
     80  CD1       68.8810  127.7550   20.8420 C.3   176  LEU176      0.0001
     81  CD2       70.6910  129.1550   19.8750 C.3   176  LEU176      0.0001
     82  N         75.9460  133.4340   25.5310 N.3   205  VAL205     -0.1231
     83  CA        74.6410  134.0890   25.5530 C.3   205  VAL205      0.1692
     84  C         73.5600  133.1470   26.1090 C.2   205  VAL205      0.2592
     85  O         72.6140  133.5900   26.7430 O.2   205  VAL205     -0.2718
     86  CB        74.2790  134.6000   24.1390 C.3   205  VAL205      0.0266
     87  CG1       72.9220  134.1160   23.6910 C.3   205  VAL205      0.0020
     88  CG2       74.3800  136.0970   24.0900 C.3   205  VAL205      0.0020
     89  N         73.7010  131.8430   25.9010 N.am  206  THR206     -0.1953
     90  CA        72.7080  130.9120   26.4440 C.3   206  THR206      0.1897
     91  C         72.8920  130.7760   27.9410 C.2   206  THR206      0.2313
     92  O         71.9300  130.7960   28.7090 O.2   206  THR206     -0.2863
     93  CB        72.8030  129.5120   25.8250 C.3   206  THR206      0.1794
     94  OG1       72.8430  129.6270   24.4080 O.3   206  THR206     -0.2208
     95  CG2       71.6000  128.6620   26.2280 C.3   206  THR206      0.0378
     96  N         71.5950  133.7840   29.7950 N.3   209  MET209     -0.1245
     97  CA        70.1440  133.6940   29.8810 C.3   209  MET209      0.1570
     98  C         69.6690  132.7440   30.9890 C.2   209  MET209      0.2261
     99  O         68.7800  133.0950   31.7610 O.2   209  MET209     -0.2867
    100  CB        69.5700  133.2440   28.5480 C.3   209  MET209      0.0387
    101  CG        69.2450  134.3580   27.6010 C.3   209  MET209      0.0595
    102  SD        67.8560  135.3130   28.2020 S.3   209  MET209     -0.1393
    103  CE        68.6470  136.9140   28.3430 C.3   209  MET209      0.0692
    104  N         70.2210  134.4270   34.3230 N.3   212  LEU212     -0.1245
    105  CA        69.2330  135.4920   34.4620 C.3   212  LEU212      0.1561
    106  C         67.9160  134.9320   34.9930 C.2   212  LEU212      0.2260
    107  O         67.2650  135.5430   35.8280 O.2   212  LEU212     -0.2867
    108  CB        69.0170  136.1930   33.1240 C.3   212  LEU212      0.0270
    109  CG        68.1200  137.4300   33.0160 C.3   212  LEU212      0.0019
    110  CD1       68.5830  138.2920   31.8440 C.3   212  LEU212      0.0001
    111  CD2       66.6470  137.0840   32.8550 C.3   212  LEU212      0.0001
@<TRIPOS>BOND
     1    77    76    2
     2    76    75    1
     3    48    49    1
     4    72    71    1
     5    50    49    1
     6    50    51    2
     7    75    74    1
     8    75    78    1
     9    52    49    1
    10    52    53    1
    11    55    53   ar
    12    55    57   ar
    13    74    69   am
    14    78    79    1
    15    59    60    1
    16    53    54   ar
    17    71    73    1
    18    71    68    1
    19    69    70    2
    20    69    68    1
    21    57    58   ar
    22    67    68    1
    23    67    61   am
    24    81    79    1
    25    79    80    1
    26    60    61    1
    27    60    63    1
    28    54    56   ar
    29    61    62    2
    30    58    56   ar
    31    63    64    1
    32    64    65    1
    33    66    65    1
    34    87    86    1
    35    88    86    1
    36    86    83    1
    37    94    93    1
    38    82    83    1
    39    83    84    1
    40    93    95    1
    41    93    90    1
    42    89    84   am
    43    89    90    1
    44    84    85    2
    45    90    91    1
    46   101   102    1
    47   101   100    1
    48    91    92    2
    49   102   103    1
    50   100    97    1
    51    43    42    2
    52    96    97    1
    53    97    98    1
    54    46    44    1
    55    42    41    1
    56    41    44    1
    57    41    40    1
    58    98    99    2
    59    44    45    1
    60    45    47    1
    61   110   109    1
    62   111   109    1
    63   109   108    1
    64    39    38    1
    65   108   105    1
    66    31    29    1
    67     7     5    1
    68    14    13    1
    69   104   105    1
    70    30    28    1
    71   105   106    1
    72     6     5    1
    73    35    34    2
    74    29    28    1
    75    38    37    1
    76   106   107    2
    77    23    21    1
    78    15    13    1
    79    21    20    1
    80     5     2    1
    81    13    12    1
    82    36    37    1
    83    36    33    1
    84    28    25    1
    85    12     9    1
    86    34    33    1
    87     2     1    1
    88     2     3    1
    89    33    32    1
    90    25    26    1
    91    25    24    1
    92    11    10    2
    93    20    17    1
    94    20    22    1
    95    27    26    2
    96     4     3    2
    97    17    16    1
    98    17    18    1
    99    10    16   am
   100    10     9    1
   101     9     8    1
   102    19    18    2
