@<TRIPOS>MOLECULE
tmp/6c1eB05.pdb
 135 129 0 0 0
SMALL
GASTEIGER

@<TRIPOS>ATOM
      1  N         47.3840  131.9270   37.4280 N.3   130  MET130     -0.1245
      2  CA        47.9950  132.2820   36.1560 C.3   130  MET130      0.1570
      3  C         47.0790  133.2060   35.3790 C.2   130  MET130      0.2261
      4  O         47.5280  133.9440   34.5020 O.2   130  MET130     -0.2867
      5  CB        48.3000  131.0270   35.3310 C.3   130  MET130      0.0387
      6  CG        49.6360  130.3960   35.6370 C.3   130  MET130      0.0595
      7  SD        49.9080  128.8590   34.7290 S.3   130  MET130     -0.1393
      8  CE        49.7880  129.4420   33.0470 C.3   130  MET130      0.0692
      9  N         48.0220  136.7770   34.6080 N.3   133  VAL133     -0.1231
     10  CA        49.0670  136.8670   33.5860 C.3   133  VAL133      0.1692
     11  C         48.5230  136.4320   32.2040 C.2   133  VAL133      0.2591
     12  O         48.7640  137.1150   31.2140 O.2   133  VAL133     -0.2718
     13  CB        50.3140  136.0450   33.9990 C.3   133  VAL133      0.0266
     14  CG1       51.0500  135.5310   32.8150 C.3   133  VAL133      0.0020
     15  CG2       51.2510  136.9110   34.8000 C.3   133  VAL133      0.0020
     16  N         47.8080  135.3060   32.1290 N.am  134  ILE134     -0.1980
     17  CA        47.1220  134.9310   30.8960 C.3   134  ILE134      0.1595
     18  C         46.2250  136.0640   30.3750 C.2   134  ILE134      0.2287
     19  O         46.1720  136.3230   29.1710 O.2   134  ILE134     -0.2864
     20  CB        46.2660  133.6790   31.0910 C.3   134  ILE134      0.0276
     21  CG1       47.1650  132.4620   31.2780 C.3   134  ILE134      0.0022
     22  CG2       45.3270  133.4770   29.9150 C.3   134  ILE134      0.0022
     23  CD1       46.4020  131.1890   31.5860 C.3   134  ILE134      0.0001
     24  N         48.4660  138.9970   29.0520 N.3   137  MET137     -0.1230
     25  CA        48.9950  138.5040   27.7930 C.3   137  MET137      0.1702
     26  C         48.0060  138.5980   26.6510 C.2   137  MET137      0.2593
     27  O         48.3330  139.0840   25.5700 O.2   137  MET137     -0.2718
     28  CB        49.4140  137.0490   27.9600 C.3   137  MET137      0.0401
     29  CG        50.5340  136.6580   27.0700 C.3   137  MET137      0.0596
     30  SD        51.9610  137.6740   27.3930 S.3   137  MET137     -0.1393
     31  CE        53.2510  136.5080   26.9410 C.3   137  MET137      0.0692
     32  N         46.8200  138.0630   26.8780 N.am  138  THR138     -0.1953
     33  CA        45.7580  138.1620   25.9060 C.3   138  THR138      0.1897
     34  C         45.4280  139.6010   25.5010 C.2   138  THR138      0.2313
     35  O         45.1910  139.8800   24.3250 O.2   138  THR138     -0.2863
     36  CB        44.5200  137.5030   26.4520 C.3   138  THR138      0.1794
     37  OG1       44.8530  136.1450   26.7430 O.3   138  THR138     -0.2208
     38  CG2       43.3600  137.5880   25.4490 C.3   138  THR138      0.0378
     39  N         48.4340  140.6480   23.2690 N.3   141  PHE141     -0.1241
     40  CA        48.3330  140.1180   21.9200 C.3   141  PHE141      0.1605
     41  C         47.3250  140.9340   21.1370 C.2   141  PHE141      0.2264
     42  O         47.6200  141.4440   20.0620 O.2   141  PHE141     -0.2867
     43  CB        47.9260  138.6440   21.9470 C.3   141  PHE141      0.0534
     44  CG        49.0840  137.7050   21.8030 C.ar  141  PHE141     -0.0203
     45  CD1       50.0470  137.6140   22.7970 C.ar  141  PHE141     -0.0042
     46  CD2       49.2320  136.9360   20.6580 C.ar  141  PHE141     -0.0042
     47  CE1       51.1260  136.7640   22.6660 C.ar  141  PHE141     -0.0003
     48  CE2       50.3130  136.0880   20.5180 C.ar  141  PHE141     -0.0003
     49  CZ        51.2610  136.0010   21.5250 C.ar  141  PHE141     -0.0000
     50  N         44.3240  140.2340    8.6050 N.3   162  THR162     -0.1203
     51  CA        43.1300  140.0120    9.4030 C.3   162  THR162      0.1994
     52  C         43.5230  139.9920   10.8700 C.2   162  THR162      0.2618
     53  O         44.6420  139.5800   11.1670 O.2   162  THR162     -0.2717
     54  CB        42.4920  138.6990    8.9470 C.3   162  THR162      0.1784
     55  OG1       42.1370  138.8240    7.5680 O.3   162  THR162     -0.2211
     56  CG2       41.2890  138.3320    9.7440 C.3   162  THR162      0.0376
     57  N         42.6420  140.4500   11.7540 N.am  163  LEU163     -0.1965
     58  CA        42.9360  140.4720   13.1810 C.3   163  LEU163      0.1728
     59  C         43.4010  139.0950   13.6300 C.2   163  LEU163      0.2617
     60  O         44.3910  138.9610   14.3490 O.2   163  LEU163     -0.2715
     61  CB        41.7030  140.9000   13.9790 C.3   163  LEU163      0.0311
     62  CG        41.9290  141.2160   15.4580 C.3   163  LEU163      0.0022
     63  CD1       42.6880  142.5250   15.6190 C.3   163  LEU163      0.0001
     64  CD2       40.6060  141.2640   16.2060 C.3   163  LEU163      0.0001
     65  N         42.6760  138.0730   13.1910 N.am  164  GLY164     -0.1940
     66  CA        43.0290  136.6990   13.4780 C.3   164  GLY164      0.2014
     67  C         44.2850  136.2360   12.7660 C.2   164  GLY164      0.2638
     68  O         45.0750  135.4630   13.3040 O.2   164  GLY164     -0.2714
     69  N         44.4770  136.6650   11.5270 N.am  165  GLU165     -0.1977
     70  CA        45.7250  136.3080   10.8800 C.3   165  GLU165      0.1602
     71  C         46.8900  136.8930   11.6800 C.2   165  GLU165      0.2287
     72  O         47.8820  136.2090   11.9410 O.2   165  GLU165     -0.2864
     73  CB        45.7440  136.7720    9.4270 C.3   165  GLU165      0.0415
     74  CG        45.5640  135.6380    8.4720 C.3   165  GLU165      0.1163
     75  CD        44.7370  136.0300    7.2950 C.2   165  GLU165      0.3649
     76  OE1       44.3020  135.1330    6.5410 O.co2 165  GLU165     -0.2457
     77  OE2       44.5460  137.2460    7.1050 O.co2 165  GLU165     -0.2457
     78  N         46.8130  137.4650   14.8910 N.3   167  PHE167     -0.1227
     79  CA        46.9380  136.6990   16.1390 C.3   167  PHE167      0.1736
     80  C         47.8120  135.4840   15.9330 C.2   167  PHE167      0.2595
     81  O         48.7910  135.2960   16.6600 O.2   167  PHE167     -0.2718
     82  CB        45.5720  136.2800   16.6840 C.3   167  PHE167      0.0547
     83  CG        45.1150  137.0950   17.8700 C.ar  167  PHE167     -0.0202
     84  CD1       44.2100  138.1390   17.7190 C.ar  167  PHE167     -0.0042
     85  CD2       45.5750  136.7970   19.1430 C.ar  167  PHE167     -0.0042
     86  CE1       43.7780  138.8650   18.8140 C.ar  167  PHE167     -0.0003
     87  CE2       45.1510  137.5180   20.2300 C.ar  167  PHE167     -0.0003
     88  CZ        44.2510  138.5530   20.0690 C.ar  167  PHE167     -0.0000
     89  N         47.4890  134.7180   14.8800 N.am  168  TYR168     -0.1976
     90  CA        48.2190  133.5120   14.5060 C.3   168  TYR168      0.1639
     91  C         49.7080  133.8110   14.2840 C.2   168  TYR168      0.2290
     92  O         50.5890  133.0920   14.7730 O.2   168  TYR168     -0.2864
     93  CB        47.6040  132.8620   13.2640 C.3   168  TYR168      0.0560
     94  CG        48.3710  131.6050   12.8900 C.ar  168  TYR168     -0.0198
     95  CD1       47.9220  130.3570   13.2520 C.ar  168  TYR168     -0.0009
     96  CD2       49.5580  131.6800   12.1790 C.ar  168  TYR168     -0.0009
     97  CE1       48.6380  129.2330   12.9420 C.ar  168  TYR168      0.0417
     98  CE2       50.2760  130.5730   11.8740 C.ar  168  TYR168      0.0417
     99  CZ        49.8150  129.3500   12.2580 C.ar  168  TYR168      0.1957
    100  OH        50.5300  128.2240   11.9330 O.3   168  TYR168     -0.2866
    101  N         51.4790  134.6090   17.4940 N.3   171  PHE171     -0.1241
    102  CA        51.6930  133.4500   18.3170 C.3   171  PHE171      0.1605
    103  C         52.9210  132.7300   17.8270 C.2   171  PHE171      0.2264
    104  O         53.7770  132.3310   18.6180 O.2   171  PHE171     -0.2867
    105  CB        50.5070  132.5150   18.2910 C.3   171  PHE171      0.0534
    106  CG        50.7040  131.3130   19.1300 C.ar  171  PHE171     -0.0203
    107  CD1       50.6800  131.4110   20.4880 C.ar  171  PHE171     -0.0042
    108  CD2       50.9570  130.0870   18.5620 C.ar  171  PHE171     -0.0042
    109  CE1       50.8680  130.2930   21.2700 C.ar  171  PHE171     -0.0003
    110  CE2       51.1390  128.9740   19.3420 C.ar  171  PHE171     -0.0003
    111  CZ        51.0960  129.0800   20.6970 C.ar  171  PHE171     -0.0000
    112  N         55.8260  134.4120   18.8730 N.3   174  MET174     -0.1245
    113  CA        56.0570  134.1420   20.2760 C.3   174  MET174      0.1570
    114  C         56.7960  132.8200   20.4740 C.2   174  MET174      0.2261
    115  O         57.7300  132.7610   21.2620 O.2   174  MET174     -0.2867
    116  CB        54.7580  134.1300   21.0560 C.3   174  MET174      0.0387
    117  CG        54.9610  133.6840   22.4660 C.3   174  MET174      0.0595
    118  SD        53.5600  133.9840   23.5020 S.3   174  MET174     -0.1393
    119  CE        52.5030  132.6380   23.0270 C.3   174  MET174      0.0692
    120  N         56.5510  135.2300   29.8310 N.3   209  MET209     -0.1245
    121  CA        56.6570  133.7770   29.9000 C.3   209  MET209      0.1570
    122  C         57.6460  133.3170   30.9810 C.2   209  MET209      0.2261
    123  O         57.3520  132.3990   31.7410 O.2   209  MET209     -0.2867
    124  CB        57.0610  133.2120   28.5500 C.3   209  MET209      0.0387
    125  CG        55.9090  132.8970   27.6320 C.3   209  MET209      0.0595
    126  SD        54.9400  131.5160   28.2200 S.3   209  MET209     -0.1393
    127  CE        53.3550  132.3260   28.3950 C.3   209  MET209      0.0692
    128  N         55.9640  133.8270   34.2600 N.3   212  LEU212     -0.1245
    129  CA        54.8810  132.8530   34.3860 C.3   212  LEU212      0.1561
    130  C         55.4160  131.5360   34.9380 C.2   212  LEU212      0.2260
    131  O         54.7990  130.9200   35.8000 O.2   212  LEU212     -0.2867
    132  CB        54.1810  132.6380   33.0390 C.3   212  LEU212      0.0270
    133  CG        52.9460  131.7290   33.0120 C.3   212  LEU212      0.0019
    134  CD1       51.9930  132.1510   31.9110 C.3   212  LEU212      0.0001
    135  CD2       53.3130  130.2610   32.8290 C.3   212  LEU212      0.0001
@<TRIPOS>BOND
     1    76    75   ar
     2    77    75   ar
     3    75    74    1
     4    55    54    1
     5    74    73    1
     6    50    51    1
     7    54    51    1
     8    54    56    1
     9    51    52    1
    10    73    70    1
    11    52    53    2
    12    52    57   am
    13    70    69    1
    14    70    71    1
    15    69    67   am
    16    71    72    2
    17    57    58    1
    18    98    96   ar
    19    98    99   ar
    20   100    99    1
    21    96    94   ar
    22    99    97   ar
    23    67    68    2
    24    67    66    1
    25    94    95   ar
    26    94    93    1
    27    97    95   ar
    28    58    59    1
    29    58    61    1
    30    65    66    1
    31    65    59   am
    32    93    90    1
    33    59    60    2
    34    61    62    1
    35    91    90    1
    36    91    92    2
    37    90    89    1
    38    89    80   am
    39    78    79    1
    40    62    63    1
    41    62    64    1
    42    80    79    1
    43    80    81    2
    44    79    82    1
    45    82    83    1
    46   101   102    1
    47    84    83   ar
    48    84    86   ar
    49   103   102    1
    50   103   104    2
    51    83    85   ar
    52   105   102    1
    53   105   106    1
    54   108   106   ar
    55   108   110   ar
    56    86    88   ar
    57   112   113    1
    58   106   107   ar
    59    85    87   ar
    60   110   111   ar
    61    42    41    2
    62    88    87   ar
    63   113   114    1
    64   113   116    1
    65   114   115    2
    66   107   109   ar
    67    48    46   ar
    68    48    49   ar
    69    46    44   ar
    70   111   109   ar
    71   116   117    1
    72    41    40    1
    73    49    47   ar
    74    44    43    1
    75    44    45   ar
    76    40    43    1
    77    40    39    1
    78   117   118    1
    79    47    45   ar
    80   119   118    1
    81    35    34    2
    82    38    36    1
    83    34    33    1
    84    27    26    2
    85    33    36    1
    86    33    32    1
    87    36    37    1
    88    26    32   am
    89    26    25    1
    90    31    30    1
    91    29    30    1
    92    29    28    1
    93   125   126    1
    94   125   124    1
    95    25    28    1
    96    25    24    1
    97   126   127    1
    98   124   121    1
    99    19    18    2
   100   120   121    1
   101   121   122    1
   102    22    20    1
   103    18    17    1
   104    17    20    1
   105    17    16    1
   106   122   123    2
   107    20    21    1
   108    12    11    2
   109    21    23    1
   110   134   133    1
   111    16    11   am
   112    11    10    1
   113    14    13    1
   114   135   133    1
   115   133   132    1
   116   132   129    1
   117     8     7    1
   118    10    13    1
   119    10     9    1
   120    13    15    1
   121   128   129    1
   122   129   130    1
   123     4     3    2
   124     7     6    1
   125   130   131    2
   126     5     6    1
   127     5     2    1
   128     3     2    1
   129     2     1    1
