@<TRIPOS>MOLECULE
tmp/6c1gA00.pdb
 179 174 0 0 0
SMALL
GASTEIGER

@<TRIPOS>ATOM
      1  N        180.3900  284.1560  245.7290 N.3    39  ILE39      -0.1231
      2  CA       181.8300  284.0710  245.9500 C.3    39  ILE39       0.1692
      3  C        182.2570  282.8450  246.7420 C.2    39  ILE39       0.2592
      4  O        183.4310  282.7660  247.1320 O.2    39  ILE39      -0.2718
      5  CB       182.3660  285.3450  246.6360 C.3    39  ILE39       0.0266
      6  CG1      181.6910  285.5320  247.9930 C.3    39  ILE39       0.0019
      7  CG2      182.1610  286.5600  245.7470 C.3    39  ILE39       0.0020
      8  CD1      182.2690  286.6530  248.8120 C.3    39  ILE39       0.0001
      9  N        181.3740  281.8870  246.9970 N.am   40  TYR40      -0.1976
     10  CA       181.7400  280.6820  247.7280 C.3    40  TYR40       0.1639
     11  C        181.4350  279.4440  246.8980 C.2    40  TYR40       0.2290
     12  O        180.3670  279.3420  246.2890 O.2    40  TYR40      -0.2864
     13  CB       181.0150  280.6120  249.0710 C.3    40  TYR40       0.0560
     14  CG       181.4840  281.6730  250.0310 C.ar   40  TYR40      -0.0198
     15  CD1      182.6870  281.5330  250.7070 C.ar   40  TYR40      -0.0009
     16  CD2      180.7340  282.8190  250.2560 C.ar   40  TYR40      -0.0009
     17  CE1      183.1300  282.5010  251.5800 C.ar   40  TYR40       0.0417
     18  CE2      181.1700  283.7940  251.1340 C.ar   40  TYR40       0.0417
     19  CZ       182.3680  283.6250  251.7910 C.ar   40  TYR40       0.1957
     20  OH       182.8130  284.5840  252.6630 O.3    40  TYR40      -0.2866
     21  N        186.6890  280.6880  248.8590 N.3    49  SER49      -0.1217
     22  CA       186.2510  282.0750  248.8480 C.3    49  SER49       0.1889
     23  C        187.0360  282.8320  247.7900 C.2    49  SER49       0.2288
     24  O        188.2230  282.5640  247.5800 O.2    49  SER49      -0.2866
     25  CB       186.4410  282.7290  250.2150 C.3    49  SER49       0.2089
     26  OG       186.0660  284.0950  250.1680 O.3    49  SER49      -0.2183
     27  N        187.6560  286.9790  246.8110 N.3    51  ASN51      -0.1226
     28  CA       187.4620  288.2870  247.4220 C.3    51  ASN51       0.1770
     29  C        186.7160  289.2160  246.4680 C.2    51  ASN51       0.2439
     30  O        187.1960  289.4680  245.3550 O.2    51  ASN51      -0.2733
     31  CB       188.8140  288.8960  247.7950 C.3    51  ASN51       0.1168
     32  CG       188.6900  290.1080  248.7100 C.2    51  ASN51       0.2627
     33  OD1      187.5930  290.5360  249.0690 O.2    51  ASN51      -0.2716
     34  ND2      189.8300  290.6540  249.1110 N.am   51  ASN51      -0.0877
     35  N        185.5650  289.7570  246.8640 N.am   52  PRO52      -0.2718
     36  CA       184.8850  290.7730  246.0460 C.3    52  PRO52       0.1535
     37  C        185.2700  292.2100  246.3760 C.2    52  PRO52       0.2599
     38  O        184.8050  293.1130  245.6710 O.2    52  PRO52      -0.2715
     39  CB       183.4130  290.5230  246.3950 C.3    52  PRO52       0.0310
     40  CG       183.4520  290.0900  247.8180 C.3    52  PRO52       0.0237
     41  CD       184.7240  289.3180  247.9940 C.3    52  PRO52       0.0939
     42  N        186.0660  292.4180  247.4350 N.am   53  TYR53      -0.1960
     43  CA       186.5830  293.7270  247.8590 C.3    53  TYR53       0.1771
     44  C        185.4720  294.7090  248.2290 C.2    53  TYR53       0.2619
     45  O        185.6560  295.9240  248.1300 O.2    53  TYR53      -0.2715
     46  CB       187.5110  294.3320  246.7980 C.3    53  TYR53       0.0574
     47  CG       188.7940  293.5590  246.6460 C.ar   53  TYR53      -0.0198
     48  CD1      189.8720  293.8040  247.4870 C.ar   53  TYR53      -0.0009
     49  CD2      188.9160  292.5540  245.6930 C.ar   53  TYR53      -0.0009
     50  CE1      191.0490  293.0940  247.3640 C.ar   53  TYR53       0.0417
     51  CE2      190.0910  291.8300  245.5650 C.ar   53  TYR53       0.0417
     52  CZ       191.1510  292.1090  246.4070 C.ar   53  TYR53       0.1957
     53  OH       192.3250  291.4090  246.3070 O.3    53  TYR53      -0.2866
     54  N        184.3330  294.1950  248.6940 N.am   54  ARG54      -0.1963
     55  CA       183.1840  295.0300  249.0240 C.3    54  ARG54       0.1729
     56  C        182.2100  294.2440  249.8900 C.2    54  ARG54       0.2617
     57  O        182.3190  293.0240  250.0350 O.2    54  ARG54      -0.2715
     58  CB       182.4730  295.5310  247.7650 C.3    54  ARG54       0.0348
     59  CG       181.9060  294.4190  246.9180 C.3    54  ARG54       0.0492
     60  CD       181.2500  294.9760  245.6820 C.3    54  ARG54       0.2205
     61  NE       180.6840  293.9240  244.8470 N.pl3  54  ARG54      -0.0865
     62  CZ       179.9850  294.1530  243.7430 C.cat  54  ARG54       0.5346
     63  NH1      179.7590  295.4000  243.3500 N.pl3  54  ARG54       0.1354
     64  NH2      179.5030  293.1400  243.0370 N.pl3  54  ARG54       0.1354
     65  N        181.2380  294.9660  250.4440 N.am   55  SER55      -0.1936
     66  CA       180.2670  294.3810  251.3570 C.3    55  SER55       0.2055
     67  C        179.1400  293.7110  250.5870 C.2    55  SER55       0.2642
     68  O        178.5970  294.2800  249.6360 O.2    55  SER55      -0.2714
     69  CB       179.6910  295.4520  252.2830 C.3    55  SER55       0.2130
     70  OG       180.6870  295.9960  253.1280 O.3    55  SER55      -0.2179
     71  N        178.7930  292.5050  251.0040 N.am   56  LEU56      -0.1977
     72  CA       177.6140  291.7980  250.5430 C.3    56  LEU56       0.1596
     73  C        176.7000  291.5020  251.7260 C.2    56  LEU56       0.2287
     74  O        177.1710  291.3080  252.8510 O.2    56  LEU56      -0.2864
     75  CB       178.0090  290.4950  249.8330 C.3    56  LEU56       0.0297
     76  CG       178.7250  290.7000  248.4970 C.3    56  LEU56       0.0022
     77  CD1      179.1720  289.3760  247.9170 C.3    56  LEU56       0.0001
     78  CD2      177.8270  291.4360  247.5150 C.3    56  LEU56       0.0001
     79  N        176.2530  288.6760  255.2960 N.3    59  TYR59      -0.1241
     80  CA       176.7570  288.7160  256.6620 C.3    59  TYR59       0.1605
     81  C        175.8220  289.4360  257.6220 C.2    59  TYR59       0.2264
     82  O        176.2480  289.8030  258.7220 O.2    59  TYR59      -0.2867
     83  CB       178.1400  289.3650  256.6910 C.3    59  TYR59       0.0534
     84  CG       179.1510  288.5320  255.9570 C.ar   59  TYR59      -0.0201
     85  CD1      179.6140  287.3470  256.5090 C.ar   59  TYR59      -0.0009
     86  CD2      179.6370  288.9180  254.7150 C.ar   59  TYR59      -0.0009
     87  CE1      180.5170  286.5560  255.8430 C.ar   59  TYR59       0.0417
     88  CE2      180.5600  288.1410  254.0460 C.ar   59  TYR59       0.0417
     89  CZ       180.9970  286.9650  254.6190 C.ar   59  TYR59       0.1957
     90  OH       181.9160  286.1930  253.9600 O.3    59  TYR59      -0.2866
     91  N        196.3560  283.5390  248.9990 N.3   104  GLU104     -0.1231
     92  CA       197.1650  284.7050  248.6600 C.3   104  GLU104      0.1699
     93  C        196.9660  285.8320  249.6680 C.2   104  GLU104      0.2593
     94  O        195.9080  285.9200  250.2950 O.2   104  GLU104     -0.2718
     95  CB       196.7990  285.1600  247.2390 C.3   104  GLU104      0.0402
     96  CG       197.5460  286.3660  246.6950 C.3   104  GLU104      0.1161
     97  CD       199.0170  286.1010  246.5060 C.2   104  GLU104      0.3649
     98  OE1      199.3940  284.9360  246.2560 O.co2 104  GLU104     -0.2457
     99  OE2      199.8090  287.0600  246.6150 O.co2 104  GLU104     -0.2457
    100  N        197.9830  286.6570  249.8930 N.am  105  SER105     -0.1938
    101  CA       197.8220  287.8770  250.6670 C.3   105  SER105      0.2055
    102  C        196.9510  288.8450  249.8780 C.2   105  SER105      0.2644
    103  O        197.2440  289.1470  248.7160 O.2   105  SER105     -0.2714
    104  CB       199.1730  288.5110  250.9840 C.3   105  SER105      0.2130
    105  OG       199.9530  287.6510  251.7930 O.3   105  SER105     -0.2179
    106  N        195.8860  289.3250  250.5110 N.am  106  GLY106     -0.1939
    107  CA       194.8820  290.1130  249.8340 C.3   106  GLY106      0.2014
    108  C        193.7370  289.3150  249.2610 C.2   106  GLY106      0.2639
    109  O        192.8750  289.8940  248.5890 O.2   106  GLY106     -0.2714
    110  N        193.7020  288.0030  249.4970 N.am  107  ALA107     -0.1963
    111  CA       192.6290  287.1610  248.9900 C.3   107  ALA107      0.1728
    112  C        191.5260  286.9220  250.0060 C.2   107  ALA107      0.2617
    113  O        190.5660  286.2080  249.6970 O.2   107  ALA107     -0.2715
    114  CB       193.1810  285.8120  248.5260 C.3   107  ALA107      0.0334
    115  N        191.6400  287.4800  251.2020 N.am  108  GLY108     -0.1940
    116  CA       190.5610  287.4590  252.1580 C.3   108  GLY108      0.2014
    117  C        190.6140  286.3870  253.2180 C.2   108  GLY108      0.2639
    118  O        189.5800  285.7700  253.5000 O.2   108  GLY108     -0.2714
    119  N        191.7720  286.1520  253.8250 N.am  109  LYS109     -0.1963
    120  CA       191.9000  285.1440  254.8660 C.3   109  LYS109      0.1728
    121  C        191.6140  285.6790  256.2580 C.2   109  LYS109      0.2617
    122  O        190.8240  285.0710  256.9940 O.2   109  LYS109     -0.2715
    123  CB       193.3090  284.5580  254.8510 C.3   109  LYS109      0.0311
    124  CG       193.6820  283.8920  253.5640 C.3   109  LYS109      0.0038
    125  CD       195.0410  283.2780  253.6920 C.3   109  LYS109      0.0206
    126  CE       196.1100  284.3410  253.8610 C.3   109  LYS109      0.1093
    127  NZ       196.2360  285.1890  252.6580 N.3   109  LYS109     -0.1314
    128  N        192.2770  286.7800  256.6320 N.am  110  THR110     -0.1937
    129  CA       192.1170  287.4060  257.9400 C.3   110  THR110      0.2028
    130  C        190.6750  287.7950  258.2180 C.2   110  THR110      0.2642
    131  O        190.1540  287.4820  259.2980 O.2   110  THR110     -0.2714
    132  CB       193.0240  288.6350  258.0330 C.3   110  THR110      0.1808
    133  OG1      194.3970  288.2300  257.9290 O.3   110  THR110     -0.2208
    134  CG2      192.7970  289.3780  259.3420 C.3   110  THR110      0.0379
    135  N        190.0210  288.4320  257.2400 N.am  111  GLU111     -0.1963
    136  CA       188.6080  288.7780  257.3360 C.3   111  GLU111      0.1733
    137  C        187.7400  287.5460  257.5320 C.2   111  GLU111      0.2616
    138  O        186.7900  287.5820  258.3160 O.2   111  GLU111     -0.2715
    139  CB       188.1660  289.5310  256.0830 C.3   111  GLU111      0.0429
    140  CG       188.8290  290.8790  255.9070 C.3   111  GLU111      0.1163
    141  CD       188.4120  291.8770  256.9620 C.2   111  GLU111      0.3649
    142  OE1      187.2520  291.8140  257.4220 O.co2 111  GLU111     -0.2457
    143  OE2      189.2450  292.7290  257.3310 O.co2 111  GLU111     -0.2457
    144  N        188.0780  286.4450  256.8570 N.am  112  ALA112     -0.1977
    145  CA       187.3200  285.2090  257.0100 C.3   112  ALA112      0.1597
    146  C        187.4750  284.6330  258.4120 C.2   112  ALA112      0.2287
    147  O        186.5130  284.1020  258.9840 O.2   112  ALA112     -0.2864
    148  CB       187.7650  284.1980  255.9560 C.3   112  ALA112      0.0319
    149  N        185.2700  286.6130  260.6020 N.3   115  LEU115     -0.1245
    150  CA       183.8610  286.2790  260.4250 C.3   115  LEU115      0.1561
    151  C        183.5150  284.9530  261.0880 C.2   115  LEU115      0.2260
    152  O        182.3930  284.7690  261.5730 O.2   115  LEU115     -0.2867
    153  CB       183.5300  286.2580  258.9360 C.3   115  LEU115      0.0270
    154  CG       183.5880  287.6700  258.3500 C.3   115  LEU115      0.0019
    155  CD1      183.7390  287.6550  256.8410 C.3   115  LEU115      0.0001
    156  CD2      182.3860  288.4960  258.7790 C.3   115  LEU115      0.0001
    157  N        199.3250  292.4980  262.8790 N.3   145  GLU145     -0.1245
    158  CA       199.6040  292.7360  261.4680 C.3   145  GLU145      0.1567
    159  C        200.4360  293.9910  261.2540 C.2   145  GLU145      0.2260
    160  O        200.9260  294.2240  260.1430 O.2   145  GLU145     -0.2867
    161  CB       198.3030  292.8100  260.6840 C.3   145  GLU145      0.0388
    162  CG       197.6250  291.4690  260.5960 C.3   145  GLU145      0.1160
    163  CD       196.3560  291.5060  259.7940 C.2   145  GLU145      0.3649
    164  OE1      195.8650  292.6140  259.4930 O.co2 145  GLU145     -0.2457
    165  OE2      195.8720  290.4170  259.4340 O.co2 145  GLU145     -0.2457
    166  N        201.0390  294.4670  251.3820 N.3   157  ASN157     -0.1240
    167  CA       201.1010  293.8870  252.7120 C.3   157  ASN157      0.1653
    168  C        200.9320  292.3860  252.5520 C.2   157  ASN157      0.2266
    169  O        200.1800  291.9220  251.6920 O.2   157  ASN157     -0.2867
    170  CB       200.0210  294.4610  253.6330 C.3   157  ASN157      0.1155
    171  CG       200.2300  294.0880  255.0860 C.2   157  ASN157      0.2627
    172  OD1      201.2040  293.4270  255.4380 O.2   157  ASN157     -0.2716
    173  ND2      199.3080  294.5090  255.9400 N.am  157  ASN157     -0.0877
    174  N        201.0400  288.3660  254.7010 N.3   159  SER159     -0.1217
    175  CA       201.1600  287.5410  255.8930 C.3   159  SER159      0.1889
    176  C        202.5190  286.8570  255.9230 C.2   159  SER159      0.2288
    177  O        202.7650  285.9100  255.1710 O.2   159  SER159     -0.2866
    178  CB       200.0410  286.5050  255.9280 C.3   159  SER159      0.2089
    179  OG       198.7800  287.1320  256.0550 O.3   159  SER159     -0.2183
@<TRIPOS>BOND
     1    64    62    1
     2    63    62    1
     3    62    61    2
     4    61    60    1
     5    30    29    2
     6    51    49   ar
     7    51    52   ar
     8    38    37    2
     9    60    59    1
    10    49    47   ar
    11     1     2    1
    12     7     5    1
    13     2     5    1
    14     2     3    1
    15    36    37    1
    16    36    39    1
    17    36    35    1
    18    98    97   ar
    19    12    11    2
    20    53    52    1
    21    37    42   am
    22    39    40    1
    23    52    50   ar
    24    29    35   am
    25    29    28    1
    26    97    99   ar
    27    97    96    1
    28     5     6    1
    29    47    46    1
    30    47    48   ar
    31    96    95    1
    32     3     9   am
    33     3     4    2
    34    46    43    1
    35    27    28    1
    36    35    41    1
    37    11    10    1
    38    59    58    1
    39     9    10    1
    40    95    92    1
    41    50    48   ar
    42    28    31    1
    43    42    43    1
    44    78    76    1
    45    24    23    2
    46    10    13    1
    47    58    55    1
    48    23    22    1
    49    31    32    1
    50    40    41    1
    51    43    44    1
    52    77    76    1
    53     6     8    1
    54    45    44    2
    55    44    54   am
    56    76    75    1
    57   114   111    1
    58   109   108    2
    59    92    91    1
    60    92    93    1
    61    54    55    1
    62    32    33    2
    63    32    34   am
    64   103   102    2
    65    22    21    1
    66    22    25    1
    67   111   110    1
    68   111   112    1
    69    55    56    1
    70    13    14    1
    71   108   110   am
    72   108   107    1
    73    68    67    2
    74    93   100   am
    75    93    94    2
    76   113   112    2
    77    75    72    1
    78   107   106    1
    79   102   106   am
    80   102   101    1
    81    56    57    2
    82    56    65   am
    83   100   101    1
    84   112   115   am
    85    14    16   ar
    86    14    15   ar
    87    26    25    1
    88    16    18   ar
    89    65    66    1
    90    72    71    1
    91    72    73    1
    92    67    71   am
    93    67    66    1
    94   101   104    1
    95    15    17   ar
    96   104   105    1
    97    18    19   ar
    98   115   116    1
    99    66    69    1
   100   166   167    1
   101    17    19   ar
   102   169   168    2
   103    73    74    2
   104    19    20    1
   105   116   117    1
   106    69    70    1
   107   168   167    1
   108   127   126    1
   109   167   170    1
   110   117   118    2
   111   117   119   am
   112   124   125    1
   113   124   123    1
   114   170   171    1
   115   125   126    1
   116   119   120    1
   117    90    89    1
   118    88    89   ar
   119    88    86   ar
   120    89    87   ar
   121   174   175    1
   122    86    84   ar
   123   123   120    1
   124   120   121    1
   125   171   172    2
   126   171   173   am
   127   177   176    2
   128    79    80    1
   129    87    85   ar
   130   175   176    1
   131   175   178    1
   132   140   139    1
   133   140   141    1
   134   178   179    1
   135   148   145    1
   136    84    85   ar
   137    84    83    1
   138   139   136    1
   139   121   128   am
   140   121   122    2
   141   128   129    1
   142    80    83    1
   143    80    81    1
   144   155   154    1
   145   144   145    1
   146   144   137   am
   147   141   143   ar
   148   141   142   ar
   149   145   146    1
   150   135   136    1
   151   135   130   am
   152   136   137    1
   153   137   138    2
   154    81    82    2
   155   133   132    1
   156   129   132    1
   157   129   130    1
   158   132   134    1
   159   130   131    2
   160   154   156    1
   161   154   153    1
   162   146   147    2
   163   153   150    1
   164   165   163   ar
   165   164   163   ar
   166   163   162    1
   167   160   159    2
   168   150   149    1
   169   150   151    1
   170   162   161    1
   171   161   158    1
   172   151   152    2
   173   159   158    1
   174   158   157    1
