@<TRIPOS>MOLECULE
tmp/6c1hB00.pdb
 147 135 0 0 0
SMALL
GASTEIGER

@<TRIPOS>ATOM
      1  N        235.9500  264.1660  286.1170 N.3    11  ASP11      -0.1239
      2  CA       237.3100  264.4190  285.6470 C.3    11  ASP11       0.1674
      3  C        238.2650  264.2590  286.8270 C.2    11  ASP11       0.2266
      4  O        238.4030  265.1610  287.6570 O.2    11  ASP11      -0.2867
      5  CB       237.4030  265.8040  285.0220 C.3    11  ASP11       0.1410
      6  CG       238.6860  266.0190  284.2430 C.2    11  ASP11       0.3668
      7  OD1      239.5550  265.1250  284.2180 O.co2  11  ASP11      -0.2456
      8  OD2      238.8170  267.0950  283.6290 O.co2  11  ASP11      -0.2456
      9  N        242.0740  263.7720  286.5130 N.3    13  GLY13      -0.1210
     10  CA       243.2480  263.6120  285.6850 C.3    13  GLY13       0.1956
     11  C        244.2620  262.7280  286.3740 C.2    13  GLY13       0.2613
     12  O        244.4610  261.5810  285.9660 O.2    13  GLY13      -0.2717
     13  N        244.9160  263.2420  287.4150 N.am   14  SER14      -0.1938
     14  CA       245.6960  262.3770  288.2890 C.3    14  SER14       0.2055
     15  C        245.6530  262.7900  289.7560 C.2    14  SER14       0.2644
     16  O        246.0450  262.0000  290.6200 O.2    14  SER14      -0.2714
     17  CB       247.1410  262.3130  287.7940 C.3    14  SER14       0.2130
     18  OG       247.7280  263.5960  287.7960 O.3    14  SER14      -0.2179
     19  N        245.2110  264.0070  290.0660 N.am   15  GLY15      -0.1939
     20  CA       245.4060  264.4940  291.4190 C.3    15  GLY15       0.2014
     21  C        244.3260  265.3420  292.0570 C.2    15  GLY15       0.2638
     22  O        244.4820  265.7630  293.2060 O.2    15  GLY15      -0.2714
     23  N        243.2340  265.6070  291.3470 N.am   16  LEU16      -0.1977
     24  CA       242.1960  266.4960  291.8630 C.3    16  LEU16       0.1596
     25  C        240.8910  266.1670  291.1580 C.2    16  LEU16       0.2287
     26  O        240.7720  266.3890  289.9500 O.2    16  LEU16      -0.2864
     27  CB       242.5790  267.9570  291.6440 C.3    16  LEU16       0.0297
     28  CG       241.6160  269.0120  292.1780 C.3    16  LEU16       0.0022
     29  CD1      241.5190  268.9190  293.6780 C.3    16  LEU16       0.0001
     30  CD2      242.0650  270.3980  291.7640 C.3    16  LEU16       0.0001
     31  N        237.3960  266.7840  289.8850 N.3    18  LYS18      -0.1245
     32  CA       236.4520  267.8470  289.5710 C.3    18  LYS18       0.1561
     33  C        235.3470  267.2350  288.7220 C.2    18  LYS18       0.2260
     34  O        235.6190  266.4710  287.7910 O.2    18  LYS18      -0.2867
     35  CB       237.1590  269.0190  288.8870 C.3    18  LYS18       0.0271
     36  CG       237.9110  268.6860  287.6130 C.3    18  LYS18       0.0035
     37  CD       238.6900  269.8820  287.1250 C.3    18  LYS18       0.0206
     38  CE       239.8780  270.1240  288.0310 C.3    18  LYS18       0.1093
     39  NZ       240.8550  269.0050  287.9560 N.3    18  LYS18      -0.1314
     40  N        242.2920  264.2680  277.9180 N.3   137  GLN137     -0.1245
     41  CA       242.4260  265.4740  278.7280 C.3   137  GLN137      0.1566
     42  C        242.8720  266.6900  277.9130 C.2   137  GLN137      0.2260
     43  O        242.2680  267.7680  278.0180 O.2   137  GLN137     -0.2867
     44  CB       243.4080  265.1780  279.8590 C.3   137  GLN137      0.0367
     45  CG       243.5800  266.2590  280.8800 C.3   137  GLN137      0.0905
     46  CD       244.4480  265.8210  282.0380 C.2   137  GLN137      0.2608
     47  OE1      244.9250  264.6890  282.0780 O.2   137  GLN137     -0.2717
     48  NE2      244.6610  266.7220  282.9900 N.am  137  GLN137     -0.0878
     49  N        249.1850  268.2080  284.2620 N.3   156  GLY156     -0.1210
     50  CA       248.4370  267.9600  285.4850 C.3   156  GLY156      0.1956
     51  C        249.2710  267.5150  286.6780 C.2   156  GLY156      0.2611
     52  O        250.4430  267.8750  286.8020 O.2   156  GLY156     -0.2717
     53  N        248.6840  266.7460  287.5880 N.am  157  ASP157     -0.1973
     54  CA       249.4310  266.3380  288.7700 C.3   157  ASP157      0.1709
     55  C        250.3810  265.1810  288.4840 C.2   157  ASP157      0.2293
     56  O        251.4040  265.0490  289.1640 O.2   157  ASP157     -0.2864
     57  CB       248.4680  265.9570  289.8980 C.3   157  ASP157      0.1436
     58  CG       249.1240  265.9750  291.2720 C.2   157  ASP157      0.3671
     59  OD1      250.2960  266.3850  291.3890 O.co2 157  ASP157     -0.2456
     60  OD2      248.4570  265.5770  292.2490 O.co2 157  ASP157     -0.2456
     61  N        251.0040  263.9090  284.8870 N.3   159  VAL159     -0.1245
     62  CA       251.2450  263.6910  283.4660 C.3   159  VAL159      0.1561
     63  C        251.2710  265.0380  282.7530 C.2   159  VAL159      0.2260
     64  O        250.6980  266.0230  283.2250 O.2   159  VAL159     -0.2867
     65  CB       250.1650  262.7350  282.8910 C.3   159  VAL159      0.0252
     66  CG1      248.8060  263.4160  282.7990 C.3   159  VAL159      0.0019
     67  CG2      250.5890  262.1130  281.5730 C.3   159  VAL159      0.0019
     68  N        253.3110  267.8550  288.7300 N.3   182  GLY182     -0.1225
     69  CA       253.2560  268.5960  289.9800 C.3   182  GLY182      0.1811
     70  C        253.5090  267.7770  291.2280 C.2   182  GLY182      0.2280
     71  O        253.9450  268.3350  292.2400 O.2   182  GLY182     -0.2866
     72  N        252.4760  270.6600  299.4070 N.3   210  ARG210     -0.1245
     73  CA       251.6860  270.9810  298.2210 C.3   210  ARG210      0.1563
     74  C        250.9880  272.3270  298.3740 C.2   210  ARG210      0.2260
     75  O        250.8550  273.0830  297.4010 O.2   210  ARG210     -0.2867
     76  CB       250.6580  269.8840  297.9580 C.3   210  ARG210      0.0307
     77  CG       249.9630  270.0090  296.6170 C.3   210  ARG210      0.0489
     78  CD       248.8810  268.9660  296.4510 C.3   210  ARG210      0.2205
     79  NE       247.7560  269.2230  297.3440 N.pl3 210  ARG210     -0.0865
     80  CZ       246.7580  270.0490  297.0510 C.cat 210  ARG210      0.5346
     81  NH1      246.7410  270.6810  295.8880 N.pl3 210  ARG210      0.1354
     82  NH2      245.7700  270.2340  297.9130 N.pl3 210  ARG210      0.1354
     83  N        253.5700  274.9750  297.7980 N.3   213  LYS213     -0.1231
     84  CA       253.8340  275.0450  296.3660 C.3   213  LYS213      0.1693
     85  C        252.7570  275.8400  295.6440 C.2   213  LYS213      0.2591
     86  O        253.0650  276.6480  294.7600 O.2   213  LYS213     -0.2718
     87  CB       253.9210  273.6420  295.7740 C.3   213  LYS213      0.0285
     88  CG       254.3160  273.6250  294.3090 C.3   213  LYS213      0.0035
     89  CD       254.3230  272.2100  293.7850 C.3   213  LYS213      0.0206
     90  CE       252.8960  271.7270  293.6350 C.3   213  LYS213      0.1093
     91  NZ       252.7860  270.3890  292.9990 N.3   213  LYS213     -0.1314
     92  N        251.4900  275.6260  296.0080 N.am  214  GLU214     -0.1979
     93  CA       250.4030  276.3490  295.3530 C.3   214  GLU214      0.1602
     94  C        250.4250  277.8300  295.7020 C.2   214  GLU214      0.2287
     95  O        250.1600  278.6800  294.8440 O.2   214  GLU214     -0.2864
     96  CB       249.0540  275.7470  295.7350 C.3   214  GLU214      0.0415
     97  CG       248.7810  274.3900  295.1390 C.3   214  GLU214      0.1163
     98  CD       247.4160  273.8670  295.5230 C.2   214  GLU214      0.3649
     99  OE1      246.7570  274.4980  296.3740 O.co2 214  GLU214     -0.2457
    100  OE2      246.9950  272.8360  294.9630 O.co2 214  GLU214     -0.2457
    101  N        246.6070  272.1280  284.7770 N.3   302  GLY302     -0.1210
    102  CA       247.1220  272.4010  286.1010 C.3   302  GLY302      0.1956
    103  C        248.5990  272.7400  286.0640 C.2   302  GLY302      0.2612
    104  O        249.2260  272.8030  285.0090 O.2   302  GLY302     -0.2717
    105  N        249.1500  273.0090  287.2570 N.am  303  THR303     -0.1952
    106  CA       250.5790  273.2800  287.5200 C.3   303  THR303      0.1897
    107  C        251.1770  274.3580  286.6160 C.2   303  THR303      0.2313
    108  O        252.3810  274.3510  286.3520 O.2   303  THR303     -0.2863
    109  CB       251.4370  272.0160  287.4100 C.3   303  THR303      0.1794
    110  OG1      251.5010  271.5970  286.0440 O.3   303  THR303     -0.2208
    111  CG2      250.8490  270.9030  288.2340 C.3   303  THR303      0.0378
    112  N        249.8640  277.6870  287.0890 N.3   305  MET305     -0.1230
    113  CA       249.4510  278.9020  287.7690 C.3   305  MET305      0.1702
    114  C        250.6110  279.6120  288.4500 C.2   305  MET305      0.2592
    115  O        250.3860  280.5610  289.2090 O.2   305  MET305     -0.2718
    116  CB       248.3560  278.5780  288.7800 C.3   305  MET305      0.0401
    117  CG       247.0250  278.3200  288.1220 C.3   305  MET305      0.0596
    118  SD       247.1000  276.8220  287.1250 S.3   305  MET305     -0.1393
    119  CE       247.1240  275.5540  288.3830 C.3   305  MET305      0.0692
    120  N        251.8330  279.1630  288.2100 N.am  306  TYR306     -0.1976
    121  CA       252.9990  279.8990  288.6510 C.3   306  TYR306      0.1639
    122  C        253.0930  281.1980  287.8570 C.2   306  TYR306      0.2290
    123  O        252.8850  281.1880  286.6380 O.2   306  TYR306     -0.2864
    124  CB       254.2480  279.0550  288.4480 C.3   306  TYR306      0.0560
    125  CG       254.1580  277.7210  289.1380 C.ar  306  TYR306     -0.0198
    126  CD1      254.3160  277.6100  290.5130 C.ar  306  TYR306     -0.0009
    127  CD2      253.9090  276.5630  288.4110 C.ar  306  TYR306     -0.0009
    128  CE1      254.2260  276.3850  291.1380 C.ar  306  TYR306      0.0417
    129  CE2      253.8230  275.3400  289.0350 C.ar  306  TYR306      0.0417
    130  CZ       253.9810  275.2580  290.3990 C.ar  306  TYR306      0.1957
    131  OH       253.8920  274.0350  291.0120 O.3   306  TYR306     -0.2866
    132  N        243.3920  275.2500  285.1030 N.3   336  LYS336     -0.1245
    133  CA       243.2090  274.2260  286.1370 C.3   336  LYS336      0.1561
    134  C        241.7780  273.6770  286.0790 C.2   336  LYS336      0.2260
    135  O        241.5160  272.6060  286.6260 O.2   336  LYS336     -0.2867
    136  CB       243.5330  274.7150  287.5700 C.3   336  LYS336      0.0271
    137  CG       243.6420  273.6750  288.6790 C.3   336  LYS336      0.0035
    138  CD       243.9190  274.3440  290.0020 C.3   336  LYS336      0.0206
    139  CE       242.6810  275.0520  290.5160 C.3   336  LYS336      0.1093
    140  NZ       242.9080  275.6360  291.8630 N.3   336  LYS336     -0.1314
    141  N        240.0040  271.5960  281.4460 N.3   339  VAL339     -0.1245
    142  CA       239.7230  270.2480  280.9820 C.3   339  VAL339      0.1561
    143  C        238.3010  269.8470  281.3540 C.2   339  VAL339      0.2260
    144  O        237.6080  269.1760  280.5740 O.2   339  VAL339     -0.2867
    145  CB       240.7890  269.2830  281.5200 C.3   339  VAL339      0.0252
    146  CG1      242.0810  269.5820  280.8240 C.3   339  VAL339      0.0019
    147  CG2      241.0010  269.4920  283.0040 C.3   339  VAL339      0.0019
@<TRIPOS>BOND
     1    42    43    2
     2    42    41    1
     3    40    41    1
     4    41    44    1
     5    44    45    1
     6   144   143    2
     7   146   145    1
     8    45    46    1
     9   142   143    1
    10   142   141    1
    11   142   145    1
    12   145   147    1
    13    67    65    1
    14    46    47    2
    15    46    48   am
    16    63    64    2
    17    63    62    1
    18    66    65    1
    19    65    62    1
    20    62    61    1
    21     8     6   ar
    22     7     6   ar
    23     6     5    1
    24    49    50    1
    25   101   102    1
    26   104   103    2
    27     5     2    1
    28   132   133    1
    29    50    51    1
    30     2     1    1
    31     2     3    1
    32    10    11    1
    33    10     9    1
    34    12    11    2
    35   110   109    1
    36   103   102    1
    37   103   105   am
    38   134   133    1
    39   134   135    2
    40   133   136    1
    41   108   107    2
    42    11    13   am
    43   107   106    1
    44   123   122    2
    45    51    52    2
    46    51    53   am
    47     3     4    2
    48   112   113    1
    49   118   117    1
    50   118   119    1
    51    37    36    1
    52    37    38    1
    53   105   106    1
    54   109   106    1
    55   109   111    1
    56    13    14    1
    57   136   137    1
    58    53    54    1
    59    36    35    1
    60   113   114    1
    61   113   116    1
    62    34    33    2
    63    17    18    1
    64    17    14    1
    65   122   121    1
    66    39    38    1
    67   117   116    1
    68   120   114   am
    69   120   121    1
    70    14    15    1
    71   127   129   ar
    72   127   125   ar
    73   124   121    1
    74   124   125    1
    75   114   115    2
    76    55    54    1
    77    55    56    2
    78   137   138    1
    79    33    32    1
    80    68    69    1
    81    54    57    1
    82    35    32    1
    83   129   130   ar
    84   125   126   ar
    85    32    31    1
    86    15    19   am
    87    15    16    2
    88    57    58    1
    89    26    25    2
    90    69    70    1
    91   138   139    1
    92    19    20    1
    93   130   131    1
    94   130   128   ar
    95   126   128   ar
    96   139   140    1
    97    25    24    1
    98    70    71    2
    99    58    59   ar
   100    58    60   ar
   101    23    24    1
   102    23    21   am
   103    20    21    1
   104    27    24    1
   105    27    28    1
   106    30    28    1
   107    21    22    2
   108    28    29    1
   109    91    90    1
   110    90    89    1
   111    89    88    1
   112    88    87    1
   113    86    85    2
   114    95    94    2
   115   100    98   ar
   116    97    98    1
   117    97    96    1
   118    93    94    1
   119    93    96    1
   120    93    92    1
   121    98    99   ar
   122    85    92   am
   123    85    84    1
   124    87    84    1
   125    81    80    1
   126    84    83    1
   127    78    77    1
   128    78    79    1
   129    77    76    1
   130    80    79    2
   131    80    82    1
   132    75    74    2
   133    76    73    1
   134    73    74    1
   135    73    72    1
