@<TRIPOS>MOLECULE
tmp/6c1iA00.pdb
 176 166 0 0 0
SMALL
GASTEIGER

@<TRIPOS>ATOM
      1  N         22.5010   69.2310   11.6250 N.3    69  PHE69      -0.1241
      2  CA        22.4230   68.7500   12.9980 C.3    69  PHE69       0.1605
      3  C         21.2810   69.4070   13.7620 C.2    69  PHE69       0.2264
      4  O         20.5880   68.7390   14.5340 O.2    69  PHE69      -0.2867
      5  CB        23.7460   68.9790   13.7260 C.3    69  PHE69       0.0534
      6  CG        23.8400   68.2260   15.0240 C.ar   69  PHE69      -0.0203
      7  CD1       24.2530   66.9020   15.0420 C.ar   69  PHE69      -0.0042
      8  CD2       23.4800   68.8280   16.2240 C.ar   69  PHE69      -0.0042
      9  CE1       24.3250   66.2010   16.2250 C.ar   69  PHE69      -0.0003
     10  CE2       23.5530   68.1260   17.4110 C.ar   69  PHE69      -0.0003
     11  CZ        23.9780   66.8130   17.4080 C.ar   69  PHE69      -0.0000
     12  N         18.0190   67.8110   12.3040 N.3    72  CYS72      -0.1221
     13  CA        17.7900   66.4810   12.8450 C.3    72  CYS72       0.1808
     14  C         17.5430   66.5860   14.3330 C.2    72  CYS72       0.2601
     15  O         16.8980   65.7460   14.9010 O.2    72  CYS72      -0.2717
     16  CB        18.9380   65.5150   12.5450 C.3    72  CYS72       0.0970
     17  SG        19.4290   64.3340   13.8200 S.3    72  CYS72      -0.0800
     18  N         18.0370   67.6350   14.9700 N.am   73  GLN73      -0.1979
     19  CA        17.7830   67.7880   16.4000 C.3    73  GLN73       0.1601
     20  C         16.3460   68.2160   16.6760 C.2    73  GLN73       0.2287
     21  O         15.7380   67.7510   17.6470 O.2    73  GLN73      -0.2864
     22  CB        18.7680   68.7890   17.0080 C.3    73  GLN73       0.0394
     23  CG        18.2420   69.5030   18.2410 C.3    73  GLN73       0.0908
     24  CD        19.2460   70.4770   18.8430 C.2    73  GLN73       0.2608
     25  OE1       20.4640   70.2660   18.7740 O.2    73  GLN73      -0.2717
     26  NE2       18.7340   71.5490   19.4440 N.am   73  GLN73      -0.0878
     27  N         13.7620   67.5320   14.7300 N.3    75  ARG75      -0.1231
     28  CA        12.9450   66.3620   14.4410 C.3    75  ARG75       0.1694
     29  C         12.9530   65.3830   15.6100 C.2    75  ARG75       0.2592
     30  O         11.9520   64.7000   15.8570 O.2    75  ARG75      -0.2718
     31  CB        13.4380   65.6860   13.1540 C.3    75  ARG75       0.0321
     32  CG        12.7640   64.3560   12.8170 C.3    75  ARG75       0.0489
     33  CD        11.2410   64.4630   12.8460 C.3    75  ARG75       0.2205
     34  NE        10.5990   63.1540   12.7710 N.pl3  75  ARG75      -0.0865
     35  CZ         9.5530   62.7730   13.5020 C.cat  75  ARG75       0.5346
     36  NH1        9.0040   63.6000   14.3870 N.pl3  75  ARG75       0.1354
     37  NH2        9.0460   61.5540   13.3470 N.pl3  75  ARG75       0.1354
     38  N         14.0580   65.3090   16.3460 N.am   76  SER76      -0.1952
     39  CA        14.0880   64.4390   17.5160 C.3    76  SER76       0.1924
     40  C         13.1280   64.9340   18.5890 C.2    76  SER76       0.2314
     41  O         12.4460   64.1350   19.2440 O.2    76  SER76      -0.2863
     42  CB        15.5100   64.3550   18.0610 C.3    76  SER76       0.2116
     43  OG        15.9440   63.0170   18.0900 O.3    76  SER76      -0.2180
     44  N          9.7570   63.8300   17.5670 N.3    79  ALA79      -0.1245
     45  CA         9.6020   62.4050   17.8080 C.3    79  ALA79       0.1562
     46  C          9.3710   62.1290   19.2870 C.2    79  ALA79       0.2260
     47  O          8.5070   61.3210   19.6420 O.2    79  ALA79      -0.2867
     48  CB        10.8200   61.6570   17.2850 C.3    79  ALA79       0.0290
     49  N         15.0190   57.3620   23.3490 N.3   110  HIS110     -0.1241
     50  CA        15.9900   57.2870   22.2700 C.3   110  HIS110      0.1621
     51  C         16.0430   55.9040   21.6610 C.2   110  HIS110      0.2264
     52  O         16.2180   55.7780   20.4480 O.2   110  HIS110     -0.2867
     53  CB        17.3530   57.7460   22.7580 C.3   110  HIS110      0.0745
     54  CG        17.4720   59.2330   22.7990 C.ar  110  HIS110      0.0817
     55  ND1       17.5770   59.9410   23.9780 N.ar  110  HIS110     -0.2268
     56  CD2       17.4400   60.1550   21.8050 C.ar  110  HIS110      0.1154
     57  CE1       17.6250   61.2340   23.7070 C.ar  110  HIS110      0.1986
     58  NE2       17.5480   61.3910   22.3970 N.ar  110  HIS110     -0.2212
     59  N         13.3960   56.1230   19.1910 N.3   113  ILE113     -0.1231
     60  CA        13.8080   56.9430   18.0560 C.3   113  ILE113      0.1692
     61  C         14.4360   56.0810   16.9690 C.2   113  ILE113      0.2592
     62  O         14.0180   56.1140   15.8070 O.2   113  ILE113     -0.2718
     63  CB        14.7910   58.0350   18.5130 C.3   113  ILE113      0.0266
     64  CG1       14.1490   58.9720   19.5180 C.3   113  ILE113      0.0019
     65  CG2       15.3100   58.8130   17.3270 C.3   113  ILE113      0.0020
     66  CD1       13.0480   59.7160   18.9580 C.3   113  ILE113      0.0001
     67  N         15.4630   55.3080   17.3340 N.am  114  TYR114     -0.1976
     68  CA        16.2630   54.5610   16.3680 C.3   114  TYR114      0.1639
     69  C         15.5730   53.2850   15.9070 C.2   114  TYR114      0.2290
     70  O         15.8540   52.8000   14.8020 O.2   114  TYR114     -0.2864
     71  CB        17.6380   54.2540   16.9860 C.3   114  TYR114      0.0560
     72  CG        18.2630   55.5140   17.5600 C.ar  114  TYR114     -0.0198
     73  CD1       18.2540   56.7010   16.8250 C.ar  114  TYR114     -0.0009
     74  CD2       18.8140   55.5430   18.8330 C.ar  114  TYR114     -0.0009
     75  CE1       18.7830   57.8720   17.3290 C.ar  114  TYR114      0.0417
     76  CE2       19.3550   56.7270   19.3490 C.ar  114  TYR114      0.0417
     77  CZ        19.3350   57.8840   18.5820 C.ar  114  TYR114      0.1957
     78  OH        19.8620   59.0710   19.0530 O.3   114  TYR114     -0.2866
     79  N         13.1980   55.1370   13.4050 N.3   117  LEU117     -0.1245
     80  CA        14.0520   55.6590   12.3540 C.3   117  LEU117      0.1561
     81  C         14.4580   54.5680   11.3760 C.2   117  LEU117      0.2260
     82  O         14.5340   54.8040   10.1650 O.2   117  LEU117     -0.2867
     83  CB        15.2850   56.3060   12.9740 C.3   117  LEU117      0.0270
     84  CG        16.1710   57.0420   11.9940 C.3   117  LEU117      0.0019
     85  CD1       15.3700   58.1530   11.3200 C.3   117  LEU117      0.0001
     86  CD2       17.3550   57.5860   12.7710 C.3   117  LEU117      0.0001
     87  N         12.5430   54.4250    8.3300 N.3   120  LEU120     -0.1245
     88  CA        12.7260   55.4460    7.3060 C.3   120  LEU120      0.1561
     89  C         14.0010   55.2330    6.5020 C.2   120  LEU120      0.2260
     90  O         14.3560   56.0870    5.6830 O.2   120  LEU120     -0.2867
     91  CB        12.7390   56.8530    7.9220 C.3   120  LEU120      0.0270
     92  CG        11.7110   57.2610    8.9920 C.3   120  LEU120      0.0019
     93  CD1       11.5990   58.7850    9.1010 C.3   120  LEU120      0.0001
     94  CD2       10.3680   56.6530    8.7330 C.3   120  LEU120      0.0001
     95  N         14.6840   58.8030    4.8500 N.3   127  LEU127     -0.1245
     96  CA        13.6850   59.8250    4.5690 C.3   127  LEU127      0.1561
     97  C         13.7580   60.9470    5.5920 C.2   127  LEU127      0.2260
     98  O         14.1420   60.7450    6.7460 O.2   127  LEU127     -0.2867
     99  CB        12.2870   59.2220    4.5800 C.3   127  LEU127      0.0270
    100  CG        12.1430   58.1880    3.4780 C.3   127  LEU127      0.0019
    101  CD1       10.8530   57.3800    3.6710 C.3   127  LEU127      0.0001
    102  CD2       12.1590   58.9500    2.1650 C.3   127  LEU127      0.0001
    103  N         27.6780   60.5740   12.9200 N.3   150  PHE150     -0.1227
    104  CA        26.4980   60.4800   13.7690 C.3   150  PHE150      0.1736
    105  C         25.5220   59.4230   13.2660 C.2   150  PHE150      0.2595
    106  O         24.9730   58.6580   14.0640 O.2   150  PHE150     -0.2718
    107  CB        25.8090   61.8410   13.8720 C.3   150  PHE150      0.0547
    108  CG        26.0460   62.5340   15.1830 C.ar  150  PHE150     -0.0202
    109  CD1       25.4870   62.0430   16.3510 C.ar  150  PHE150     -0.0042
    110  CD2       26.8470   63.6640   15.2530 C.ar  150  PHE150     -0.0042
    111  CE1       25.7170   62.6710   17.5640 C.ar  150  PHE150     -0.0003
    112  CE2       27.0810   64.3010   16.4700 C.ar  150  PHE150     -0.0003
    113  CZ        26.5170   63.8050   17.6230 C.ar  150  PHE150     -0.0000
    114  N         25.2820   59.3590   11.9540 N.am  151  MET151     -0.1979
    115  CA        24.1940   58.5190   11.4600 C.3   151  MET151      0.1605
    116  C         24.6290   57.1110   11.0970 C.2   151  MET151      0.2287
    117  O         23.8100   56.1930   11.1800 O.2   151  MET151     -0.2864
    118  CB        23.5130   59.1770   10.2580 C.3   151  MET151      0.0413
    119  CG        22.7480   60.4610   10.6310 C.3   151  MET151      0.0598
    120  SD        21.6380   60.2850   12.0660 S.3   151  MET151     -0.1393
    121  CE        20.5320   59.0350   11.4510 C.3   151  MET151      0.0692
    122  N         23.3900   54.2860   13.1410 N.3   154  LYS154     -0.1245
    123  CA        21.9520   54.0950   12.9500 C.3   154  LYS154      0.1561
    124  C         21.6650   53.3150   11.6690 C.2   154  LYS154      0.2260
    125  O         20.8080   52.4210   11.6590 O.2   154  LYS154     -0.2867
    126  CB        21.2210   55.4430   12.9260 C.3   154  LYS154      0.0271
    127  CG        21.8010   56.5310   13.8140 C.3   154  LYS154      0.0035
    128  CD        21.6430   56.1920   15.2720 C.3   154  LYS154      0.0206
    129  CE        21.8940   57.4030   16.1840 C.3   154  LYS154      0.1093
    130  NZ        23.2610   57.9760   16.1140 N.3   154  LYS154     -0.1314
    131  N         25.9260   57.5920   20.9510 N.3   236  HIS236     -0.1241
    132  CA        25.3270   58.8810   20.6220 C.3   236  HIS236      0.1621
    133  C         25.6260   59.9300   21.6900 C.2   236  HIS236      0.2264
    134  O         26.1050   61.0250   21.3720 O.2   236  HIS236     -0.2867
    135  CB        23.8170   58.7210   20.4180 C.3   236  HIS236      0.0745
    136  CG        23.1560   59.9330   19.8380 C.ar  236  HIS236      0.0817
    137  ND1       23.0070   60.1230   18.4800 N.ar  236  HIS236     -0.2268
    138  CD2       22.6140   61.0220   20.4340 C.ar  236  HIS236      0.1154
    139  CE1       22.3980   61.2760   18.2650 C.ar  236  HIS236      0.1986
    140  NE2       22.1490   61.8400   19.4330 N.ar  236  HIS236     -0.2212
    141  N         27.6530   63.3280   21.4370 N.3   240  LEU240     -0.1245
    142  CA        27.0470   64.6100   21.7810 C.3   240  LEU240      0.1561
    143  C         27.9370   65.4150   22.7230 C.2   240  LEU240      0.2260
    144  O         28.0130   66.6450   22.6130 O.2   240  LEU240     -0.2867
    145  CB        25.6700   64.3880   22.4050 C.3   240  LEU240      0.0270
    146  CG        24.5230   64.1130   21.4290 C.3   240  LEU240      0.0019
    147  CD1       23.2150   64.0030   22.1720 C.3   240  LEU240      0.0001
    148  CD2       24.4490   65.1970   20.3810 C.3   240  LEU240      0.0001
    149  N         21.4530   73.0230   22.3170 N.3   252  LEU252     -0.1245
    150  CA        20.5990   71.8450   22.3580 C.3   252  LEU252      0.1561
    151  C         19.2290   72.2180   22.9170 C.2   252  LEU252      0.2260
    152  O         19.1120   73.0790   23.7930 O.2   252  LEU252     -0.2867
    153  CB        21.2380   70.7430   23.2060 C.3   252  LEU252      0.0270
    154  CG        20.5220   69.3930   23.1660 C.3   252  LEU252      0.0019
    155  CD1       20.3140   68.9390   21.7250 C.3   252  LEU252      0.0001
    156  CD2       21.2730   68.3370   23.9680 C.3   252  LEU252      0.0001
    157  N         15.4110   67.8330   24.9220 N.3   256  LEU256     -0.1245
    158  CA        16.4700   66.8740   24.6440 C.3   256  LEU256      0.1561
    159  C         17.5850   66.9390   25.6800 C.2   256  LEU256      0.2260
    160  O         18.1880   65.9090   26.0020 O.2   256  LEU256     -0.2867
    161  CB        17.0310   67.1210   23.2410 C.3   256  LEU256      0.0270
    162  CG        16.0700   66.7770   22.1050 C.3   256  LEU256      0.0019
    163  CD1       16.6910   67.1620   20.7740 C.3   256  LEU256      0.0001
    164  CD2       15.6980   65.2910   22.1430 C.3   256  LEU256      0.0001
    165  N         19.0020   63.8760   28.4600 N.3   260  TYR260     -0.1241
    166  CA        20.4040   63.4750   28.5650 C.3   260  TYR260      0.1605
    167  C         20.9600   63.8570   29.9350 C.2   260  TYR260      0.2264
    168  O         21.1460   65.0420   30.2350 O.2   260  TYR260     -0.2867
    169  CB        21.2270   64.1220   27.4550 C.3   260  TYR260      0.0534
    170  CG        20.9490   63.5540   26.0840 C.ar  260  TYR260     -0.0201
    171  CD1       21.0870   62.1940   25.8330 C.ar  260  TYR260     -0.0009
    172  CD2       20.5440   64.3770   25.0400 C.ar  260  TYR260     -0.0009
    173  CE1       20.8270   61.6710   24.5770 C.ar  260  TYR260      0.0417
    174  CE2       20.2740   63.8650   23.7890 C.ar  260  TYR260      0.0417
    175  CZ        20.4290   62.5140   23.5600 C.ar  260  TYR260      0.1957
    176  OH        20.1700   61.9970   22.3080 O.3   260  TYR260     -0.2866
@<TRIPOS>BOND
     1   102   100    1
     2   100   101    1
     3   100    99    1
     4    96    99    1
     5    96    95    1
     6    96    97    1
     7    97    98    2
     8    90    89    2
     9    89    88    1
    10    88    91    1
    11    88    87    1
    12    91    92    1
    13    94    92    1
    14    92    93    1
    15    82    81    2
    16   118   119    1
    17   118   115    1
    18   119   120    1
    19   116   117    2
    20   116   115    1
    21    85    84    1
    22    81    80    1
    23   121   120    1
    24   115   114    1
    25     1     2    1
    26   125   124    2
    27   124   123    1
    28   114   105   am
    29    84    86    1
    30    84    83    1
    31    12    13    1
    32    80    83    1
    33    80    79    1
    34    16    13    1
    35    16    17    1
    36    34    33    1
    37    34    35    2
    38    32    33    1
    39    32    31    1
    40    13    14    1
    41   103   104    1
    42   126   123    1
    43   126   127    1
    44   123   122    1
    45     2     5    1
    46     2     3    1
    47    31    28    1
    48   105   104    1
    49   105   106    2
    50    37    35    1
    51    35    36    1
    52     5     6    1
    53     3     4    2
    54   104   107    1
    55   127   128    1
    56   107   108    1
    57    14    15    2
    58    14    18   am
    59    28    27    1
    60    28    29    1
    61    70    69    2
    62    18    19    1
    63     6     7   ar
    64     6     8   ar
    65     7     9   ar
    66   108   110   ar
    67   108   109   ar
    68   110   112   ar
    69   128   129    1
    70    29    30    2
    71    29    38   am
    72    62    61    2
    73    69    68    1
    74   130   129    1
    75     8    10   ar
    76     9    11   ar
    77    38    39    1
    78   109   111   ar
    79    68    71    1
    80    68    67    1
    81    19    20    1
    82    19    22    1
    83   112   113   ar
    84    20    21    2
    85    73    75   ar
    86    73    72   ar
    87    61    67   am
    88    61    60    1
    89    71    72    1
    90    22    23    1
    91    48    45    1
    92    65    63    1
    93    75    77   ar
    94    11    10   ar
    95    39    42    1
    96    39    40    1
    97    72    74   ar
    98   111   113   ar
    99    44    45    1
   100    45    46    1
   101    60    63    1
   102    60    59    1
   103    42    43    1
   104    23    24    1
   105   139   137   ar
   106   139   140   ar
   107   137   136   ar
   108    63    64    1
   109    77    78    1
   110    77    76   ar
   111    40    41    2
   112    25    24    2
   113    74    76   ar
   114    24    26   am
   115    66    64    1
   116    46    47    2
   117   140   138   ar
   118   136   135    1
   119   136   138   ar
   120   148   146    1
   121   135   132    1
   122    52    51    2
   123   132   131    1
   124   132   133    1
   125   163   162    1
   126   134   133    2
   127   146   147    1
   128   146   145    1
   129   141   142    1
   130    51    50    1
   131   155   154    1
   132   142   145    1
   133   142   143    1
   134    56    58   ar
   135    56    54   ar
   136   162   164    1
   137   162   161    1
   138    50    53    1
   139    50    49    1
   140   176   175    1
   141   149   150    1
   142   150   151    1
   143   150   153    1
   144    58    57   ar
   145   144   143    2
   146    53    54    1
   147    54    55   ar
   148   151   152    2
   149   154   153    1
   150   154   156    1
   151   161   158    1
   152   175   174   ar
   153   175   173   ar
   154    57    55   ar
   155   174   172   ar
   156   173   171   ar
   157   158   157    1
   158   158   159    1
   159   172   170   ar
   160   159   160    2
   161   171   170   ar
   162   170   169    1
   163   169   166    1
   164   165   166    1
   165   166   167    1
   166   167   168    2
