@<TRIPOS>MOLECULE
tmp/6c1kB08.pdb
 92 91 0 0 0
SMALL
GASTEIGER

@<TRIPOS>ATOM
      1  N         29.7850   73.3110   38.1340 N.3    75  PRO75      -0.2102
      2  CA        29.1290   72.9510   36.8750 C.3    75  PRO75       0.1504
      3  C         28.8700   74.1770   36.0160 C.2    75  PRO75       0.2575
      4  O         29.1320   74.1750   34.8070 O.2    75  PRO75      -0.2718
      5  CB        27.8070   72.3270   37.3300 C.3    75  PRO75       0.0282
      6  CG        28.0470   71.8640   38.6920 C.3    75  PRO75       0.0208
      7  CD        29.0260   72.8340   39.3000 C.3    75  PRO75       0.0893
      8  N         28.3780   75.2260   36.6660 N.am   76  TRP76      -0.1977
      9  CA        27.9970   76.4560   35.9900 C.3    76  TRP76       0.1640
     10  C         29.1970   77.1770   35.3950 C.2    76  TRP76       0.2290
     11  O         29.0760   77.9090   34.4200 O.2    76  TRP76      -0.2864
     12  CB        27.2730   77.3820   36.9650 C.3    76  TRP76       0.0576
     13  CG        26.1950   76.7180   37.7590 C.ar   76  TRP76       0.0006
     14  CD1       26.3070   76.2040   39.0090 C.ar   76  TRP76       0.0946
     15  CD2       24.8310   76.5040   37.3570 C.ar   76  TRP76       0.0152
     16  NE1       25.1040   75.6820   39.4210 N.ar   76  TRP76      -0.2442
     17  CE2       24.1800   75.8540   38.4250 C.ar   76  TRP76       0.0810
     18  CE3       24.1010   76.7930   36.1950 C.ar   76  TRP76       0.0012
     19  CZ2       22.8290   75.4910   38.3730 C.ar   76  TRP76       0.0191
     20  CZ3       22.7560   76.4300   36.1430 C.ar   76  TRP76       0.0001
     21  CH2       22.1370   75.7840   37.2230 C.ar   76  TRP76       0.0015
     22  N         30.3710   75.1670   32.3170 N.3    79  PHE79      -0.1241
     23  CA        29.5030   75.5180   31.2020 C.3    79  PHE79       0.1605
     24  C         29.9120   76.8500   30.5740 C.2    79  PHE79       0.2264
     25  O         30.0810   76.9480   29.3530 O.2    79  PHE79      -0.2867
     26  CB        28.0350   75.5720   31.6140 C.3    79  PHE79       0.0534
     27  CG        27.1370   75.9580   30.4790 C.ar   79  PHE79      -0.0203
     28  CD1       26.8640   75.0410   29.4510 C.ar   79  PHE79      -0.0042
     29  CD2       26.5840   77.2270   30.4020 C.ar   79  PHE79      -0.0042
     30  CE1       26.0450   75.3790   28.3650 C.ar   79  PHE79      -0.0003
     31  CE2       25.7610   77.5770   29.3170 C.ar   79  PHE79      -0.0003
     32  CZ        25.4930   76.6440   28.2940 C.ar   79  PHE79      -0.0000
     33  N         22.7410   80.7340   26.8850 N.3   107  PHE107     -0.1241
     34  CA        22.3240   79.9430   28.0300 C.3   107  PHE107      0.1605
     35  C         23.0970   80.4340   29.2350 C.2   107  PHE107      0.2264
     36  O         22.8910   80.0000   30.3640 O.2   107  PHE107     -0.2867
     37  CB        22.5700   78.4600   27.7950 C.3   107  PHE107      0.0534
     38  CG        21.4640   77.7830   27.0650 C.ar  107  PHE107     -0.0203
     39  CD1       20.1690   77.8150   27.5660 C.ar  107  PHE107     -0.0042
     40  CD2       21.7060   77.1090   25.8700 C.ar  107  PHE107     -0.0042
     41  CE1       19.1300   77.1840   26.8820 C.ar  107  PHE107     -0.0003
     42  CE2       20.6750   76.4770   25.1900 C.ar  107  PHE107     -0.0003
     43  CZ        19.3870   76.5140   25.6920 C.ar  107  PHE107     -0.0000
     44  N         21.1150   81.7800   32.0020 N.3   110  VAL110     -0.1231
     45  CA        20.7230   80.8430   33.0450 C.3   110  VAL110      0.1692
     46  C         21.8090   80.7860   34.1150 C.2   110  VAL110      0.2592
     47  O         21.5290   80.7680   35.3190 O.2   110  VAL110     -0.2718
     48  CB        20.4910   79.4230   32.4520 C.3   110  VAL110      0.0266
     49  CG1       20.6580   78.3420   33.5180 C.3   110  VAL110      0.0020
     50  CG2       19.1370   79.3310   31.7290 C.3   110  VAL110      0.0020
     51  N         23.0590   80.7800   33.6680 N.am  111  THR111     -0.1953
     52  CA        24.1780   80.8140   34.5870 C.3   111  THR111      0.1897
     53  C         24.1930   82.1070   35.4000 C.2   111  THR111      0.2313
     54  O         24.1350   82.0780   36.6210 O.2   111  THR111     -0.2863
     55  CB        25.5180   80.6810   33.8590 C.3   111  THR111      0.1794
     56  OG1       25.6630   79.3490   33.3730 O.3   111  THR111     -0.2208
     57  CG2       26.6400   80.9260   34.8360 C.3   111  THR111      0.0378
     58  N         16.6600   75.1910   36.6410 N.3   120  VAL120     -0.1231
     59  CA        17.4850   74.2410   35.9080 C.3   120  VAL120      0.1692
     60  C         17.9710   73.1740   36.8820 C.2   120  VAL120      0.2592
     61  O         17.8700   71.9740   36.5880 O.2   120  VAL120     -0.2718
     62  CB        18.6840   74.9010   35.2120 C.3   120  VAL120      0.0266
     63  CG1       19.5470   73.8410   34.5540 C.3   120  VAL120      0.0020
     64  CG2       18.2070   75.8790   34.1730 C.3   120  VAL120      0.0020
     65  N         18.4270   73.6170   38.0610 N.am  121  SER121     -0.1952
     66  CA        18.8640   72.7090   39.1260 C.3   121  SER121      0.1924
     67  C         17.7610   71.7690   39.5500 C.2   121  SER121      0.2314
     68  O         17.9960   70.5720   39.7040 O.2   121  SER121     -0.2863
     69  CB        19.3430   73.4770   40.3570 C.3   121  SER121      0.2116
     70  OG        20.6500   73.9770   40.1620 O.3   121  SER121     -0.2180
     71  N         15.1070   70.8840   37.7990 N.3   123  LEU123     -0.1231
     72  CA        14.8110   69.9670   36.6980 C.3   123  LEU123      0.1693
     73  C         15.8220   68.8320   36.5900 C.2   123  LEU123      0.2592
     74  O         15.4480   67.6650   36.4330 O.2   123  LEU123     -0.2718
     75  CB        14.7490   70.7230   35.3670 C.3   123  LEU123      0.0284
     76  CG        13.5980   71.7190   35.2340 C.3   123  LEU123      0.0019
     77  CD1       13.8840   72.6910   34.1170 C.3   123  LEU123      0.0001
     78  CD2       12.2960   70.9880   34.9860 C.3   123  LEU123      0.0001
     79  N         17.0980   69.1900   36.6860 N.am  124  ILE124     -0.1966
     80  CA        18.1970   68.2360   36.5850 C.3   124  ILE124      0.1727
     81  C         18.2550   67.2020   37.7150 C.2   124  ILE124      0.2616
     82  O         18.5360   66.0290   37.4750 O.2   124  ILE124     -0.2715
     83  CB        19.5350   68.9960   36.5050 C.3   124  ILE124      0.0290
     84  CG1       19.7400   69.5090   35.0840 C.3   124  ILE124      0.0022
     85  CG2       20.7010   68.1100   36.8510 C.3   124  ILE124      0.0023
     86  CD1       20.9150   70.4090   34.9710 C.3   124  ILE124      0.0001
     87  N         17.9750   67.6300   38.9390 N.am  125  SER125     -0.1950
     88  CA        18.0740   66.7550   40.1050 C.3   125  SER125      0.1924
     89  C         17.0890   65.5910   40.0260 C.2   125  SER125      0.2314
     90  O         17.2290   64.5840   40.7190 O.2   125  SER125     -0.2863
     91  CB        17.8320   67.5600   41.3780 C.3   125  SER125      0.2116
     92  OG        16.5150   68.0820   41.3810 O.3   125  SER125     -0.2180
@<TRIPOS>BOND
     1    42    43   ar
     2    42    40   ar
     3    43    41   ar
     4    40    38   ar
     5    41    39   ar
     6    33    34    1
     7    38    39   ar
     8    38    37    1
     9    37    34    1
    10    34    35    1
    11    32    30   ar
    12    32    31   ar
    13    30    28   ar
    14    35    36    2
    15    31    29   ar
    16    25    24    2
    17    28    27   ar
    18    29    27   ar
    19    27    26    1
    20    24    23    1
    21    23    26    1
    22    23    22    1
    23    50    48    1
    24    44    45    1
    25    48    45    1
    26    48    49    1
    27    45    46    1
    28    56    55    1
    29    51    46   am
    30    51    52    1
    31    55    52    1
    32    55    57    1
    33    46    47    2
    34    77    76    1
    35    64    62    1
    36    11    10    2
    37    63    62    1
    38    52    53    1
    39     4     3    2
    40    86    84    1
    41    78    76    1
    42    84    83    1
    43    62    59    1
    44    76    75    1
    45    75    72    1
    46    10     9    1
    47    53    54    2
    48    59    58    1
    49    59    60    1
    50     9     8    1
    51     9    12    1
    52     3     8   am
    53     3     2    1
    54    20    18   ar
    55    20    21   ar
    56    18    15   ar
    57    74    73    2
    58    83    80    1
    59    83    85    1
    60    80    79    1
    61    80    81    1
    62    61    60    2
    63    73    79   am
    64    73    72    1
    65    72    71    1
    66     2     5    1
    67     2     1    1
    68    60    65   am
    69    12    13    1
    70    21    19   ar
    71     5     6    1
    72    15    13   ar
    73    15    17   ar
    74    82    81    2
    75    81    87   am
    76    13    14   ar
    77    65    66    1
    78     1     7    1
    79    19    17   ar
    80    17    16   ar
    81     6     7    1
    82    87    88    1
    83    14    16   ar
    84    66    67    1
    85    66    69    1
    86    67    68    2
    87    89    88    1
    88    89    90    2
    89    88    91    1
    90    70    69    1
    91    91    92    1
