@<TRIPOS>MOLECULE
tmp/6c1kB05.pdb
 88 81 0 0 0
SMALL
GASTEIGER

@<TRIPOS>ATOM
      1  N         16.7570   63.8490   37.3370 N.3   127  ILE127     -0.1245
      2  CA        17.3000   62.8900   36.3590 C.3   127  ILE127      0.1561
      3  C         17.9720   61.6180   36.9310 C.2   127  ILE127      0.2260
      4  O         17.8370   60.5450   36.3340 O.2   127  ILE127     -0.2867
      5  CB        18.2620   63.6160   35.3820 C.3   127  ILE127      0.0252
      6  CG1       17.4900   64.7610   34.7040 C.3   127  ILE127      0.0019
      7  CG2       18.8160   62.6530   34.3280 C.3   127  ILE127      0.0019
      8  CD1       18.1220   65.3150   33.4270 C.3   127  ILE127      0.0001
      9  N         15.9330   58.3860   37.4230 N.3   130  MET130     -0.1245
     10  CA        15.3190   58.0350   36.1600 C.3   130  MET130      0.1570
     11  C         16.2320   57.1050   35.3750 C.2   130  MET130      0.2261
     12  O         15.7660   56.3580   34.5220 O.2   130  MET130     -0.2867
     13  CB        15.0140   59.2900   35.3410 C.3   130  MET130      0.0387
     14  CG        13.7030   59.9700   35.6870 C.3   130  MET130      0.0595
     15  SD        13.4370   61.4690   34.7000 S.3   130  MET130     -0.1393
     16  CE        13.4420   60.7660   33.0690 C.3   130  MET130      0.0692
     17  N         15.5790   54.8810   32.1160 N.3   134  ILE134     -0.1245
     18  CA        16.2430   55.2250   30.8640 C.3   134  ILE134      0.1561
     19  C         17.1130   54.0920   30.3360 C.2   134  ILE134      0.2260
     20  O         17.0830   53.7760   29.1560 O.2   134  ILE134     -0.2867
     21  CB        17.1110   56.4620   31.0320 C.3   134  ILE134      0.0252
     22  CG1       16.2160   57.6870   31.2270 C.3   134  ILE134      0.0019
     23  CG2       18.0490   56.6400   29.8140 C.3   134  ILE134      0.0019
     24  CD1       16.9720   58.9210   31.6560 C.3   134  ILE134      0.0001
     25  N         11.9400   55.4940   17.4470 N.3   171  PHE171     -0.1241
     26  CA        11.7050   56.6860   18.2430 C.3   171  PHE171      0.1605
     27  C         10.4470   57.4150   17.8170 C.2   171  PHE171      0.2264
     28  O          9.6540   57.8570   18.6590 O.2   171  PHE171     -0.2867
     29  CB        12.8660   57.6510   18.1610 C.3   171  PHE171      0.0534
     30  CG        12.6710   58.8580   19.0260 C.ar  171  PHE171     -0.0203
     31  CD1       12.6990   58.7490   20.4050 C.ar  171  PHE171     -0.0042
     32  CD2       12.4110   60.0960   18.4630 C.ar  171  PHE171     -0.0042
     33  CE1       12.5100   59.8570   21.1970 C.ar  171  PHE171     -0.0003
     34  CE2       12.2200   61.1990   19.2590 C.ar  171  PHE171     -0.0003
     35  CZ        12.2760   61.0750   20.6270 C.ar  171  PHE171     -0.0000
     36  N          7.3950   55.7510   18.9380 N.3   174  MET174     -0.1230
     37  CA         7.1790   56.0840   20.3410 C.3   174  MET174      0.1702
     38  C          6.4670   57.4470   20.5230 C.2   174  MET174      0.2593
     39  O          5.6260   57.6060   21.4090 O.2   174  MET174     -0.2718
     40  CB         8.5010   56.0830   21.0860 C.3   174  MET174      0.0401
     41  CG         8.3320   56.5310   22.4810 C.3   174  MET174      0.0596
     42  SD         9.7080   56.1370   23.5520 S.3   174  MET174     -0.1393
     43  CE        10.7700   57.5280   23.1730 C.3   174  MET174      0.0692
     44  N          6.8150   58.4410   19.7090 N.am  175  THR175     -0.1939
     45  CA         6.1140   59.7130   19.7920 C.3   175  THR175      0.2028
     46  C          4.7080   59.5910   19.1820 C.2   175  THR175      0.2642
     47  O          3.9030   60.5200   19.2690 O.2   175  THR175     -0.2714
     48  CB         6.8980   60.8250   19.0870 C.3   175  THR175      0.1808
     49  OG1        6.8350   60.6390   17.6620 O.3   175  THR175     -0.2208
     50  CG2        8.3740   60.8070   19.5580 C.3   175  THR175      0.0379
     51  N          4.4250   58.4250   18.5930 N.am  176  LEU176     -0.1977
     52  CA         3.1380   58.0810   17.9720 C.3   176  LEU176      0.1596
     53  C          2.9120   58.8560   16.6960 C.2   176  LEU176      0.2287
     54  O          1.7960   58.8350   16.1570 O.2   176  LEU176     -0.2864
     55  CB         1.9590   58.3210   18.9080 C.3   176  LEU176      0.0297
     56  CG         1.9460   57.5510   20.2350 C.3   176  LEU176      0.0022
     57  CD1        0.7600   57.9800   21.1130 C.3   176  LEU176      0.0001
     58  CD2        1.9260   56.0470   19.9830 C.3   176  LEU176      0.0001
     59  N          6.4600   50.7490   25.5390 N.3   205  VAL205     -0.1231
     60  CA         7.0490   52.0810   25.5250 C.3   205  VAL205      0.1692
     61  C          6.1120   53.1580   26.1150 C.2   205  VAL205      0.2592
     62  O          6.5690   54.1000   26.7660 O.2   205  VAL205     -0.2718
     63  CB         7.4570   52.4330   24.0730 C.3   205  VAL205      0.0266
     64  CG1        6.9090   53.7610   23.6530 C.3   205  VAL205      0.0020
     65  CG2        8.9620   52.3300   23.9100 C.3   205  VAL205      0.0020
     66  N          4.8040   53.0160   25.9210 N.am  206  THR206     -0.1953
     67  CA         3.8680   53.9730   26.5070 C.3   206  THR206      0.1897
     68  C          3.7360   53.7790   28.0190 C.2   206  THR206      0.2313
     69  O          3.7280   54.7370   28.7970 O.2   206  THR206     -0.2863
     70  CB         2.4890   53.8520   25.8730 C.3   206  THR206      0.1794
     71  OG1        2.6030   54.0980   24.4710 O.3   206  THR206     -0.2208
     72  CG2        1.5570   54.8720   26.4400 C.3   206  THR206      0.0378
     73  N          6.7490   55.2550   29.8350 N.3   209  MET209     -0.1245
     74  CA         6.6190   56.7080   29.8940 C.3   209  MET209      0.1570
     75  C          5.6200   57.1470   30.9640 C.2   209  MET209      0.2261
     76  O          5.8500   58.1310   31.6700 O.2   209  MET209     -0.2867
     77  CB         6.1920   57.2550   28.5430 C.3   209  MET209      0.0387
     78  CG         7.3260   57.6390   27.6200 C.3   209  MET209      0.0595
     79  SD         8.2190   59.0740   28.2400 S.3   209  MET209     -0.1393
     80  CE         9.8280   58.3380   28.4760 C.3   209  MET209      0.0692
     81  N          7.3720   56.4410   34.2530 N.3   212  LEU212     -0.1245
     82  CA         8.4340   57.4280   34.4180 C.3   212  LEU212      0.1561
     83  C          7.8870   58.7490   34.9440 C.2   212  LEU212      0.2260
     84  O          8.4620   59.3470   35.8510 O.2   212  LEU212     -0.2867
     85  CB         9.1580   57.6420   33.0980 C.3   212  LEU212      0.0270
     86  CG        10.2720   58.6830   32.9920 C.3   212  LEU212      0.0019
     87  CD1       11.2840   58.1890   31.9780 C.3   212  LEU212      0.0001
     88  CD2        9.7390   60.0480   32.5740 C.3   212  LEU212      0.0001
@<TRIPOS>BOND
     1    54    53    2
     2    53    52    1
     3    25    26    1
     4    49    48    1
     5    27    26    1
     6    27    28    2
     7    52    51    1
     8    52    55    1
     9    29    26    1
    10    29    30    1
    11    32    30   ar
    12    32    34   ar
    13    51    46   am
    14    55    56    1
    15    36    37    1
    16    30    31   ar
    17    48    50    1
    18    48    45    1
    19    46    47    2
    20    46    45    1
    21    34    35   ar
    22    44    45    1
    23    44    38   am
    24    58    56    1
    25    56    57    1
    26    37    38    1
    27    37    40    1
    28    31    33   ar
    29    38    39    2
    30    35    33   ar
    31    40    41    1
    32    41    42    1
    33    43    42    1
    34    64    63    1
    35    65    63    1
    36    63    60    1
    37    71    70    1
    38    60    59    1
    39    60    61    1
    40    70    72    1
    41    70    67    1
    42    66    61   am
    43    66    67    1
    44    61    62    2
    45    67    68    1
    46    78    79    1
    47    78    77    1
    48    68    69    2
    49    79    80    1
    50    77    74    1
    51    20    19    2
    52    23    21    1
    53    73    74    1
    54    74    75    1
    55    19    18    1
    56    18    21    1
    57    18    17    1
    58    75    76    2
    59    21    22    1
    60    22    24    1
    61    87    86    1
    62    88    86    1
    63    86    85    1
    64    16    15    1
    65    85    82    1
    66     8     6    1
    67    81    82    1
    68     7     5    1
    69    82    83    1
    70    12    11    2
    71    15    14    1
    72     6     5    1
    73    83    84    2
    74    13    14    1
    75    13    10    1
    76    11    10    1
    77     5     2    1
    78    10     9    1
    79     4     3    2
    80     2     3    1
    81     2     1    1
