@<TRIPOS>MOLECULE
tmp/6c1kA01.pdb
 103 101 0 0 0
SMALL
GASTEIGER

@<TRIPOS>ATOM
      1  N         10.7100   30.2830   39.4630 N.3    74  ASP74      -0.1225
      2  CA        11.3540   31.5870   39.3890 C.3    74  ASP74       0.1790
      3  C         11.0870   32.2200   38.0080 C.2    74  ASP74       0.2440
      4  O         11.5480   31.7090   36.9800 O.2    74  ASP74      -0.2733
      5  CB        12.8530   31.4360   39.6520 C.3    74  ASP74       0.1423
      6  CG        13.5590   32.7660   39.7740 C.2    74  ASP74       0.3668
      7  OD1       13.0320   33.6510   40.4770 O.co2  74  ASP74      -0.2456
      8  OD2       14.6530   32.9210   39.1850 O.co2  74  ASP74      -0.2456
      9  N         10.3310   33.3330   37.9860 N.am   75  PRO75      -0.2718
     10  CA         9.9640   34.0020   36.7360 C.3    75  PRO75       0.1535
     11  C         11.1990   34.2900   35.9020 C.2    75  PRO75       0.2598
     12  O         11.2120   34.0530   34.6880 O.2    75  PRO75      -0.2715
     13  CB         9.3090   35.3010   37.2090 C.3    75  PRO75       0.0310
     14  CG         8.8560   35.0320   38.5730 C.3    75  PRO75       0.0237
     15  CD         9.8510   34.0750   39.1600 C.3    75  PRO75       0.0939
     16  N         12.2360   34.7760   36.5790 N.am   76  TRP76      -0.1974
     17  CA        13.4760   35.1630   35.9340 C.3    76  TRP76       0.1640
     18  C         14.1830   33.9540   35.3510 C.2    76  TRP76       0.2290
     19  O         14.8990   34.0610   34.3650 O.2    76  TRP76      -0.2864
     20  CB        14.3920   35.8880   36.9280 C.3    76  TRP76       0.0576
     21  CG        13.7030   36.9710   37.7190 C.ar   76  TRP76       0.0006
     22  CD1       13.1890   36.8630   38.9710 C.ar   76  TRP76       0.0946
     23  CD2       13.4310   38.3180   37.2920 C.ar   76  TRP76       0.0152
     24  NE1       12.6240   38.0540   39.3630 N.ar   76  TRP76      -0.2442
     25  CE2       12.7640   38.9650   38.3530 C.ar   76  TRP76       0.0810
     26  CE3       13.6900   39.0380   36.1180 C.ar   76  TRP76       0.0012
     27  CZ2       12.3540   40.3000   38.2800 C.ar   76  TRP76       0.0191
     28  CZ3       13.2830   40.3630   36.0480 C.ar   76  TRP76       0.0001
     29  CH2       12.6180   40.9790   37.1180 C.ar   76  TRP76       0.0015
     30  N         12.1020   32.8110   32.2800 N.3    79  PHE79      -0.1241
     31  CA        12.4520   33.6910   31.1720 C.3    79  PHE79       0.1605
     32  C         13.7950   33.2690   30.5690 C.2    79  PHE79       0.2264
     33  O         13.9010   33.0360   29.3650 O.2    79  PHE79      -0.2867
     34  CB        12.5220   35.1550   31.5990 C.3    79  PHE79       0.0534
     35  CG        12.8770   36.0720   30.4630 C.ar   79  PHE79      -0.0203
     36  CD1       11.9190   36.4190   29.5070 C.ar   79  PHE79      -0.0042
     37  CD2       14.1750   36.5360   30.3000 C.ar   79  PHE79      -0.0042
     38  CE1       12.2360   37.2510   28.4340 C.ar   79  PHE79      -0.0003
     39  CE2       14.5040   37.3610   29.2200 C.ar   79  PHE79      -0.0003
     40  CZ        13.5280   37.7160   28.2890 C.ar   79  PHE79      -0.0000
     41  N         17.7230   40.3480   26.9110 N.3   107  PHE107     -0.1241
     42  CA        16.9340   40.7680   28.0520 C.3   107  PHE107      0.1605
     43  C         17.4100   40.0150   29.2870 C.2   107  PHE107      0.2264
     44  O         16.9830   40.2950   30.4000 O.2   107  PHE107     -0.2867
     45  CB        15.4470   40.5280   27.8140 C.3   107  PHE107      0.0534
     46  CG        14.7590   41.6500   27.0940 C.ar  107  PHE107     -0.0203
     47  CD1       14.7910   42.9450   27.6070 C.ar  107  PHE107     -0.0042
     48  CD2       14.0540   41.4150   25.9160 C.ar  107  PHE107     -0.0042
     49  CE1       14.1400   43.9970   26.9440 C.ar  107  PHE107     -0.0003
     50  CE2       13.4040   42.4670   25.2440 C.ar  107  PHE107     -0.0003
     51  CZ        13.4490   43.7560   25.7590 C.ar  107  PHE107     -0.0000
     52  N         18.7160   42.0650   32.0230 N.3   110  VAL110     -0.1231
     53  CA        17.7950   42.4860   33.0690 C.3   110  VAL110      0.1692
     54  C         17.7400   41.3950   34.1320 C.2   110  VAL110      0.2592
     55  O         17.7600   41.6560   35.3400 O.2   110  VAL110     -0.2718
     56  CB        16.3700   42.7240   32.5050 C.3   110  VAL110      0.0266
     57  CG1       15.3340   42.6520   33.6200 C.3   110  VAL110      0.0020
     58  CG2       16.2840   44.0450   31.7310 C.3   110  VAL110      0.0020
     59  N         17.7050   40.1540   33.6700 N.am  111  THR111     -0.1953
     60  CA        17.7060   39.0340   34.5810 C.3   111  THR111      0.1897
     61  C         18.9910   39.0070   35.4030 C.2   111  THR111      0.2313
     62  O         18.9470   39.1120   36.6200 O.2   111  THR111     -0.2863
     63  CB        17.5510   37.6980   33.8370 C.3   111  THR111      0.1794
     64  OG1       16.2260   37.5960   33.3100 O.3   111  THR111     -0.2208
     65  CG2       17.7480   36.5630   34.8020 C.3   111  THR111      0.0378
     66  N         16.2400   44.1960   37.5730 N.3   117  ARG117     -0.1245
     67  CA        15.1690   43.3960   38.1720 C.3   117  ARG117      0.1563
     68  C         14.2490   44.2820   38.9930 C.2   117  ARG117      0.2260
     69  O         13.0340   44.1250   38.9570 O.2   117  ARG117     -0.2867
     70  CB        15.7220   42.2930   39.0680 C.3   117  ARG117      0.0307
     71  CG        16.1820   41.0230   38.3830 C.3   117  ARG117      0.0489
     72  CD        16.5870   39.9990   39.4430 C.3   117  ARG117      0.2205
     73  NE        16.9490   38.6980   38.8940 N.pl3 117  ARG117     -0.0865
     74  CZ        17.0830   37.5910   39.6210 C.cat 117  ARG117      0.5346
     75  NH1       16.8720   37.6180   40.9360 N.pl3 117  ARG117      0.1354
     76  NH2       17.4170   36.4490   39.0290 N.pl3 117  ARG117      0.1354
     77  N         12.0740   46.5340   36.6140 N.3   120  VAL120     -0.1231
     78  CA        11.1110   45.7010   35.9180 C.3   120  VAL120      0.1692
     79  C         10.0510   45.2230   36.8970 C.2   120  VAL120      0.2592
     80  O          8.8510   45.2930   36.5980 O.2   120  VAL120     -0.2718
     81  CB        11.7610   44.4940   35.2210 C.3   120  VAL120      0.0266
     82  CG1       10.6760   43.6150   34.5920 C.3   120  VAL120      0.0020
     83  CG2       12.7180   44.9670   34.1410 C.3   120  VAL120      0.0020
     84  N         10.4980   44.7950   38.0820 N.am  121  SER121     -0.1952
     85  CA         9.5930   44.3590   39.1450 C.3   121  SER121      0.1924
     86  C          8.6260   45.4570   39.5490 C.2   121  SER121      0.2314
     87  O          7.4320   45.2020   39.7020 O.2   121  SER121     -0.2863
     88  CB        10.3770   43.8960   40.3710 C.3   121  SER121      0.2116
     89  OG        10.9050   42.6000   40.1620 O.3   121  SER121     -0.2180
     90  N          6.0680   46.1130   36.6580 N.3   124  ILE124     -0.1231
     91  CA         5.1190   45.0080   36.6070 C.3   124  ILE124      0.1692
     92  C          4.0900   44.9840   37.7470 C.2   124  ILE124      0.2592
     93  O          2.9140   44.7090   37.5140 O.2   124  ILE124     -0.2718
     94  CB         5.8890   43.6770   36.5840 C.3   124  ILE124      0.0266
     95  CG1        6.4490   43.4350   35.1850 C.3   124  ILE124      0.0019
     96  CG2        5.0000   42.5230   36.9740 C.3   124  ILE124      0.0020
     97  CD1        7.3870   42.2680   35.1370 C.3   124  ILE124      0.0001
     98  N          4.5220   45.2970   38.9660 N.am  125  SER125     -0.1952
     99  CA         3.6520   45.2060   40.1430 C.3   125  SER125      0.1924
    100  C          2.4620   46.1640   40.0670 C.2   125  SER125      0.2314
    101  O          1.4550   46.0090   40.7630 O.2   125  SER125     -0.2863
    102  CB         4.4640   45.4810   41.4060 C.3   125  SER125      0.2116
    103  OG         4.9700   46.8050   41.3860 O.3   125  SER125     -0.2180
@<TRIPOS>BOND
     1    50    51   ar
     2    50    48   ar
     3    51    49   ar
     4    48    46   ar
     5    41    42    1
     6    49    47   ar
     7    46    47   ar
     8    46    45    1
     9    45    42    1
    10    42    43    1
    11    40    38   ar
    12    40    39   ar
    13    38    36   ar
    14    39    37   ar
    15    43    44    2
    16    33    32    2
    17    36    35   ar
    18    37    35   ar
    19    35    34    1
    20    32    31    1
    21    31    34    1
    22    31    30    1
    23    58    56    1
    24    52    53    1
    25    56    53    1
    26    56    57    1
    27    53    54    1
    28    64    63    1
    29    59    54   am
    30    59    60    1
    31    63    60    1
    32    63    65    1
    33    54    55    2
    34    83    81    1
    35    19    18    2
    36    60    61    1
    37    82    81    1
    38    12    11    2
    39    97    95    1
    40    95    94    1
    41    81    78    1
    42    18    17    1
    43    61    62    2
    44    11    16   am
    45    11    10    1
    46    78    77    1
    47    78    79    1
    48    17    16    1
    49    17    20    1
    50    28    26   ar
    51    28    29   ar
    52    26    23   ar
    53    94    91    1
    54    94    96    1
    55    80    79    2
    56    91    90    1
    57    91    92    1
    58    10    13    1
    59    10     9    1
    60    79    84   am
    61    20    21    1
    62     4     3    2
    63    29    27   ar
    64    13    14    1
    65    23    21   ar
    66    23    25   ar
    67    93    92    2
    68    66    67    1
    69    21    22   ar
    70    92    98   am
    71     9     3   am
    72     9    15    1
    73     3     2    1
    74    84    85    1
    75    67    68    1
    76    67    70    1
    77    27    25   ar
    78    25    24   ar
    79    71    70    1
    80    71    72    1
    81    14    15    1
    82    73    72    1
    83    73    74    2
    84    69    68    2
    85    98    99    1
    86    22    24   ar
    87    76    74    1
    88    85    86    1
    89    85    88    1
    90     8     6   ar
    91     2     1    1
    92     2     5    1
    93    86    87    2
    94    74    75    1
    95     5     6    1
    96     6     7   ar
    97   100    99    1
    98   100   101    2
    99    99   102    1
   100    89    88    1
   101   103   102    1
