@<TRIPOS>MOLECULE
tmp/6c1mA03.pdb
 145 141 0 0 0
SMALL
GASTEIGER

@<TRIPOS>ATOM
      1  N         52.8240   29.8880  229.5840 N.3    84  PRO84      -0.2102
      2  CA        53.1880   29.2460  228.3100 C.3    84  PRO84       0.1504
      3  C         51.9720   28.8500  227.4750 C.2    84  PRO84       0.2575
      4  O         51.9880   28.9910  226.2500 O.2    84  PRO84      -0.2718
      5  CB        53.9740   28.0060  228.7480 C.3    84  PRO84       0.0282
      6  CG        54.4120   28.2840  230.1210 C.3    84  PRO84       0.0208
      7  CD        53.3310   29.1280  230.7360 C.3    84  PRO84       0.0893
      8  N         50.9310   28.3790  228.1520 N.am   85  TRP85      -0.1977
      9  CA        49.6910   27.9720  227.5090 C.3    85  TRP85       0.1640
     10  C         48.9720   29.1750  226.9050 C.2    85  TRP85       0.2290
     11  O         48.3500   29.0700  225.8530 O.2    85  TRP85      -0.2864
     12  CB        48.7770   27.2650  228.5120 C.3    85  TRP85       0.0576
     13  CG        49.4680   26.1950  229.3010 C.ar   85  TRP85       0.0006
     14  CD1       49.9710   26.3050  230.5710 C.ar   85  TRP85       0.0946
     15  CD2       49.7410   24.8550  228.8750 C.ar   85  TRP85       0.0152
     16  NE1       50.5420   25.1140  230.9550 N.ar   85  TRP85      -0.2442
     17  CE2       50.4100   24.2100  229.9390 C.ar   85  TRP85       0.0810
     18  CE3       49.4940   24.1420  227.6970 C.ar   85  TRP85       0.0012
     19  CZ2       50.8290   22.8790  229.8550 C.ar   85  TRP85       0.0191
     20  CZ3       49.9120   22.8230  227.6170 C.ar   85  TRP85       0.0001
     21  CH2       50.5700   22.2050  228.6900 C.ar   85  TRP85       0.0015
     22  N         50.4600   32.0290  226.0300 N.3    87  LEU87      -0.1231
     23  CA        51.3490   32.4470  224.9640 C.3    87  LEU87       0.1693
     24  C         51.0990   31.6280  223.7010 C.2    87  LEU87       0.2592
     25  O         50.9870   32.1850  222.6050 O.2    87  LEU87      -0.2718
     26  CB        52.7980   32.3070  225.4140 C.3    87  LEU87       0.0284
     27  CG        53.1650   33.3480  226.4640 C.3    87  LEU87       0.0019
     28  CD1       54.5720   33.1380  226.9780 C.3    87  LEU87       0.0001
     29  CD2       53.0190   34.7220  225.8460 C.3    87  LEU87       0.0001
     30  N         51.0090   30.3080  223.8560 N.am   88  PHE88      -0.1976
     31  CA        50.6930   29.4500  222.7230 C.3    88  PHE88       0.1639
     32  C         49.3630   29.8630  222.1020 C.2    88  PHE88       0.2290
     33  O         49.2460   29.9740  220.8750 O.2    88  PHE88      -0.2864
     34  CB        50.6360   27.9790  223.1290 C.3    88  PHE88       0.0560
     35  CG        50.2760   27.0700  221.9910 C.ar   88  PHE88      -0.0200
     36  CD1       51.2270   26.7310  221.0280 C.ar   88  PHE88      -0.0042
     37  CD2       48.9810   26.5870  221.8480 C.ar   88  PHE88      -0.0042
     38  CE1       50.9070   25.9120  219.9630 C.ar   88  PHE88      -0.0003
     39  CE2       48.6530   25.7590  220.7670 C.ar   88  PHE88      -0.0003
     40  CZ        49.6230   25.4270  219.8280 C.ar   88  PHE88      -0.0000
     41  N         49.8460   33.2250  220.1890 N.3    91  PHE91      -0.1227
     42  CA        50.5780   33.1050  218.9280 C.3    91  PHE91       0.1736
     43  C         49.8240   32.2790  217.8930 C.2    91  PHE91       0.2595
     44  O         49.8730   32.5700  216.7100 O.2    91  PHE91      -0.2718
     45  CB        51.9670   32.5100  219.1730 C.3    91  PHE91       0.0547
     46  CG        52.9370   33.4860  219.7970 C.ar   91  PHE91      -0.0202
     47  CD1       53.3950   34.5840  219.0810 C.ar   91  PHE91      -0.0042
     48  CD2       53.3850   33.3120  221.1000 C.ar   91  PHE91      -0.0042
     49  CE1       54.2820   35.4870  219.6520 C.ar   91  PHE91      -0.0003
     50  CE2       54.2720   34.2100  221.6720 C.ar   91  PHE91      -0.0003
     51  CZ        54.7200   35.2980  220.9480 C.ar   91  PHE91      -0.0000
     52  N         49.0950   31.2700  218.3390 N.am   92  VAL92      -0.1980
     53  CA        48.3580   30.4290  217.4100 C.3    92  VAL92       0.1595
     54  C         47.1020   31.1450  216.8940 C.2    92  VAL92       0.2287
     55  O         46.5950   30.8210  215.8250 O.2    92  VAL92      -0.2864
     56  CB        47.9920   29.0850  218.0780 C.3    92  VAL92       0.0276
     57  CG1       47.1030   28.2180  217.1620 C.3    92  VAL92       0.0022
     58  CG2       49.2280   28.3560  218.5160 C.3    92  VAL92       0.0022
     59  N         48.6820   34.0700  214.3550 N.3    95  ILE95      -0.1245
     60  CA        48.9170   33.3850  213.0820 C.3    95  ILE95       0.1561
     61  C         47.6620   33.3210  212.2290 C.2    95  ILE95       0.2260
     62  O         47.6850   33.5390  211.0160 O.2    95  ILE95      -0.2867
     63  CB        49.4050   31.9420  213.3100 C.3    95  ILE95       0.0252
     64  CG1       50.8870   31.9290  213.6530 C.3    95  ILE95       0.0019
     65  CG2       49.1640   31.0820  212.0860 C.3    95  ILE95       0.0019
     66  CD1       51.3810   30.5640  214.0250 C.3    95  ILE95       0.0001
     67  N         47.1500   24.8660  213.3380 N.3   113  LEU113     -0.1245
     68  CA        47.7920   24.6740  214.6380 C.3   113  LEU113      0.1561
     69  C         46.8870   25.0970  215.7850 C.2   113  LEU113      0.2260
     70  O         47.0880   24.6690  216.9140 O.2   113  LEU113     -0.2867
     71  CB        49.1150   25.4430  214.7280 C.3   113  LEU113      0.0270
     72  CG        50.2270   24.9050  213.8270 C.3   113  LEU113      0.0019
     73  CD1       51.5170   25.6530  214.1080 C.3   113  LEU113      0.0001
     74  CD2       50.3950   23.4010  213.9910 C.3   113  LEU113      0.0001
     75  N         45.4560   22.7150  218.3940 N.3   116  PHE116     -0.1241
     76  CA        46.2120   22.3210  219.5710 C.3   116  PHE116      0.1605
     77  C         45.7410   23.1000  220.7950 C.2   116  PHE116      0.2264
     78  O         46.2070   22.8590  221.9070 O.2   116  PHE116     -0.2867
     79  CB        47.7090   22.5480  219.3720 C.3   116  PHE116      0.0534
     80  CG        48.3970   21.4590  218.6150 C.ar  116  PHE116     -0.0203
     81  CD1       48.3360   20.1420  219.0600 C.ar  116  PHE116     -0.0042
     82  CD2       49.1260   21.7480  217.4640 C.ar  116  PHE116     -0.0042
     83  CE1       48.9800   19.1250  218.3600 C.ar  116  PHE116     -0.0003
     84  CE2       49.7750   20.7300  216.7540 C.ar  116  PHE116     -0.0003
     85  CZ        49.7000   19.4230  217.2000 C.ar  116  PHE116     -0.0000
     86  N         44.4790   20.9590  223.5480 N.3   119  VAL119     -0.1231
     87  CA        45.4350   20.6600  224.6130 C.3   119  VAL119      0.1692
     88  C         45.4800   21.7580  225.6880 C.2   119  VAL119      0.2592
     89  O         45.4440   21.4730  226.8820 O.2   119  VAL119     -0.2718
     90  CB        46.8540   20.4610  224.0250 C.3   119  VAL119      0.0266
     91  CG1       47.9110   20.5720  225.1020 C.3   119  VAL119      0.0020
     92  CG2       46.9440   19.1330  223.3280 C.3   119  VAL119      0.0020
     93  N         45.5590   23.0120  225.2520 N.am  120  THR120     -0.1953
     94  CA        45.5140   24.1710  226.1470 C.3   120  THR120      0.1897
     95  C         44.2930   24.1960  227.0770 C.2   120  THR120      0.2313
     96  O         44.4110   24.3290  228.2860 O.2   120  THR120     -0.2863
     97  CB        45.5140   25.4900  225.3340 C.3   120  THR120      0.1794
     98  OG1       46.8530   25.8420  224.9820 O.3   120  THR120     -0.2208
     99  CG2       44.9240   26.6200  226.1570 C.3   120  THR120      0.0378
    100  N         46.8710   19.0230  229.1790 N.3   126  ARG126     -0.1245
    101  CA        47.9920   19.8150  229.6870 C.3   126  ARG126      0.1563
    102  C         48.9550   18.9110  230.4380 C.2   126  ARG126      0.2260
    103  O         50.1640   18.9190  230.2040 O.2   126  ARG126     -0.2867
    104  CB        47.5150   20.9220  230.6160 C.3   126  ARG126      0.0307
    105  CG        47.0290   22.1770  229.9500 C.3   126  ARG126      0.0489
    106  CD        46.7320   23.2240  231.0200 C.3   126  ARG126      0.2205
    107  NE        46.2430   24.4750  230.4600 N.pl3 126  ARG126     -0.0865
    108  CZ        46.1100   25.5980  231.1530 C.cat 126  ARG126      0.5346
    109  NH1       46.4440   25.6300  232.4380 N.pl3 126  ARG126      0.1354
    110  NH2       45.6530   26.6930  230.5570 N.pl3 126  ARG126      0.1354
    111  N         51.0320   16.6700  228.1860 N.3   129  VAL129     -0.1231
    112  CA        52.0160   17.4650  227.4720 C.3   129  VAL129      0.1692
    113  C         53.0690   17.9350  228.4620 C.2   129  VAL129      0.2592
    114  O         54.2670   17.8270  228.1810 O.2   129  VAL129     -0.2718
    115  CB        51.4020   18.6580  226.7590 C.3   129  VAL129      0.0266
    116  CG1       52.5040   19.5250  226.1980 C.3   129  VAL129      0.0020
    117  CG2       50.4710   18.1760  225.6550 C.3   129  VAL129      0.0020
    118  N         52.6170   18.4180  229.6260 N.am  130  SER130     -0.1952
    119  CA        53.5210   18.8400  230.7020 C.3   130  SER130      0.1924
    120  C         54.4730   17.7350  231.1240 C.2   130  SER130      0.2314
    121  O         55.6700   17.9770  231.2690 O.2   130  SER130     -0.2863
    122  CB        52.7440   19.3240  231.9300 C.3   130  SER130      0.2116
    123  OG        52.1780   20.6020  231.7000 O.3   130  SER130     -0.2180
    124  N         55.4200   15.1640  229.3270 N.3   132  LEU132     -0.1231
    125  CA        56.3310   14.8410  228.2250 C.3   132  LEU132      0.1693
    126  C         57.4530   15.8490  228.0960 C.2   132  LEU132      0.2592
    127  O         58.6140   15.4950  227.8680 O.2   132  LEU132     -0.2718
    128  CB        55.5680   14.7560  226.9040 C.3   132  LEU132      0.0284
    129  CG        54.6120   13.5720  226.8460 C.3   132  LEU132      0.0019
    130  CD1       53.5820   13.7820  225.7670 C.3   132  LEU132      0.0001
    131  CD2       55.4010   12.3140  226.6000 C.3   132  LEU132      0.0001
    132  N         57.0830   17.1100  228.2430 N.am  133  ILE133     -0.1966
    133  CA        58.0030   18.2240  228.0900 C.3   133  ILE133      0.1727
    134  C         59.0630   18.3130  229.1890 C.2   133  ILE133      0.2616
    135  O         60.2240   18.6100  228.9140 O.2   133  ILE133     -0.2715
    136  CB        57.2110   19.5300  228.0220 C.3   133  ILE133      0.0290
    137  CG1       56.7460   19.7510  226.5860 C.3   133  ILE133      0.0022
    138  CG2       58.0380   20.7030  228.4740 C.3   133  ILE133      0.0023
    139  CD1       55.8740   20.9610  226.4540 C.3   133  ILE133      0.0001
    140  N         58.6690   18.0360  230.4270 N.am  134  SER134     -0.1950
    141  CA        59.5780   18.1500  231.5660 C.3   134  SER134      0.1924
    142  C         60.7000   17.1120  231.4990 C.2   134  SER134      0.2314
    143  O         61.7150   17.2220  232.1910 O.2   134  SER134     -0.2863
    144  CB        58.7960   18.0150  232.8740 C.3   134  SER134      0.2116
    145  OG        58.3090   16.6940  233.0220 O.3   134  SER134     -0.2180
@<TRIPOS>BOND
     1    62    61    2
     2    65    63    1
     3    61    60    1
     4    60    63    1
     5    60    59    1
     6    63    64    1
     7    67    68    1
     8    64    66    1
     9    72    74    1
    10    72    73    1
    11    72    71    1
    12    68    71    1
    13    68    69    1
    14    69    70    2
    15    55    54    2
    16    44    43    2
    17    84    85   ar
    18    84    82   ar
    19    54    53    1
    20    57    56    1
    21    85    83   ar
    22    53    56    1
    23    53    52    1
    24    82    80   ar
    25    43    52   am
    26    43    42    1
    27    56    58    1
    28    83    81   ar
    29    75    76    1
    30    80    81   ar
    31    80    79    1
    32    42    45    1
    33    42    41    1
    34    47    49   ar
    35    47    46   ar
    36    45    46    1
    37    79    76    1
    38    76    77    1
    39    49    51   ar
    40    46    48   ar
    41    40    38   ar
    42    40    39   ar
    43    38    36   ar
    44    39    37   ar
    45    77    78    2
    46    33    32    2
    47    51    50   ar
    48    36    35   ar
    49    48    50   ar
    50    37    35   ar
    51    35    34    1
    52    32    31    1
    53    25    24    2
    54    31    34    1
    55    31    30    1
    56    92    90    1
    57    86    87    1
    58    24    30   am
    59    24    23    1
    60    90    87    1
    61    90    91    1
    62    87    88    1
    63    23    26    1
    64    23    22    1
    65    98    97    1
    66    93    88   am
    67    93    94    1
    68    97    94    1
    69    97    99    1
    70    26    27    1
    71   117   115    1
    72    88    89    2
    73   130   129    1
    74    29    27    1
    75    11    10    2
    76    94    95    1
    77   116   115    1
    78     4     3    2
    79   139   137    1
    80    27    28    1
    81   137   136    1
    82   131   129    1
    83   115   112    1
    84   129   128    1
    85   128   125    1
    86    10     9    1
    87    95    96    2
    88   112   111    1
    89   112   113    1
    90     3     8   am
    91     3     2    1
    92     9     8    1
    93     9    12    1
    94    20    18   ar
    95    20    21   ar
    96    18    15   ar
    97   127   126    2
    98   136   133    1
    99   136   138    1
   100   133   132    1
   101   133   134    1
   102   126   125    1
   103   126   132   am
   104   114   113    2
   105   125   124    1
   106     2     5    1
   107     2     1    1
   108   113   118   am
   109    12    13    1
   110    21    19   ar
   111     5     6    1
   112    15    13   ar
   113    15    17   ar
   114   135   134    2
   115   100   101    1
   116   134   140   am
   117    13    14   ar
   118     1     7    1
   119   118   119    1
   120   101   102    1
   121   101   104    1
   122    19    17   ar
   123    17    16   ar
   124   105   104    1
   125   105   106    1
   126     6     7    1
   127   103   102    2
   128   140   141    1
   129   107   106    1
   130   107   108    2
   131   110   108    1
   132    14    16   ar
   133   119   120    1
   134   119   122    1
   135   120   121    2
   136   108   109    1
   137   142   141    1
   138   142   143    2
   139   141   144    1
   140   123   122    1
   141   144   145    1
