@<TRIPOS>MOLECULE
tmp/6c1mA08.pdb
 144 137 0 0 0
SMALL
GASTEIGER

@<TRIPOS>ATOM
      1  N         67.8790   15.8530  228.9930 N.3   139  MET139     -0.1245
      2  CA        68.2360   15.2830  227.7030 C.3   139  MET139      0.1570
      3  C         69.1200   16.2360  226.9020 C.2   139  MET139      0.2261
      4  O         69.7240   15.8370  225.9140 O.2   139  MET139     -0.2867
      5  CB        66.9850   14.9660  226.8790 C.3   139  MET139      0.0387
      6  CG        66.1800   13.7630  227.3160 C.3   139  MET139      0.0595
      7  SD        64.7700   13.5360  226.1990 S.3   139  MET139     -0.1393
      8  CE        65.5780   13.6260  224.6240 C.3   139  MET139      0.0692
      9  N         72.8400   15.3340  226.0590 N.3   142  VAL142     -0.1231
     10  CA        72.9690   14.2500  225.0970 C.3   142  VAL142      0.1692
     11  C         72.5820   14.7730  223.7260 C.2   142  VAL142      0.2591
     12  O         73.2960   14.5570  222.7680 O.2   142  VAL142     -0.2718
     13  CB        72.1110   13.0210  225.4950 C.3   142  VAL142      0.0266
     14  CG1       71.7600   12.2090  224.2940 C.3   142  VAL142      0.0020
     15  CG2       72.8920   12.1390  226.4480 C.3   142  VAL142      0.0020
     16  N         71.4750   15.5020  223.6540 N.am  143  ILE143     -0.1980
     17  CA        71.1000   16.1950  222.4400 C.3   143  ILE143      0.1595
     18  C         72.2340   17.0840  221.9410 C.2   143  ILE143      0.2287
     19  O         72.6090   17.0070  220.7840 O.2   143  ILE143     -0.2864
     20  CB        69.8550   17.0540  222.6550 C.3   143  ILE143      0.0276
     21  CG1       68.6190   16.1510  222.7610 C.3   143  ILE143      0.0022
     22  CG2       69.7190   18.0780  221.5230 C.3   143  ILE143      0.0022
     23  CD1       67.4130   16.8140  223.4260 C.3   143  ILE143      0.0001
     24  N         74.9710   14.9550  220.5550 N.3   146  MET146     -0.1230
     25  CA        74.5540   14.3400  219.3210 C.3   146  MET146      0.1702
     26  C         74.5890   15.3520  218.1660 C.2   146  MET146      0.2593
     27  O         75.0890   15.0640  217.0750 O.2   146  MET146     -0.2718
     28  CB        73.1530   13.7580  219.4860 C.3   146  MET146      0.0401
     29  CG        72.7830   12.7910  218.3850 C.3   146  MET146      0.0596
     30  SD        73.5700   11.1920  218.5820 S.3   146  MET146     -0.1393
     31  CE        72.1170   10.1460  218.5680 C.3   146  MET146      0.0692
     32  N         74.0730   16.5450  218.4270 N.am  147  THR147     -0.1953
     33  CA        74.1550   17.6310  217.4740 C.3   147  THR147      0.1897
     34  C         75.5980   17.9410  217.0650 C.2   147  THR147      0.2313
     35  O         75.8770   18.0840  215.8760 O.2   147  THR147     -0.2863
     36  CB        73.5330   18.8930  218.0520 C.3   147  THR147      0.1794
     37  OG1       72.1530   18.6440  218.3480 O.3   147  THR147     -0.2208
     38  CG2       73.6670   20.0410  217.0770 C.3   147  THR147      0.0378
     39  N         76.7260   14.9310  214.8490 N.3   150  PHE150     -0.1241
     40  CA        76.1480   15.0420  213.5100 C.3   150  PHE150      0.1605
     41  C         76.8870   16.1010  212.7130 C.2   150  PHE150      0.2264
     42  O         77.2510   15.8810  211.5690 O.2   150  PHE150     -0.2867
     43  CB        74.6580   15.4070  213.5860 C.3   150  PHE150      0.0534
     44  CG        73.7390   14.2370  213.4260 C.ar  150  PHE150     -0.0203
     45  CD1       73.5820   13.3140  214.4530 C.ar  150  PHE150     -0.0042
     46  CD2       73.0390   14.0450  212.2340 C.ar  150  PHE150     -0.0042
     47  CE1       72.7420   12.1990  214.3070 C.ar  150  PHE150     -0.0003
     48  CE2       72.1970   12.9540  212.0690 C.ar  150  PHE150     -0.0003
     49  CZ        72.0470   12.0160  213.1180 C.ar  150  PHE150     -0.0000
     50  N         73.6160   14.8080  195.4530 N.3   167  GLU167     -0.1245
     51  CA        72.2940   14.8180  196.0780 C.3   167  GLU167      0.1567
     52  C         72.3320   14.4480  197.5560 C.2   167  GLU167      0.2260
     53  O         71.6800   15.1010  198.3640 O.2   167  GLU167     -0.2867
     54  CB        71.3170   13.8950  195.3440 C.3   167  GLU167      0.0388
     55  CG        69.9020   13.9290  195.8980 C.3   167  GLU167      0.1160
     56  CD        69.0050   12.8370  195.3300 C.2   167  GLU167      0.3649
     57  OE1       69.4790   12.0370  194.4920 O.co2 167  GLU167     -0.2457
     58  OE2       67.8490   12.7190  195.7960 O.co2 167  GLU167     -0.2457
     59  N         76.4210   19.0600  200.1040 N.3   171  THR171     -0.1203
     60  CA        76.2350   20.3010  200.8230 C.3   171  THR171      0.1994
     61  C         76.0770   19.8870  202.2800 C.2   171  THR171      0.2618
     62  O         75.5320   18.7930  202.5320 O.2   171  THR171     -0.2717
     63  CB        75.0050   21.0230  200.2210 C.3   171  THR171      0.1784
     64  OG1       75.2040   21.3270  198.8360 O.3   171  THR171     -0.2211
     65  CG2       74.5590   22.2030  201.0090 C.3   171  THR171      0.0376
     66  N         76.5700   20.6980  203.2230 N.am  172  LEU172     -0.1965
     67  CA        76.4400   20.4100  204.6740 C.3   172  LEU172      0.1728
     68  C         75.0390   19.9740  205.0710 C.2   172  LEU172      0.2617
     69  O         74.8600   18.9440  205.7470 O.2   172  LEU172     -0.2715
     70  CB        76.7970   21.6270  205.5220 C.3   172  LEU172      0.0311
     71  CG        76.6430   21.5060  207.0350 C.3   172  LEU172      0.0022
     72  CD1       77.5850   20.4470  207.5320 C.3   172  LEU172      0.0001
     73  CD2       76.9120   22.8240  207.7140 C.3   172  LEU172      0.0001
     74  N         74.0450   20.7590  204.6530 N.am  173  GLY173     -0.1940
     75  CA        72.6550   20.4150  204.9150 C.3   173  GLY173      0.2014
     76  C         72.2190   19.1040  204.2990 C.2   173  GLY173      0.2638
     77  O         71.4320   18.3610  204.8850 O.2   173  GLY173     -0.2714
     78  N         72.6960   18.8220  203.0900 N.am  174  GLU174     -0.1977
     79  CA        72.3160   17.5780  202.4370 C.3   174  GLU174      0.1602
     80  C         72.8710   16.4470  203.2560 C.2   174  GLU174      0.2287
     81  O         72.1770   15.4630  203.5350 O.2   174  GLU174     -0.2864
     82  CB        72.8190   17.5160  200.9980 C.3   174  GLU174      0.0415
     83  CG        72.1550   18.5150  200.1200 C.3   174  GLU174      0.1163
     84  CD        72.6960   18.5020  198.7370 C.2   174  GLU174      0.3649
     85  OE1       73.7160   17.8350  198.5460 O.co2 174  GLU174     -0.2457
     86  OE2       72.1100   19.1550  197.8450 O.co2 174  GLU174     -0.2457
     87  N         73.5760   16.5320  206.4830 N.3   176  PHE176     -0.1227
     88  CA        72.8460   16.4560  207.7500 C.3   176  PHE176      0.1736
     89  C         71.6290   15.5990  207.5290 C.2   176  PHE176      0.2595
     90  O         71.3760   14.6530  208.2710 O.2   176  PHE176     -0.2718
     91  CB        72.4290   17.8470  208.2490 C.3   176  PHE176      0.0547
     92  CG        73.2350   18.3580  209.4000 C.ar  176  PHE176     -0.0202
     93  CD1       72.8510   18.0720  210.7140 C.ar  176  PHE176     -0.0042
     94  CD2       74.3420   19.1770  209.1880 C.ar  176  PHE176     -0.0042
     95  CE1       73.5690   18.5750  211.8010 C.ar  176  PHE176     -0.0003
     96  CE2       75.0780   19.6850  210.2670 C.ar  176  PHE176     -0.0003
     97  CZ        74.6840   19.3830  211.5790 C.ar  176  PHE176     -0.0000
     98  N         70.8900   15.9390  206.4760 N.am  177  TYR177     -0.1976
     99  CA        69.6720   15.2320  206.1000 C.3   177  TYR177      0.1639
    100  C         69.9510   13.7290  205.9320 C.2   177  TYR177      0.2290
    101  O         69.2430   12.8770  206.4890 O.2   177  TYR177     -0.2864
    102  CB        69.0720   15.8320  204.7910 C.3   177  TYR177      0.0560
    103  CG        67.8030   15.1330  204.4210 C.ar  177  TYR177     -0.0198
    104  CD1       67.8340   13.9670  203.6670 C.ar  177  TYR177     -0.0009
    105  CD2       66.5730   15.5990  204.8500 C.ar  177  TYR177     -0.0009
    106  CE1       66.6740   13.2780  203.3380 C.ar  177  TYR177      0.0417
    107  CE2       65.4100   14.8970  204.5620 C.ar  177  TYR177      0.0417
    108  CZ        65.4780   13.7360  203.7810 C.ar  177  TYR177      0.1957
    109  OH        64.3400   13.0390  203.4430 O.3   177  TYR177     -0.2866
    110  N         70.7690   11.9220  209.0920 N.3   180  PHE180     -0.1241
    111  CA        69.5670   11.6840  209.9050 C.3   180  PHE180      0.1605
    112  C         68.8490   10.4300  209.4690 C.2   180  PHE180      0.2264
    113  O         68.3400    9.6780  210.2960 O.2   180  PHE180     -0.2867
    114  CB        68.5880   12.8510  209.8470 C.3   180  PHE180      0.0534
    115  CG        67.3750   12.6300  210.6930 C.ar  180  PHE180     -0.0203
    116  CD1       67.4760   12.6100  212.0750 C.ar  180  PHE180     -0.0042
    117  CD2       66.1360   12.4290  210.1170 C.ar  180  PHE180     -0.0042
    118  CE1       66.3620   12.3810  212.8630 C.ar  180  PHE180     -0.0003
    119  CE2       65.0180   12.2100  210.9010 C.ar  180  PHE180     -0.0003
    120  CZ        65.1360   12.1890  212.2840 C.ar  180  PHE180     -0.0000
    121  N         70.5770    7.3640  210.5390 N.3   183  MET183     -0.1245
    122  CA        70.2300    7.1420  211.9410 C.3   183  MET183      0.1570
    123  C         68.8700    6.4610  212.1300 C.2   183  MET183      0.2261
    124  O         68.7290    5.5900  212.9870 O.2   183  MET183     -0.2867
    125  CB        70.2500    8.4530  212.7060 C.3   183  MET183      0.0387
    126  CG        69.6440    8.3430  214.0630 C.3   183  MET183      0.0595
    127  SD        70.0950    9.6970  215.1450 S.3   183  MET183     -0.1393
    128  CE        68.7830   10.8460  214.7650 C.3   183  MET183      0.0692
    129  N         71.2070    6.7330  221.4450 N.3   218  MET218     -0.1245
    130  CA        69.7500    6.6560  221.4790 C.3   218  MET218      0.1570
    131  C         69.2510    5.7110  222.5670 C.2   218  MET218      0.2261
    132  O         68.2870    6.0210  223.2770 O.2   218  MET218     -0.2867
    133  CB        69.2080    6.2140  220.1180 C.3   218  MET218      0.0387
    134  CG        68.7950    7.3600  219.2180 C.3   218  MET218      0.0595
    135  SD        67.2770    8.1230  219.8290 S.3   218  MET218     -0.1393
    136  CE        67.8580    9.7960  220.0580 C.3   218  MET218      0.0692
    137  N         69.8620    7.2870  225.8440 N.3   221  LEU221     -0.1245
    138  CA        68.9240    8.3970  225.9760 C.3   221  LEU221      0.1561
    139  C         67.5890    7.8820  226.5080 C.2   221  LEU221      0.2260
    140  O         66.9760    8.4850  227.3880 O.2   221  LEU221     -0.2867
    141  CB        68.7550    9.1070  224.6340 C.3   221  LEU221      0.0270
    142  CG        67.7820   10.2760  224.4960 C.3   221  LEU221      0.0019
    143  CD1       68.3220   11.2570  223.4830 C.3   221  LEU221      0.0001
    144  CD2       66.4130    9.7940  224.0450 C.3   221  LEU221      0.0001
@<TRIPOS>BOND
     1    57    56   ar
     2    56    58   ar
     3    56    55    1
     4    54    55    1
     5    54    51    1
     6    50    51    1
     7    51    52    1
     8    52    53    2
     9    86    84   ar
    10    85    84   ar
    11    84    83    1
    12    64    63    1
    13    59    60    1
    14    83    82    1
    15    63    60    1
    16    63    65    1
    17    60    61    1
    18    82    79    1
    19    61    62    2
    20    61    66   am
    21    79    78    1
    22    79    80    1
    23    78    76   am
    24    66    67    1
    25    80    81    2
    26   106   104   ar
    27   106   108   ar
    28   109   108    1
    29   104   103   ar
    30   108   107   ar
    31    76    77    2
    32    76    75    1
    33   103   102    1
    34   103   105   ar
    35   107   105   ar
    36    74    75    1
    37    74    68   am
    38    67    68    1
    39    67    70    1
    40   102    99    1
    41    68    69    2
    42    70    71    1
    43   100    99    1
    44   100   101    2
    45    99    98    1
    46    98    89   am
    47    87    88    1
    48    71    72    1
    49    71    73    1
    50    89    88    1
    51    89    90    2
    52    88    91    1
    53    91    92    1
    54   110   111    1
    55    94    92   ar
    56    94    96   ar
    57    92    93   ar
    58   112   111    1
    59   112   113    2
    60   114   111    1
    61   114   115    1
    62   117   115   ar
    63   117   119   ar
    64    96    97   ar
    65   121   122    1
    66   115   116   ar
    67    93    95   ar
    68   119   120   ar
    69    42    41    2
    70    97    95   ar
    71   122   123    1
    72   122   125    1
    73    48    46   ar
    74    48    49   ar
    75   116   118   ar
    76   123   124    2
    77    46    44   ar
    78   120   118   ar
    79   125   126    1
    80    41    40    1
    81    49    47   ar
    82    44    43    1
    83    44    45   ar
    84    40    43    1
    85    40    39    1
    86   126   127    1
    87    47    45   ar
    88   128   127    1
    89    35    34    2
    90    34    33    1
    91    27    26    2
    92    38    36    1
    93    33    36    1
    94    33    32    1
    95    36    37    1
    96    26    32   am
    97    26    25    1
    98    29    30    1
    99    29    28    1
   100    31    30    1
   101   134   135    1
   102   134   133    1
   103    25    28    1
   104    25    24    1
   105   135   136    1
   106   133   130    1
   107    19    18    2
   108   129   130    1
   109   130   131    1
   110    22    20    1
   111    18    17    1
   112    17    20    1
   113    17    16    1
   114   131   132    2
   115    20    21    1
   116    21    23    1
   117    12    11    2
   118   143   142    1
   119    16    11   am
   120    11    10    1
   121   144   142    1
   122    14    13    1
   123   142   141    1
   124     8     7    1
   125   141   138    1
   126    10    13    1
   127    10     9    1
   128    13    15    1
   129   137   138    1
   130     4     3    2
   131   138   139    1
   132     7     6    1
   133   139   140    2
   134     5     6    1
   135     5     2    1
   136     3     2    1
   137     2     1    1
