@<TRIPOS>MOLECULE
tmp/6c1mA06.pdb
 97 89 0 0 0
SMALL
GASTEIGER

@<TRIPOS>ATOM
      1  N         55.4200   15.1640  229.3270 N.3   132  LEU132     -0.1231
      2  CA        56.3310   14.8410  228.2250 C.3   132  LEU132      0.1693
      3  C         57.4530   15.8490  228.0960 C.2   132  LEU132      0.2591
      4  O         58.6140   15.4950  227.8680 O.2   132  LEU132     -0.2718
      5  CB        55.5680   14.7560  226.9040 C.3   132  LEU132      0.0284
      6  CG        54.6120   13.5720  226.8460 C.3   132  LEU132      0.0019
      7  CD1       53.5820   13.7820  225.7670 C.3   132  LEU132      0.0001
      8  CD2       55.4010   12.3140  226.6000 C.3   132  LEU132      0.0001
      9  N         57.0830   17.1100  228.2430 N.am  133  ILE133     -0.1980
     10  CA        58.0030   18.2240  228.0900 C.3   133  ILE133      0.1595
     11  C         59.0630   18.3130  229.1890 C.2   133  ILE133      0.2287
     12  O         60.2240   18.6100  228.9140 O.2   133  ILE133     -0.2864
     13  CB        57.2110   19.5300  228.0220 C.3   133  ILE133      0.0276
     14  CG1       56.7460   19.7510  226.5860 C.3   133  ILE133      0.0022
     15  CG2       58.0380   20.7030  228.4740 C.3   133  ILE133      0.0022
     16  CD1       55.8740   20.9610  226.4540 C.3   133  ILE133      0.0001
     17  N         62.4560   16.6880  228.9080 N.3   136  ILE136     -0.1245
     18  CA        63.4430   17.2230  227.9670 C.3   136  ILE136      0.1561
     19  C         64.7100   17.8670  228.5970 C.2   136  ILE136      0.2260
     20  O         65.8090   17.6820  228.0650 O.2   136  ILE136     -0.2867
     21  CB        62.7600   18.2410  227.0100 C.3   136  ILE136      0.0252
     22  CG1       61.7020   17.5050  226.1680 C.3   136  ILE136      0.0019
     23  CG2       63.7910   18.9240  226.1020 C.3   136  ILE136      0.0019
     24  CD1       60.9860   18.3630  225.1410 C.3   136  ILE136      0.0001
     25  N         67.8790   15.8530  228.9930 N.3   139  MET139     -0.1245
     26  CA        68.2360   15.2830  227.7030 C.3   139  MET139      0.1570
     27  C         69.1200   16.2360  226.9020 C.2   139  MET139      0.2261
     28  O         69.7240   15.8370  225.9140 O.2   139  MET139     -0.2867
     29  CB        66.9850   14.9660  226.8790 C.3   139  MET139      0.0387
     30  CG        66.1800   13.7630  227.3160 C.3   139  MET139      0.0595
     31  SD        64.7700   13.5360  226.1990 S.3   139  MET139     -0.1393
     32  CE        65.5780   13.6260  224.6240 C.3   139  MET139      0.0692
     33  N         71.4750   15.5020  223.6540 N.3   143  ILE143     -0.1245
     34  CA        71.1000   16.1950  222.4400 C.3   143  ILE143      0.1561
     35  C         72.2340   17.0840  221.9410 C.2   143  ILE143      0.2260
     36  O         72.6090   17.0070  220.7840 O.2   143  ILE143     -0.2867
     37  CB        69.8550   17.0540  222.6550 C.3   143  ILE143      0.0252
     38  CG1       68.6190   16.1510  222.7610 C.3   143  ILE143      0.0019
     39  CG2       69.7190   18.0780  221.5230 C.3   143  ILE143      0.0019
     40  CD1       67.4130   16.8140  223.4260 C.3   143  ILE143      0.0001
     41  N         70.7690   11.9220  209.0920 N.3   180  PHE180     -0.1241
     42  CA        69.5670   11.6840  209.9050 C.3   180  PHE180      0.1605
     43  C         68.8490   10.4300  209.4690 C.2   180  PHE180      0.2264
     44  O         68.3400    9.6780  210.2960 O.2   180  PHE180     -0.2867
     45  CB        68.5880   12.8510  209.8470 C.3   180  PHE180      0.0534
     46  CG        67.3750   12.6300  210.6930 C.ar  180  PHE180     -0.0203
     47  CD1       67.4760   12.6100  212.0750 C.ar  180  PHE180     -0.0042
     48  CD2       66.1360   12.4290  210.1170 C.ar  180  PHE180     -0.0042
     49  CE1       66.3620   12.3810  212.8630 C.ar  180  PHE180     -0.0003
     50  CE2       65.0180   12.2100  210.9010 C.ar  180  PHE180     -0.0003
     51  CZ        65.1360   12.1890  212.2840 C.ar  180  PHE180     -0.0000
     52  N         70.5770    7.3640  210.5390 N.3   183  MET183     -0.1230
     53  CA        70.2300    7.1420  211.9410 C.3   183  MET183      0.1702
     54  C         68.8700    6.4610  212.1300 C.2   183  MET183      0.2593
     55  O         68.7290    5.5900  212.9870 O.2   183  MET183     -0.2718
     56  CB        70.2500    8.4530  212.7060 C.3   183  MET183      0.0401
     57  CG        69.6440    8.3430  214.0630 C.3   183  MET183      0.0596
     58  SD        70.0950    9.6970  215.1450 S.3   183  MET183     -0.1393
     59  CE        68.7830   10.8460  214.7650 C.3   183  MET183      0.0692
     60  N         67.8710    6.8260  211.3290 N.am  184  THR184     -0.1939
     61  CA        66.5760    6.1310  211.4030 C.3   184  THR184      0.2028
     62  C         66.6950    4.7300  210.7580 C.2   184  THR184      0.2642
     63  O         65.7760    3.9220  210.8360 O.2   184  THR184     -0.2714
     64  CB        65.4610    6.9410  210.7210 C.3   184  THR184      0.1808
     65  OG1       65.7040    7.0320  209.2970 O.3   184  THR184     -0.2208
     66  CG2       65.3940    8.3590  211.3490 C.3   184  THR184      0.0379
     67  N         67.8610    4.4520  210.1550 N.am  185  LEU185     -0.1977
     68  CA        68.1910    3.1600  209.5340 C.3   185  LEU185      0.1596
     69  C         67.3970    2.9240  208.2370 C.2   185  LEU185      0.2287
     70  O         67.4600    1.8400  207.6690 O.2   185  LEU185     -0.2864
     71  CB        67.9600    2.0000  210.5130 C.3   185  LEU185      0.0297
     72  CG        68.7300    1.9540  211.8570 C.3   185  LEU185      0.0022
     73  CD1       68.2570    0.7800  212.7100 C.3   185  LEU185      0.0001
     74  CD2       70.2170    1.8590  211.6630 C.3   185  LEU185      0.0001
     75  N         73.2160    4.8320  217.5220 N.3   215  THR215     -0.1218
     76  CA        72.3210    3.8590  218.1290 C.3   215  THR215      0.1862
     77  C         72.5960    3.6990  219.6350 C.2   215  THR215      0.2287
     78  O         71.6660    3.6720  220.4470 O.2   215  THR215     -0.2866
     79  CB        72.4480    2.4990  217.4290 C.3   215  THR215      0.1770
     80  OG1       72.2730    2.6920  216.0260 O.3   215  THR215     -0.2211
     81  CG2       71.3870    1.5350  217.9320 C.3   215  THR215      0.0375
     82  N         71.2070    6.7330  221.4450 N.3   218  MET218     -0.1245
     83  CA        69.7500    6.6560  221.4790 C.3   218  MET218      0.1570
     84  C         69.2510    5.7110  222.5670 C.2   218  MET218      0.2261
     85  O         68.2870    6.0210  223.2770 O.2   218  MET218     -0.2867
     86  CB        69.2080    6.2140  220.1180 C.3   218  MET218      0.0387
     87  CG        68.7950    7.3600  219.2180 C.3   218  MET218      0.0595
     88  SD        67.2770    8.1230  219.8290 S.3   218  MET218     -0.1393
     89  CE        67.8580    9.7960  220.0580 C.3   218  MET218      0.0692
     90  N         69.8620    7.2870  225.8440 N.3   221  LEU221     -0.1245
     91  CA        68.9240    8.3970  225.9760 C.3   221  LEU221      0.1561
     92  C         67.5890    7.8820  226.5080 C.2   221  LEU221      0.2260
     93  O         66.9760    8.4850  227.3880 O.2   221  LEU221     -0.2867
     94  CB        68.7550    9.1070  224.6340 C.3   221  LEU221      0.0270
     95  CG        67.7820   10.2760  224.4960 C.3   221  LEU221      0.0019
     96  CD1       68.3220   11.2570  223.4830 C.3   221  LEU221      0.0001
     97  CD2       66.4130    9.7940  224.0450 C.3   221  LEU221      0.0001
@<TRIPOS>BOND
     1    70    69    2
     2    69    68    1
     3    41    42    1
     4    65    64    1
     5    43    42    1
     6    43    44    2
     7    68    67    1
     8    68    71    1
     9    45    42    1
    10    45    46    1
    11    48    46   ar
    12    48    50   ar
    13    67    62   am
    14    71    72    1
    15    52    53    1
    16    46    47   ar
    17    64    66    1
    18    64    61    1
    19    62    63    2
    20    62    61    1
    21    50    51   ar
    22    60    61    1
    23    60    54   am
    24    74    72    1
    25    72    73    1
    26    53    54    1
    27    53    56    1
    28    47    49   ar
    29    54    55    2
    30    51    49   ar
    31    56    57    1
    32    57    58    1
    33    59    58    1
    34    80    79    1
    35    79    81    1
    36    79    76    1
    37    75    76    1
    38    76    77    1
    39    87    88    1
    40    87    86    1
    41    77    78    2
    42    88    89    1
    43    86    83    1
    44    36    35    2
    45    82    83    1
    46    83    84    1
    47    39    37    1
    48    35    34    1
    49    34    37    1
    50    34    33    1
    51    84    85    2
    52    37    38    1
    53    38    40    1
    54    96    95    1
    55    97    95    1
    56    95    94    1
    57    32    31    1
    58    94    91    1
    59    24    22    1
    60     7     6    1
    61    90    91    1
    62    28    27    2
    63    91    92    1
    64    23    21    1
    65    22    21    1
    66    31    30    1
    67    16    14    1
    68    92    93    2
    69    14    13    1
    70     8     6    1
    71     6     5    1
    72    29    30    1
    73    29    26    1
    74    27    26    1
    75     5     2    1
    76    21    18    1
    77    26    25    1
    78     4     3    2
    79    18    19    1
    80    18    17    1
    81    13    10    1
    82    13    15    1
    83    20    19    2
    84    10     9    1
    85    10    11    1
    86     3     2    1
    87     3     9   am
    88     2     1    1
    89    12    11    2
