@<TRIPOS>MOLECULE
tmp/6c1oB00.pdb
 187 175 0 0 0
SMALL
GASTEIGER

@<TRIPOS>ATOM
      1  N        -49.6630   12.1140   39.7220 N.3    21  LEU21      -0.1231
      2  CA       -50.0550   12.7520   38.4520 C.3    21  LEU21       0.1693
      3  C        -50.6830   11.7930   37.4330 C.2    21  LEU21       0.2592
      4  O        -51.5330   12.2110   36.6450 O.2    21  LEU21      -0.2718
      5  CB       -48.8500   13.4580   37.8260 C.3    21  LEU21       0.0284
      6  CG       -48.3070   14.6600   38.6070 C.3    21  LEU21       0.0019
      7  CD1      -46.9400   15.0700   38.0780 C.3    21  LEU21       0.0001
      8  CD2      -49.2710   15.8400   38.5650 C.3    21  LEU21       0.0001
      9  N        -50.2650   10.5270   37.4310 N.am   22  GLY22      -0.1957
     10  CA       -50.8780    9.5210   36.5600 C.3    22  GLY22       0.1869
     11  C        -50.2590    8.1350   36.6490 C.2    22  GLY22       0.2309
     12  O        -49.5140    7.8340   37.5870 O.2    22  GLY22      -0.2863
     13  N        -46.3570    7.9340   38.0680 N.3    27  VAL27      -0.1245
     14  CA       -45.8160    9.2920   38.0090 C.3    27  VAL27       0.1561
     15  C        -46.3420   10.1100   39.1790 C.2    27  VAL27       0.2260
     16  O        -47.5300   10.0390   39.4980 O.2    27  VAL27      -0.2867
     17  CB       -46.1820    9.9970   36.6830 C.3    27  VAL27       0.0252
     18  CG1      -45.4890   11.3540   36.5800 C.3    27  VAL27       0.0019
     19  CG2      -45.8240    9.1120   35.4930 C.3    27  VAL27       0.0019
     20  N        -41.7770   16.5140   37.8640 N.3    44  ALA44      -0.1245
     21  CA       -42.4600   15.2360   37.6980 C.3    44  ALA44       0.1562
     22  C        -41.4510   14.1090   37.8720 C.2    44  ALA44       0.2260
     23  O        -40.3210   14.2030   37.3990 O.2    44  ALA44      -0.2867
     24  CB       -43.1100   15.1550   36.3270 C.3    44  ALA44       0.0290
     25  N        -41.0070    9.8250   37.6130 N.3    46  LYS46      -0.1245
     26  CA       -41.5150    8.5140   37.2140 C.3    46  LYS46       0.1561
     27  C        -40.8210    7.4250   38.0180 C.2    46  LYS46       0.2260
     28  O        -39.5970    7.4530   38.1640 O.2    46  LYS46      -0.2867
     29  CB       -41.2660    8.2750   35.7310 C.3    46  LYS46       0.0271
     30  CG       -41.9690    7.0460   35.1760 C.3    46  LYS46       0.0035
     31  CD       -42.0090    7.1010   33.6560 C.3    46  LYS46       0.0206
     32  CE       -42.8870    6.0160   33.0660 C.3    46  LYS46       0.1093
     33  NZ       -43.2960    6.3860   31.6810 N.3    46  LYS46      -0.1314
     34  N        -37.6890    1.1980   32.0030 N.3    60  LEU60      -0.1245
     35  CA       -37.6590    2.5560   32.5710 C.3    60  LEU60       0.1561
     36  C        -36.2530    3.1450   32.5090 C.2    60  LEU60       0.2260
     37  O        -36.0970    4.3370   32.2780 O.2    60  LEU60      -0.2867
     38  CB       -38.1930    2.5820   34.0090 C.3    60  LEU60       0.0270
     39  CG       -38.3250    3.9630   34.6760 C.3    60  LEU60       0.0019
     40  CD1      -39.1540    4.9230   33.8390 C.3    60  LEU60       0.0001
     41  CD2      -38.9340    3.8320   36.0630 C.3    60  LEU60       0.0001
     42  N        -35.6500    4.0830   28.8250 N.3    63  GLU63      -0.1245
     43  CA       -36.4310    5.3080   28.6560 C.3    63  GLU63       0.1567
     44  C        -35.6810    6.5320   29.2050 C.2    63  GLU63       0.2260
     45  O        -35.6600    7.5760   28.5620 O.2    63  GLU63      -0.2867
     46  CB       -37.8060    5.1670   29.3250 C.3    63  GLU63       0.0388
     47  CG       -38.6580    6.4340   29.3260 C.3    63  GLU63       0.1160
     48  CD       -40.0660    6.2200   29.8580 C.2    63  GLU63       0.3649
     49  OE1      -40.4020    5.0950   30.3060 O.co2  63  GLU63      -0.2457
     50  OE2      -40.8470    7.1960   29.8310 O.co2  63  GLU63      -0.2457
     51  N        -33.6510    9.6210   26.8390 N.3    67  MET67      -0.1245
     52  CA       -33.7850   11.0620   27.0800 C.3    67  MET67       0.1570
     53  C        -32.4400   11.7850   27.2220 C.2    67  MET67       0.2261
     54  O        -32.3220   12.9460   26.8240 O.2    67  MET67      -0.2867
     55  CB       -34.6680   11.3260   28.3020 C.3    67  MET67       0.0387
     56  CG       -36.1080   10.9050   28.0850 C.3    67  MET67       0.0595
     57  SD       -37.1590   11.1720   29.5130 S.3    67  MET67      -0.1393
     58  CE       -37.4260   12.9370   29.3750 C.3    67  MET67       0.0692
     59  N        -40.5650   17.5850   26.9600 N.3    77  ILE77      -0.1245
     60  CA       -40.4050   17.2870   28.3860 C.3    77  ILE77       0.1561
     61  C        -38.9700   16.8020   28.5840 C.2    77  ILE77       0.2260
     62  O        -38.6110   15.7280   28.0990 O.2    77  ILE77      -0.2867
     63  CB       -41.4170   16.2260   28.8710 C.3    77  ILE77       0.0252
     64  CG1      -42.8440   16.7910   28.8290 C.3    77  ILE77       0.0019
     65  CG2      -41.0750   15.7400   30.2800 C.3    77  ILE77       0.0019
     66  CD1      -43.1730   17.7780   29.9370 C.3    77  ILE77       0.0001
     67  N        -36.9330    8.7660   37.9020 N.3    91  VAL91      -0.1245
     68  CA       -36.5490    9.5270   36.7210 C.3    91  VAL91       0.1561
     69  C        -37.2630   10.8630   36.8440 C.2    91  VAL91       0.2260
     70  O        -38.4890   10.9100   36.8370 O.2    91  VAL91      -0.2867
     71  CB       -36.9520    8.8060   35.4170 C.3    91  VAL91       0.0252
     72  CG1      -36.5590    9.6350   34.1980 C.3    91  VAL91       0.0019
     73  CG2      -36.3020    7.4290   35.3620 C.3    91  VAL91       0.0019
     74  N        -38.1970   14.5850   35.6350 N.3    93  VAL93      -0.1231
     75  CA       -38.3720   15.3960   34.4230 C.3    93  VAL93       0.1692
     76  C        -39.1190   16.6960   34.7480 C.2    93  VAL93       0.2592
     77  O        -39.5530   16.9090   35.8900 O.2    93  VAL93      -0.2718
     78  CB       -39.1140   14.6090   33.3130 C.3    93  VAL93       0.0266
     79  CG1      -38.4080   13.2960   33.0180 C.3    93  VAL93       0.0020
     80  CG2      -40.5690   14.3510   33.6860 C.3    93  VAL93       0.0020
     81  N        -39.2650   17.5520   33.7360 N.am   94  GLU94      -0.1966
     82  CA       -39.9740   18.8240   33.8760 C.3    94  GLU94       0.1733
     83  C        -41.4580   18.6150   34.1380 C.2    94  GLU94       0.2616
     84  O        -42.0690   17.7120   33.5670 O.2    94  GLU94      -0.2715
     85  CB       -39.8180   19.6770   32.6190 C.3    94  GLU94       0.0429
     86  CG       -38.4150   20.2120   32.3800 C.3    94  GLU94       0.1163
     87  CD       -38.2930   20.9190   31.0380 C.2    94  GLU94       0.3649
     88  OE1      -38.6840   20.3160   30.0140 O.co2  94  GLU94      -0.2457
     89  OE2      -37.8000   22.0680   31.0020 O.co2  94  GLU94      -0.2457
     90  N        -42.0170   19.4630   35.0020 N.am   95  TYR95      -0.1960
     91  CA       -43.4400   19.4480   35.3340 C.3    95  TYR95       0.1771
     92  C        -44.1760   20.4460   34.4460 C.2    95  TYR95       0.2619
     93  O        -43.6630   21.5400   34.1790 O.2    95  TYR95      -0.2715
     94  CB       -43.6460   19.8140   36.8070 C.3    95  TYR95       0.0574
     95  CG       -45.0930   19.8310   37.2660 C.ar   95  TYR95      -0.0198
     96  CD1      -45.9240   18.7300   37.0570 C.ar   95  TYR95      -0.0009
     97  CD2      -45.6240   20.9390   37.9320 C.ar   95  TYR95      -0.0009
     98  CE1      -47.2460   18.7360   37.4780 C.ar   95  TYR95       0.0417
     99  CE2      -46.9470   20.9510   38.3610 C.ar   95  TYR95       0.0417
    100  CZ       -47.7510   19.8450   38.1330 C.ar   95  TYR95       0.1957
    101  OH       -49.0590   19.8450   38.5540 O.3    95  TYR95      -0.2866
    102  N        -45.3720   20.0460   34.0040 N.am   96  ALA96      -0.1963
    103  CA       -46.2720   20.8710   33.2010 C.3    96  ALA96       0.1728
    104  C        -47.5940   21.0370   33.9600 C.2    96  ALA96       0.2616
    105  O        -48.4430   20.1370   33.9430 O.2    96  ALA96      -0.2715
    106  CB       -46.5100   20.2050   31.8600 C.3    96  ALA96       0.0334
    107  N        -47.7620   22.1810   34.6250 N.am   97  SER97      -0.1950
    108  CA       -48.8870   22.3890   35.5500 C.3    97  SER97       0.1924
    109  C        -50.2790   22.3660   34.9050 C.2    97  SER97       0.2314
    110  O        -51.2300   21.8820   35.5240 O.2    97  SER97      -0.2863
    111  CB       -48.7000   23.6880   36.3490 C.3    97  SER97       0.2116
    112  OG       -48.4940   24.8070   35.5080 O.3    97  SER97      -0.2180
    113  N        -51.5400   20.6350   32.3530 N.3    99  GLY99      -0.1210
    114  CA       -52.0340   19.3800   31.7780 C.3    99  GLY99       0.1956
    115  C        -51.8290   19.2560   30.2830 C.2    99  GLY99       0.2611
    116  O        -51.0880   20.0400   29.6850 O.2    99  GLY99      -0.2717
    117  N        -52.4930   18.2710   29.6790 N.am  100  ASN100     -0.1974
    118  CA       -52.3550   18.0140   28.2370 C.3   100  ASN100      0.1688
    119  C        -53.0270   19.1020   27.3830 C.2   100  ASN100      0.2292
    120  O        -53.9020   19.8220   27.8660 O.2   100  ASN100     -0.2864
    121  CB       -52.8570   16.6060   27.8620 C.3   100  ASN100      0.1181
    122  CG       -54.3680   16.4780   27.9080 C.2   100  ASN100      0.2629
    123  OD1      -55.0820   17.0850   27.1070 O.2   100  ASN100     -0.2716
    124  ND2      -54.8630   15.6700   28.8330 N.am  100  ASN100     -0.0877
    125  N        -53.1840   15.1200   23.1640 N.3   144  ARG144     -0.1231
    126  CA       -53.0700   14.4400   24.4680 C.3   144  ARG144      0.1694
    127  C        -51.6190   14.1380   24.9000 C.2   144  ARG144      0.2592
    128  O        -51.3490   14.0110   26.0960 O.2   144  ARG144     -0.2718
    129  CB       -53.9020   13.1480   24.4860 C.3   144  ARG144      0.0321
    130  CG       -53.4350   12.0890   23.5030 C.3   144  ARG144      0.0489
    131  CD       -54.1730   10.7720   23.6490 C.3   144  ARG144      0.2205
    132  NE       -53.7260    9.8670   22.5940 N.pl3 144  ARG144     -0.0865
    133  CZ       -54.1190    9.9170   21.3180 C.cat 144  ARG144      0.5346
    134  NH1      -55.0140   10.8140   20.8940 N.pl3 144  ARG144      0.1354
    135  NH2      -53.6130    9.0490   20.4490 N.pl3 144  ARG144      0.1354
    136  N        -50.7050   14.0090   23.9330 N.am  145  ASN145     -0.1974
    137  CA       -49.2700   13.8140   24.2030 C.3   145  ASN145      0.1688
    138  C        -48.4440   15.0920   24.0180 C.2   145  ASN145      0.2292
    139  O        -47.2540   15.0270   23.7150 O.2   145  ASN145     -0.2864
    140  CB       -48.7210   12.6770   23.3290 C.3   145  ASN145      0.1181
    141  CG       -49.3860   11.3460   23.6220 C.2   145  ASN145      0.2629
    142  OD1      -49.8270   11.1000   24.7400 O.2   145  ASN145     -0.2716
    143  ND2      -49.4600   10.4800   22.6180 N.am  145  ASN145     -0.0877
    144  N        -47.9170   18.5590   26.5120 N.3   147  LEU147     -0.1245
    145  CA       -48.2360   19.1180   27.8290 C.3   147  LEU147      0.1561
    146  C        -47.9570   20.6130   27.8530 C.2   147  LEU147      0.2260
    147  O        -47.0750   21.0950   27.1380 O.2   147  LEU147     -0.2867
    148  CB       -47.4250   18.4240   28.9250 C.3   147  LEU147      0.0270
    149  CG       -47.5510   16.9040   29.0260 C.3   147  LEU147      0.0019
    150  CD1      -46.6410   16.3860   30.1260 C.3   147  LEU147      0.0001
    151  CD2      -48.9910   16.4930   29.2900 C.3   147  LEU147      0.0001
    152  N        -44.6440   15.2040   24.8420 N.3   157  ALA157     -0.1231
    153  CA       -44.5900   14.1780   25.8910 C.3   157  ALA157      0.1694
    154  C        -44.4660   12.7780   25.2900 C.2   157  ALA157      0.2592
    155  O        -44.8810   12.5460   24.1550 O.2   157  ALA157     -0.2718
    156  CB       -45.8400   14.2590   26.7630 C.3   157  ALA157      0.0304
    157  N        -43.8930   11.8620   26.0720 N.am  158  ASP158     -0.1960
    158  CA       -43.8130   10.4260   25.7470 C.3   158  ASP158      0.1840
    159  C        -43.2480   10.1470   24.3570 C.2   158  ASP158      0.2622
    160  O        -43.8040    9.3660   23.5790 O.2   158  ASP158     -0.2715
    161  CB       -45.1820    9.7590   25.9430 C.3   158  ASP158      0.1450
    162  CG       -45.7050    9.9070   27.3670 C.2   158  ASP158      0.3671
    163  OD1      -44.8850    9.9890   28.3080 O.co2 158  ASP158     -0.2456
    164  OD2      -46.9390    9.9460   27.5490 O.co2 158  ASP158     -0.2456
    165  N        -42.1140   10.7870   24.0880 N.am  159  PHE159     -0.1960
    166  CA       -41.4280   10.7190   22.7920 C.3   159  PHE159      0.1771
    167  C        -40.3780    9.6090   22.7050 C.2   159  PHE159      0.2620
    168  O        -40.0310    9.1930   21.6020 O.2   159  PHE159     -0.2715
    169  CB       -40.7860   12.0700   22.4320 C.3   159  PHE159      0.0574
    170  CG       -39.8240   12.5980   23.4650 C.ar  159  PHE159     -0.0200
    171  CD1      -38.5090   12.1360   23.5250 C.ar  159  PHE159     -0.0042
    172  CD2      -40.2300   13.5790   24.3660 C.ar  159  PHE159     -0.0042
    173  CE1      -37.6260   12.6340   24.4720 C.ar  159  PHE159     -0.0003
    174  CE2      -39.3550   14.0770   25.3130 C.ar  159  PHE159     -0.0003
    175  CZ       -38.0480   13.6070   25.3670 C.ar  159  PHE159     -0.0000
    176  N        -39.8640    9.1500   23.8480 N.am  160  GLY160     -0.1940
    177  CA       -38.8600    8.0770   23.8890 C.3   160  GLY160      0.2014
    178  C        -39.4780    6.6990   24.0510 C.2   160  GLY160      0.2638
    179  O        -39.1680    5.9820   25.0120 O.2   160  GLY160     -0.2714
    180  N        -40.3390    6.3350   23.0960 N.am  161  LEU161     -0.1977
    181  CA       -41.1550    5.1160   23.1510 C.3   161  LEU161      0.1596
    182  C        -41.0500    4.3600   21.8260 C.2   161  LEU161      0.2287
    183  O        -41.5790    3.2560   21.6790 O.2   161  LEU161     -0.2864
    184  CB       -42.6240    5.4710   23.4550 C.3   161  LEU161      0.0297
    185  CG       -43.1030    5.3790   24.9130 C.3   161  LEU161      0.0022
    186  CD1      -42.2870    6.2600   25.8540 C.3   161  LEU161      0.0001
    187  CD2      -44.5840    5.7230   25.0050 C.3   161  LEU161      0.0001
@<TRIPOS>BOND
     1   135   133    1
     2   134   133    1
     3   133   132    2
     4   168   167    2
     5   183   182    2
     6   182   181    1
     7   169   166    1
     8   169   170    1
     9   132   131    1
    10   143   141   am
    11   167   166    1
    12   167   176   am
    13   166   165    1
    14   180   181    1
    15   180   178   am
    16   181   184    1
    17   125   126    1
    18   140   141    1
    19   140   137    1
    20   184   185    1
    21   170   171   ar
    22   170   172   ar
    23   130   131    1
    24   130   129    1
    25   171   173   ar
    26   160   159    2
    27   141   142    2
    28   139   138    2
    29   176   177    1
    30   177   178    1
    31   136   137    1
    32   136   127   am
    33   138   137    1
    34   178   179    2
    35   165   159   am
    36   155   154    2
    37   159   158    1
    38   172   174   ar
    39   126   129    1
    40   126   127    1
    41   173   175   ar
    42   152   153    1
    43   127   128    2
    44   185   187    1
    45   185   186    1
    46   154   153    1
    47   154   157   am
    48   174   175   ar
    49   158   161    1
    50   158   157    1
    51   153   156    1
    52   161   162    1
    53   144   145    1
    54    54    53    2
    55    51    52    1
    56    59    60    1
    57    52    53    1
    58    52    55    1
    59   123   122    2
    60   147   146    2
    61   162   164   ar
    62   162   163   ar
    63   119   120    2
    64   119   118    1
    65   145   146    1
    66   145   148    1
    67   121   122    1
    68   121   118    1
    69   122   124   am
    70    56    55    1
    71    56    57    1
    72    62    61    2
    73   118   117    1
    74    60    61    1
    75    60    63    1
    76    45    44    2
    77    43    42    1
    78    43    44    1
    79    43    46    1
    80    64    63    1
    81    64    66    1
    82    63    65    1
    83   148   149    1
    84   149   151    1
    85   149   150    1
    86    46    47    1
    87    47    48    1
    88    58    57    1
    89   117   115   am
    90   116   115    2
    91    50    48   ar
    92    48    49   ar
    93    88    87   ar
    94   115   114    1
    95    89    87   ar
    96    87    86    1
    97    33    32    1
    98   114   113    1
    99   106   103    1
   100    34    35    1
   101    37    36    2
   102    86    85    1
   103    36    35    1
   104    35    38    1
   105    85    82    1
   106    79    78    1
   107    32    31    1
   108   103   104    1
   109   103   102    1
   110    78    80    1
   111    78    75    1
   112    84    83    2
   113    31    30    1
   114    81    82    1
   115    81    76   am
   116    40    39    1
   117    82    83    1
   118   105   104    2
   119   104   107   am
   120   102    92   am
   121    38    39    1
   122    83    90   am
   123    93    92    2
   124    72    71    1
   125    75    76    1
   126    75    74    1
   127    92    91    1
   128   107   108    1
   129    39    41    1
   130    76    77    2
   131   109   110    2
   132   109   108    1
   133    90    91    1
   134    30    29    1
   135    91    94    1
   136    73    71    1
   137    71    68    1
   138    19    17    1
   139   112   111    1
   140   108   111    1
   141    29    26    1
   142    24    21    1
   143    10    11    1
   144    10     9    1
   145    18    17    1
   146     4     3    2
   147    11    12    2
   148    17    14    1
   149    68    69    1
   150    68    67    1
   151    94    95    1
   152    70    69    2
   153    96    95   ar
   154    96    98   ar
   155    26    25    1
   156    26    27    1
   157    95    97   ar
   158    23    22    2
   159     9     3   am
   160     3     2    1
   161    98   100   ar
   162    21    20    1
   163    21    22    1
   164     5     2    1
   165     5     6    1
   166    97    99   ar
   167    14    13    1
   168    14    15    1
   169    27    28    2
   170     7     6    1
   171   100    99   ar
   172   100   101    1
   173     2     1    1
   174     8     6    1
   175    15    16    2
