@<TRIPOS>MOLECULE
tmp/6c1oA00.pdb
 214 201 0 0 0
SMALL
GASTEIGER

@<TRIPOS>ATOM
      1  N        -17.9430  -17.8570   24.1270 N.3    19  LYS19      -0.1245
      2  CA       -18.9510  -18.6670   23.4170 C.3    19  LYS19       0.1561
      3  C        -18.7110  -18.7320   21.8990 C.2    19  LYS19       0.2260
      4  O        -18.1040  -17.8190   21.3350 O.2    19  LYS19      -0.2867
      5  CB       -20.3740  -18.1500   23.6890 C.3    19  LYS19       0.0271
      6  CG       -20.5960  -16.6790   23.3590 C.3    19  LYS19       0.0035
      7  CD       -22.0180  -16.3900   22.9140 C.3    19  LYS19       0.0206
      8  CE       -22.1910  -14.9170   22.5810 C.3    19  LYS19       0.1093
      9  NZ       -23.3980  -14.6860   21.7430 N.3    19  LYS19      -0.1314
     10  N        -19.1010  -18.3130   17.9330 N.3    21  LEU21      -0.1231
     11  CA       -19.6980  -17.3400   17.0070 C.3    21  LEU21       0.1693
     12  C        -20.1910  -17.9820   15.7070 C.2    21  LEU21       0.2592
     13  O        -21.1210  -17.4690   15.0880 O.2    21  LEU21      -0.2718
     14  CB       -18.7000  -16.2230   16.6850 C.3    21  LEU21       0.0284
     15  CG       -18.3090  -15.3050   17.8430 C.3    21  LEU21       0.0019
     16  CD1      -17.2780  -14.2910   17.3700 C.3    21  LEU21       0.0001
     17  CD2      -19.5240  -14.6020   18.4350 C.3    21  LEU21       0.0001
     18  N        -19.5680  -19.0860   15.2950 N.am   22  GLY22      -0.1957
     19  CA       -19.9830  -19.8210   14.0990 C.3    22  GLY22       0.1869
     20  C        -18.9220  -20.7990   13.6290 C.2    22  GLY22       0.2309
     21  O        -17.7350  -20.6230   13.9180 O.2    22  GLY22      -0.2863
     22  N        -14.9300  -20.5500   14.8650 N.3    29  VAL29      -0.1245
     23  CA       -14.7210  -19.2080   15.4190 C.3    29  VAL29       0.1561
     24  C        -15.4160  -19.0970   16.7710 C.2    29  VAL29       0.2260
     25  O        -16.4940  -19.6530   16.9700 O.2    29  VAL29      -0.2867
     26  CB       -15.2480  -18.1020   14.4780 C.3    29  VAL29       0.0252
     27  CG1      -14.9640  -16.7160   15.0570 C.3    29  VAL29       0.0019
     28  CG2      -14.6290  -18.2490   13.0920 C.3    29  VAL29       0.0019
     29  N        -12.8050  -11.6760   18.1630 N.3    49  ALA49      -0.1245
     30  CA       -13.2090  -12.9450   17.5690 C.3    49  ALA49       0.1562
     31  C        -11.9440  -13.7370   17.3030 C.2    49  ALA49       0.2260
     32  O        -10.9280  -13.1720   16.9040 O.2    49  ALA49      -0.2867
     33  CB       -13.9830  -12.7080   16.2820 C.3    49  ALA49       0.0290
     34  N        -10.3340  -17.3100   15.5610 N.3    51  LYS51      -0.1245
     35  CA       -10.4860  -18.4520   14.6640 C.3    51  LYS51       0.1561
     36  C         -9.4600  -19.5200   14.9980 C.2    51  LYS51       0.2260
     37  O         -8.2920  -19.2110   15.2060 O.2    51  LYS51      -0.2867
     38  CB       -10.3180  -18.0200   13.2100 C.3    51  LYS51       0.0271
     39  CG       -10.7210  -19.0850   12.2030 C.3    51  LYS51       0.0035
     40  CD       -10.9130  -18.4750   10.8250 C.3    51  LYS51       0.0206
     41  CE       -11.5170  -19.4560    9.8410 C.3    51  LYS51       0.1093
     42  NZ       -11.8340  -18.7680    8.5570 N.3    51  LYS51      -0.1314
     43  N         -5.8010  -21.8610    7.0490 N.3    65  LEU65      -0.1245
     44  CA        -5.8530  -20.9560    8.2040 C.3    65  LEU65       0.1561
     45  C         -4.6130  -20.0600    8.2720 C.2    65  LEU65       0.2260
     46  O         -4.7200  -18.8500    8.4900 O.2    65  LEU65      -0.2867
     47  CB        -5.9880  -21.7660    9.5000 C.3    65  LEU65       0.0270
     48  CG        -6.0650  -21.0170   10.8350 C.3    65  LEU65       0.0019
     49  CD1       -7.1710  -19.9750   10.8200 C.3    65  LEU65       0.0001
     50  CD2       -6.2660  -22.0100   11.9730 C.3    65  LEU65       0.0001
     51  N         -4.7330  -17.5420    5.3620 N.3    68  GLU68      -0.1231
     52  CA        -5.6640  -16.4460    5.6580 C.3    68  GLU68       0.1699
     53  C         -5.0040  -15.4020    6.5580 C.2    68  GLU68       0.2592
     54  O         -5.0240  -14.2120    6.2450 O.2    68  GLU68      -0.2718
     55  CB        -6.9440  -16.9750    6.3110 C.3    68  GLU68       0.0402
     56  CG        -8.0240  -15.9170    6.5150 C.3    68  GLU68       0.1161
     57  CD        -9.3370  -16.4860    7.0220 C.2    68  GLU68       0.3649
     58  OE1       -9.3620  -17.6360    7.5090 O.co2  68  GLU68      -0.2457
     59  OE2      -10.3570  -15.7720    6.9390 O.co2  68  GLU68      -0.2457
     60  N         -4.4110  -15.8660    7.6580 N.am   69  MET69      -0.1979
     61  CA        -3.6640  -15.0090    8.5910 C.3    69  MET69       0.1605
     62  C         -2.5860  -14.1890    7.8700 C.2    69  MET69       0.2287
     63  O         -2.5790  -12.9610    7.9520 O.2    69  MET69      -0.2864
     64  CB        -3.0250  -15.8620    9.6970 C.3    69  MET69       0.0413
     65  CG        -2.3040  -15.0730   10.7840 C.3    69  MET69       0.0598
     66  SD        -1.6200  -16.1110   12.0930 S.3    69  MET69      -0.1393
     67  CE        -0.4400  -17.1040   11.1840 C.3    69  MET69       0.0692
     68  N         -3.9820  -11.5880    5.6480 N.3    72  MET72      -0.1245
     69  CA        -4.4800  -10.4600    6.4520 C.3    72  MET72       0.1570
     70  C         -3.3720   -9.5310    6.9650 C.2    72  MET72       0.2261
     71  O         -3.5970   -8.3310    7.0960 O.2    72  MET72      -0.2867
     72  CB        -5.3390  -10.9530    7.6260 C.3    72  MET72       0.0387
     73  CG        -6.6710  -11.5370    7.1960 C.3    72  MET72       0.0595
     74  SD        -7.6530  -12.1760    8.5620 S.3    72  MET72      -0.1393
     75  CE        -8.5040  -10.6890    9.0930 C.3    72  MET72       0.0692
     76  N        -12.7390   -6.4220    8.4190 N.3    82  ILE82      -0.1245
     77  CA       -12.3790   -7.1630    9.6320 C.3    82  ILE82       0.1561
     78  C        -10.8570   -7.2790    9.6610 C.2    82  ILE82       0.2260
     79  O        -10.2630   -7.9100    8.7830 O.2    82  ILE82      -0.2867
     80  CB       -13.0260   -8.5650    9.6640 C.3    82  ILE82       0.0252
     81  CG1      -14.5600   -8.4520    9.7350 C.3    82  ILE82       0.0019
     82  CG2      -12.4860   -9.3990   10.8200 C.3    82  ILE82       0.0019
     83  CD1      -15.1270   -7.9790   11.0640 C.3    82  ILE82       0.0001
     84  N         -6.1740  -17.3360   15.5890 N.3    96  VAL96      -0.1245
     85  CA        -6.0700  -16.1160   14.7980 C.3    96  VAL96       0.1561
     86  C         -7.0930  -15.1350   15.3580 C.2    96  VAL96       0.2260
     87  O         -8.2960  -15.4150   15.3350 O.2    96  VAL96      -0.2867
     88  CB        -6.3460  -16.3820   13.2990 C.3    96  VAL96       0.0252
     89  CG1       -6.0950  -15.1230   12.4740 C.3    96  VAL96       0.0019
     90  CG2       -5.4800  -17.5360   12.8090 C.3    96  VAL96       0.0019
     91  N         -9.0890  -11.6200   15.4920 N.3    98  VAL98      -0.1231
     92  CA        -9.5760  -10.5440   14.6290 C.3    98  VAL98       0.1692
     93  C        -10.6280   -9.6980   15.3400 C.2    98  VAL98       0.2592
     94  O        -11.1110  -10.0670   16.4140 O.2    98  VAL98      -0.2718
     95  CB       -10.1650  -11.0870   13.2990 C.3    98  VAL98       0.0266
     96  CG1       -9.1150  -11.8730   12.5250 C.3    98  VAL98       0.0020
     97  CG2      -11.3980  -11.9480   13.5420 C.3    98  VAL98       0.0020
     98  N        -10.9800   -8.5690   14.7250 N.am   99  GLU99      -0.1966
     99  CA       -12.0090   -7.6750   15.2650 C.3    99  GLU99       0.1733
    100  C        -13.3500   -8.3850   15.3690 C.2    99  GLU99       0.2616
    101  O        -13.6710   -9.2510   14.5460 O.2    99  GLU99      -0.2715
    102  CB       -12.1680   -6.4220   14.4000 C.3    99  GLU99       0.0429
    103  CG       -11.0140   -5.4320   14.5060 C.3    99  GLU99       0.1163
    104  CD       -11.1210   -4.2870   13.5070 C.2    99  GLU99       0.3649
    105  OE1      -11.5910   -4.5210   12.3710 O.co2  99  GLU99      -0.2457
    106  OE2      -10.7070   -3.1510   13.8400 O.co2  99  GLU99      -0.2457
    107  N        -14.1140   -8.0010   16.3860 N.am  100  TYR100     -0.1960
    108  CA       -15.4200   -8.5760   16.6880 C.3   100  TYR100      0.1771
    109  C        -16.5000   -7.6200   16.2140 C.2   100  TYR100      0.2619
    110  O        -16.3730   -6.4030   16.3740 O.2   100  TYR100     -0.2715
    111  CB       -15.5490   -8.7990   18.1970 C.3   100  TYR100      0.0574
    112  CG       -16.9080   -9.2710   18.6820 C.ar  100  TYR100     -0.0198
    113  CD1      -17.4980  -10.4310   18.1730 C.ar  100  TYR100     -0.0009
    114  CD2      -17.5880   -8.5720   19.6830 C.ar  100  TYR100     -0.0009
    115  CE1      -18.7360  -10.8660   18.6310 C.ar  100  TYR100      0.0417
    116  CE2      -18.8180   -9.0020   20.1540 C.ar  100  TYR100      0.0417
    117  CZ       -19.3900  -10.1470   19.6310 C.ar  100  TYR100      0.1957
    118  OH       -20.6150  -10.5590   20.1170 O.3   100  TYR100     -0.2866
    119  N        -17.5640   -8.1900   15.6510 N.am  101  ALA101     -0.1963
    120  CA       -18.6980   -7.4390   15.1280 C.3   101  ALA101      0.1728
    121  C        -19.9480   -7.9890   15.8010 C.2   101  ALA101      0.2617
    122  O        -20.4720   -9.0210   15.3890 O.2   101  ALA101     -0.2715
    123  CB       -18.7720   -7.5970   13.6200 C.3   101  ALA101      0.0334
    124  N        -20.4030   -7.3030   16.8490 N.am  102  SER102     -0.1936
    125  CA       -21.4420   -7.8300   17.7470 C.3   102  SER102      0.2055
    126  C        -22.8250   -7.9840   17.1200 C.2   102  SER102      0.2643
    127  O        -23.6040   -8.8130   17.5820 O.2   102  SER102     -0.2714
    128  CB       -21.5470   -6.9770   19.0200 C.3   102  SER102      0.2130
    129  OG       -21.9230   -5.6430   18.7310 O.3   102  SER102     -0.2179
    130  N        -23.1160   -7.2100   16.0700 N.am  103  LYS103     -0.1963
    131  CA       -24.4290   -7.2480   15.4120 C.3   103  LYS103      0.1728
    132  C        -24.5630   -8.2570   14.2550 C.2   103  LYS103      0.2617
    133  O        -25.6430   -8.3860   13.6810 O.2   103  LYS103     -0.2715
    134  CB       -24.8280   -5.8440   14.9630 C.3   103  LYS103      0.0311
    135  CG       -24.9320   -4.8700   16.1240 C.3   103  LYS103      0.0038
    136  CD       -25.7400   -3.6410   15.7590 C.3   103  LYS103      0.0206
    137  CE       -25.7620   -2.6480   16.9060 C.3   103  LYS103      0.1093
    138  NZ       -26.6330   -1.4750   16.6190 N.3   103  LYS103     -0.1314
    139  N        -23.4940   -8.9820   13.9300 N.am  104  GLY104     -0.1940
    140  CA       -23.5690  -10.0770   12.9560 C.3   104  GLY104      0.2014
    141  C        -23.5690   -9.5990   11.5170 C.2   104  GLY104      0.2638
    142  O        -23.2280   -8.4430   11.2410 O.2   104  GLY104     -0.2714
    143  N        -23.9550  -10.4910   10.6010 N.am  105  ASN105     -0.1972
    144  CA       -23.8910  -10.2030    9.1570 C.3   105  ASN105      0.1688
    145  C        -24.9710   -9.2150    8.7130 C.2   105  ASN105      0.2292
    146  O        -26.0310   -9.1430    9.3200 O.2   105  ASN105     -0.2864
    147  CB       -23.9170  -11.4920    8.3130 C.3   105  ASN105      0.1181
    148  CG       -25.2900  -12.1470    8.2510 C.2   105  ASN105      0.2629
    149  OD1      -26.1550  -11.7310    7.4810 O.2   105  ASN105     -0.2716
    150  ND2      -25.4830  -13.1980    9.0420 N.am  105  ASN105     -0.0877
    151  N        -28.8380  -10.5060    7.9430 N.3   108  GLU108     -0.1245
    152  CA       -29.6900  -10.7690    9.1230 C.3   108  GLU108      0.1567
    153  C        -30.0530   -9.4540    9.8320 C.2   108  GLU108      0.2260
    154  O        -31.1940   -9.2610   10.2560 O.2   108  GLU108     -0.2867
    155  CB       -29.0040  -11.7140   10.1260 C.3   108  GLU108      0.0388
    156  CG       -28.5420  -13.0630    9.5740 C.3   108  GLU108      0.1160
    157  CD       -29.6660  -14.0470    9.3220 C.2   108  GLU108      0.3649
    158  OE1      -30.0980  -14.7220   10.2850 O.co2 108  GLU108     -0.2457
    159  OE2      -30.0950  -14.1700    8.1510 O.co2 108  GLU108     -0.2457
    160  N        -24.2460  -11.2400    3.4350 N.3   159  ARG159     -0.1231
    161  CA       -23.8410  -12.2660    4.4070 C.3   159  ARG159      0.1694
    162  C        -22.3450  -12.2310    4.7880 C.2   159  ARG159      0.2592
    163  O        -21.9890  -12.6570    5.8850 O.2   159  ARG159     -0.2718
    164  CB       -24.2370  -13.6710    3.9170 C.3   159  ARG159      0.0321
    165  CG       -23.4640  -14.1810    2.7100 C.3   159  ARG159      0.0489
    166  CD       -23.9000  -15.5820    2.3030 C.3   159  ARG159      0.2205
    167  NE       -23.0660  -16.0890    1.2080 N.pl3 159  ARG159     -0.0865
    168  CZ       -23.2050  -15.7820   -0.0840 C.cat 159  ARG159      0.5346
    169  NH1      -24.1710  -14.9680   -0.5130 N.pl3 159  ARG159      0.1354
    170  NH2      -22.3640  -16.3090   -0.9670 N.pl3 159  ARG159      0.1354
    171  N        -21.4870  -11.7390    3.8860 N.am  160  ASN160     -0.1974
    172  CA       -20.0470  -11.5780    4.1510 C.3   160  ASN160      0.1688
    173  C        -19.6510  -10.1230    4.4600 C.2   160  ASN160      0.2292
    174  O        -18.5150   -9.7200    4.2340 O.2   160  ASN160     -0.2864
    175  CB       -19.2170  -12.1400    2.9830 C.3   160  ASN160      0.1181
    176  CG       -19.3630  -13.6470    2.8250 C.2   160  ASN160      0.2629
    177  OD1      -19.5140  -14.3740    3.8040 O.2   160  ASN160     -0.2716
    178  ND2      -19.3080  -14.1230    1.5890 N.am  160  ASN160     -0.0877
    179  N        -19.9930   -7.7750    7.9950 N.3   162  LEU162     -0.1245
    180  CA       -20.3660   -7.8100    9.4030 C.3   162  LEU162      0.1561
    181  C        -20.5770   -6.3970    9.9310 C.2   162  LEU162      0.2260
    182  O        -20.0330   -5.4330    9.3850 O.2   162  LEU162     -0.2867
    183  CB       -19.2990   -8.5390   10.2180 C.3   162  LEU162      0.0270
    184  CG       -19.1720  -10.0430    9.9650 C.3   162  LEU162      0.0019
    185  CD1      -17.9660  -10.5990   10.7000 C.3   162  LEU162      0.0001
    186  CD2      -20.4290  -10.7960   10.3790 C.3   162  LEU162      0.0001
    187  N        -16.0800   -9.0340    5.4110 N.3   172  ALA172     -0.1231
    188  CA       -15.6400  -10.2820    6.0330 C.3   172  ALA172      0.1694
    189  C        -15.1260  -11.2480    4.9710 C.2   172  ALA172      0.2592
    190  O        -15.4720  -11.1270    3.7910 O.2   172  ALA172     -0.2718
    191  CB       -16.7880  -10.9140    6.8120 C.3   172  ALA172      0.0304
    192  N        -14.2990  -12.1950    5.4170 N.am  173  ASP173     -0.1960
    193  CA       -13.8250  -13.3380    4.6210 C.3   173  ASP173      0.1840
    194  C        -13.2610  -12.9540    3.2470 C.2   173  ASP173      0.2622
    195  O        -13.6850  -13.4680    2.2110 O.2   173  ASP173     -0.2715
    196  CB       -14.9300  -14.4060    4.5120 C.3   173  ASP173      0.1450
    197  CG       -15.2500  -15.0740    5.8530 C.2   173  ASP173      0.3671
    198  OD1      -14.4470  -14.9720    6.8130 O.co2 173  ASP173     -0.2456
    199  OD2      -16.3120  -15.7250    5.9420 O.co2 173  ASP173     -0.2456
    200  N        -12.2750  -12.0620    3.2800 N.am  174  PHE174     -0.1960
    201  CA       -11.6740  -11.4720    2.0750 C.3   174  PHE174      0.1771
    202  C        -10.2880  -12.0310    1.7340 C.2   174  PHE174      0.2620
    203  O         -9.7590  -11.7210    0.6740 O.2   174  PHE174     -0.2715
    204  CB       -11.6070   -9.9350    2.1920 C.3   174  PHE174      0.0574
    205  CG       -10.8350   -9.4370    3.3900 C.ar  174  PHE174     -0.0200
    206  CD1       -9.4500   -9.3050    3.3450 C.ar  174  PHE174     -0.0042
    207  CD2      -11.4990   -9.1010    4.5660 C.ar  174  PHE174     -0.0042
    208  CE1       -8.7420   -8.8530    4.4500 C.ar  174  PHE174     -0.0003
    209  CE2      -10.7980   -8.6490    5.6700 C.ar  174  PHE174     -0.0003
    210  CZ        -9.4150   -8.5240    5.6150 C.ar  174  PHE174     -0.0000
    211  N         -9.7050  -12.8440    2.6170 N.am  175  GLY175     -0.1954
    212  CA        -8.3560  -13.3850    2.4130 C.3   175  GLY175      0.1869
    213  C         -8.3260  -14.8610    2.0620 C.2   175  GLY175      0.2309
    214  O         -7.3800  -15.5640    2.4300 O.2   175  GLY175     -0.2863
@<TRIPOS>BOND
     1   170   168    1
     2   169   168    1
     3   168   167    2
     4   203   202    2
     5   167   166    1
     6   178   176   am
     7   202   201    1
     8   202   211   am
     9   213   212    1
    10   213   214    2
    11   201   204    1
    12   201   200    1
    13   204   205    1
    14   195   194    2
    15   166   165    1
    16   212   211    1
    17   165   164    1
    18   176   175    1
    19   176   177    2
    20   175   172    1
    21   194   200   am
    22   194   193    1
    23   206   205   ar
    24   206   208   ar
    25   205   207   ar
    26   160   161    1
    27   190   189    2
    28   171   172    1
    29   171   162   am
    30   164   161    1
    31   172   173    1
    32   174   173    2
    33   161   162    1
    34   208   210   ar
    35   196   193    1
    36   196   197    1
    37   207   209   ar
    38   193   192    1
    39   162   163    2
    40   189   192   am
    41   189   188    1
    42    51    52    1
    43   187   188    1
    44   210   209   ar
    45    68    69    1
    46    52    55    1
    47    52    53    1
    48   197   199   ar
    49   197   198   ar
    50   188   191    1
    51    54    53    2
    52    55    56    1
    53    69    70    1
    54    69    72    1
    55    56    57    1
    56    53    60   am
    57    59    57   ar
    58    70    71    2
    59    57    58   ar
    60    43    44    1
    61    73    72    1
    62    73    74    1
    63   149   148    2
    64    60    61    1
    65    62    63    2
    66    62    61    1
    67   151   152    1
    68   179   180    1
    69   159   157   ar
    70    44    45    1
    71    44    47    1
    72   148   147    1
    73   148   150   am
    74    45    46    2
    75   147   144    1
    76    76    77    1
    77    42    41    1
    78    74    75    1
    79    61    64    1
    80   145   144    1
    81   145   146    2
    82    79    78    2
    83   152   153    1
    84   152   155    1
    85   144   143    1
    86   157   156    1
    87   157   158   ar
    88   182   181    2
    89   180   181    1
    90   180   183    1
    91    47    48    1
    92   156   155    1
    93    77    78    1
    94    77    80    1
    95    80    81    1
    96    80    82    1
    97    64    65    1
    98    81    83    1
    99   153   154    2
   100    41    40    1
   101   184   183    1
   102   184   186    1
   103   184   185    1
   104   143   141   am
   105    65    66    1
   106    49    48    1
   107    40    39    1
   108    48    50    1
   109    67    66    1
   110   142   141    2
   111   141   140    1
   112    39    38    1
   113   105   104   ar
   114    89    88    1
   115    96    95    1
   116    90    88    1
   117   140   139    1
   118    28    26    1
   119    38    35    1
   120    88    85    1
   121    95    97    1
   122    95    92    1
   123   104   106   ar
   124   104   103    1
   125   123   120    1
   126    20    21    2
   127    20    19    1
   128   133   132    2
   129   139   132   am
   130    19    18    1
   131   132   131    1
   132   102   103    1
   133   102    99    1
   134    26    27    1
   135    26    23    1
   136   101   100    2
   137    92    93    1
   138    92    91    1
   139    35    36    1
   140    35    34    1
   141    98    99    1
   142    98    93   am
   143    85    86    1
   144    85    84    1
   145    22    23    1
   146   134   131    1
   147   134   135    1
   148    36    37    2
   149    13    12    2
   150   120   119    1
   151   120   121    1
   152    99   100    1
   153    18    12   am
   154    87    86    2
   155    93    94    2
   156   100   107   am
   157   122   121    2
   158   131   130    1
   159    23    24    1
   160   119   109   am
   161    12    11    1
   162   136   135    1
   163   136   137    1
   164   121   124   am
   165   130   126   am
   166   109   110    2
   167   109   108    1
   168    33    30    1
   169   107   108    1
   170   138   137    1
   171    14    11    1
   172    14    15    1
   173   108   111    1
   174    24    25    2
   175   124   125    1
   176    32    31    2
   177    11    10    1
   178   126   127    2
   179   126   125    1
   180    31    30    1
   181    16    15    1
   182    30    29    1
   183   125   128    1
   184    15    17    1
   185   113   115   ar
   186   113   112   ar
   187   111   112    1
   188   115   117   ar
   189   112   114   ar
   190   129   128    1
   191   117   118    1
   192   117   116   ar
   193   114   116   ar
   194     4     3    2
   195     9     8    1
   196     3     2    1
   197     8     7    1
   198     7     6    1
   199     6     5    1
   200     2     5    1
   201     2     1    1
