@<TRIPOS>MOLECULE
tmp/6c1pA01.pdb
 91 92 0 0 0
SMALL
GASTEIGER

@<TRIPOS>ATOM
      1  N         13.7860 -115.1080  203.3210 N.3   149  LEU149     -0.1231
      2  CA        12.4960 -115.4210  202.7060 C.3   149  LEU149      0.1693
      3  C         12.1010 -114.6830  201.4290 C.2   149  LEU149      0.2592
      4  O         11.5630 -115.2780  200.5040 O.2   149  LEU149     -0.2718
      5  CB        11.3880 -115.1840  203.7110 C.3   149  LEU149      0.0284
      6  CG        11.1640 -116.4050  204.5630 C.3   149  LEU149      0.0019
      7  CD1        9.9980 -116.1080  205.4540 C.3   149  LEU149      0.0001
      8  CD2       10.9090 -117.5950  203.6610 C.3   149  LEU149      0.0001
      9  N         12.2990 -113.3710  201.4170 N.am  150  PHE150     -0.1976
     10  CA        11.6270 -112.5200  200.4530 C.3   150  PHE150      0.1639
     11  C         12.5280 -111.7430  199.4960 C.2   150  PHE150      0.2290
     12  O         12.0470 -110.9000  198.7430 O.2   150  PHE150     -0.2864
     13  CB        10.7260 -111.5360  201.1990 C.3   150  PHE150      0.0560
     14  CG         9.7050 -112.1930  202.1020 C.ar  150  PHE150     -0.0200
     15  CD1        8.9950 -113.3120  201.6890 C.ar  150  PHE150     -0.0042
     16  CD2        9.4150 -111.6520  203.3460 C.ar  150  PHE150     -0.0042
     17  CE1        8.0390 -113.8960  202.5230 C.ar  150  PHE150     -0.0003
     18  CE2        8.4630 -112.2270  204.1720 C.ar  150  PHE150     -0.0003
     19  CZ         7.7780 -113.3480  203.7620 C.ar  150  PHE150     -0.0000
     20  N         12.1640 -112.2160  194.7760 N.3   153  ARG153     -0.1245
     21  CA        11.2860 -111.4740  193.8940 C.3   153  ARG153      0.1563
     22  C         11.2110 -110.0400  194.3970 C.2   153  ARG153      0.2260
     23  O         10.8160 -109.1290  193.6580 O.2   153  ARG153     -0.2867
     24  CB         9.8910 -112.1070  193.8030 C.3   153  ARG153      0.0307
     25  CG         9.8310 -113.6180  193.4890 C.3   153  ARG153      0.0489
     26  CD        10.0140 -113.9270  191.9970 C.3   153  ARG153      0.2205
     27  NE         9.6130 -115.2960  191.6460 N.pl3 153  ARG153     -0.0865
     28  CZ         8.4630 -115.6100  191.0510 C.cat 153  ARG153      0.5346
     29  NH1        7.6010 -114.6560  190.7360 N.pl3 153  ARG153      0.1354
     30  NH2        8.1730 -116.8730  190.7640 N.pl3 153  ARG153      0.1354
     31  N          2.6460 -112.7450  195.1390 N.3   188  VAL188     -0.1231
     32  CA         3.5780 -113.8600  194.9400 C.3   188  VAL188      0.1692
     33  C          3.6320 -114.8710  196.1040 C.2   188  VAL188      0.2592
     34  O          3.8070 -116.0680  195.8880 O.2   188  VAL188     -0.2718
     35  CB         5.0000 -113.3340  194.6480 C.3   188  VAL188      0.0266
     36  CG1        5.9490 -114.4840  194.3450 C.3   188  VAL188      0.0020
     37  CG2        4.9720 -112.3610  193.4630 C.3   188  VAL188      0.0020
     38  N          3.5350 -114.4080  197.3410 N.am  189  TYR189     -0.1963
     39  CA         3.5350 -115.3630  198.4480 C.3   189  TYR189      0.1756
     40  C          2.2670 -115.2920  199.2970 C.2   189  TYR189      0.2461
     41  O          2.1810 -114.5120  200.2440 O.2   189  TYR189     -0.2730
     42  CB         4.7620 -115.1780  199.3230 C.3   189  TYR189      0.0574
     43  CG         6.0510 -115.3350  198.5610 C.ar  189  TYR189     -0.0198
     44  CD1        6.4090 -116.5500  198.0140 C.ar  189  TYR189     -0.0009
     45  CD2        6.9210 -114.2690  198.4090 C.ar  189  TYR189     -0.0009
     46  CE1        7.5970 -116.6950  197.3200 C.ar  189  TYR189      0.0417
     47  CE2        8.1070 -114.4030  197.7220 C.ar  189  TYR189      0.0417
     48  CZ         8.4470 -115.6160  197.1800 C.ar  189  TYR189      0.1957
     49  OH         9.6390 -115.7450  196.4940 O.3   189  TYR189     -0.2866
     50  N          1.2850 -116.1360  198.9580 N.am  190  PRO190     -0.2716
     51  CA        -0.0760 -116.1490  199.5040 C.3   190  PRO190      0.1536
     52  C         -0.1280 -116.2330  201.0120 C.2   190  PRO190      0.2599
     53  O         -1.0400 -115.7040  201.6240 O.2   190  PRO190     -0.2715
     54  CB        -0.6840 -117.4210  198.9100 C.3   190  PRO190      0.0310
     55  CG         0.4680 -118.2000  198.3250 C.3   190  PRO190      0.0237
     56  CD         1.5170 -117.2190  197.9880 C.3   190  PRO190      0.0939
     57  N          0.8320 -116.9170  201.6040 N.am  191  TYR191     -0.1960
     58  CA         0.8060 -117.0870  203.0400 C.3   191  TYR191      0.1771
     59  C          1.7630 -116.1400  203.7470 C.2   191  TYR191      0.2619
     60  O          1.9990 -116.2790  204.9350 O.2   191  TYR191     -0.2715
     61  CB         1.0870 -118.5440  203.4530 C.3   191  TYR191      0.0574
     62  CG        -0.0020 -119.5680  203.0960 C.ar  191  TYR191     -0.0198
     63  CD1       -1.1880 -119.6350  203.8350 C.ar  191  TYR191     -0.0009
     64  CD2        0.1880 -120.5200  202.0950 C.ar  191  TYR191     -0.0009
     65  CE1       -2.1820 -120.5780  203.5450 C.ar  191  TYR191      0.0417
     66  CE2       -0.8000 -121.4760  201.8010 C.ar  191  TYR191      0.0417
     67  CZ        -1.9820 -121.4980  202.5320 C.ar  191  TYR191      0.1957
     68  OH        -2.9670 -122.4280  202.2560 O.3   191  TYR191     -0.2866
     69  N          2.2960 -115.1640  203.0290 N.am  192  ALA192     -0.1977
     70  CA         3.1840 -114.2010  203.6570 C.3   192  ALA192      0.1597
     71  C          2.5240 -113.5740  204.8820 C.2   192  ALA192      0.2287
     72  O          3.2020 -113.1620  205.8050 O.2   192  ALA192     -0.2864
     73  CB         3.5780 -113.1340  202.6810 C.3   192  ALA192      0.0319
     74  N          1.2060 -114.7780  207.2690 N.3   194  VAL194     -0.1231
     75  CA         1.4860 -115.4780  208.5120 C.3   194  VAL194      0.1692
     76  C          2.8050 -115.0050  209.1220 C.2   194  VAL194      0.2592
     77  O          3.0680 -115.2400  210.2900 O.2   194  VAL194     -0.2718
     78  CB         1.4880 -116.9870  208.3000 C.3   194  VAL194      0.0266
     79  CG1        1.5390 -117.6880  209.6140 C.3   194  VAL194      0.0020
     80  CG2        0.2140 -117.3890  207.5990 C.3   194  VAL194      0.0020
     81  N          3.6350 -114.3380  208.3330 N.am  195  PHE195     -0.1976
     82  CA         4.8860 -113.7950  208.8450 C.3   195  PHE195      0.1639
     83  C          4.6010 -112.4320  209.4130 C.2   195  PHE195      0.2290
     84  O          5.0300 -112.1030  210.5040 O.2   195  PHE195     -0.2864
     85  CB         5.9380 -113.7000  207.7410 C.3   195  PHE195      0.0560
     86  CG         7.2490 -113.0400  208.1530 C.ar  195  PHE195     -0.0200
     87  CD1        7.3300 -111.6700  208.3730 C.ar  195  PHE195     -0.0042
     88  CD2        8.4220 -113.7700  208.2000 C.ar  195  PHE195     -0.0042
     89  CE1        8.5340 -111.0680  208.6990 C.ar  195  PHE195     -0.0003
     90  CE2        9.6370 -113.1650  208.5260 C.ar  195  PHE195     -0.0003
     91  CZ         9.6850 -111.8190  208.7790 C.ar  195  PHE195     -0.0000
@<TRIPOS>BOND
     1    29    28    1
     2    30    28    1
     3    28    27    2
     4    27    26    1
     5    26    25    1
     6    37    35    1
     7    25    24    1
     8    23    22    2
     9    24    21    1
    10    21    22    1
    11    21    20    1
    12    36    35    1
    13    35    32    1
    14    32    31    1
    15    32    33    1
    16    34    33    2
    17    33    38   am
    18    49    48    1
    19    48    46   ar
    20    48    47   ar
    21    46    44   ar
    22    38    39    1
    23    47    45   ar
    24    56    55    1
    25    56    50    1
    26    44    43   ar
    27    55    54    1
    28    45    43   ar
    29    39    40    1
    30    39    42    1
    31    43    42    1
    32    12    11    2
    33    54    51    1
    34    50    40   am
    35    50    51    1
    36    40    41    2
    37    11    10    1
    38    51    52    1
    39    10    13    1
    40    10     9    1
    41     4     3    2
    42    52    57   am
    43    52    53    2
    44    13    14    1
    45     9     3   am
    46     3     2    1
    47    57    58    1
    48    15    14   ar
    49    15    17   ar
    50    66    64   ar
    51    66    67   ar
    52    64    62   ar
    53    14    16   ar
    54    68    67    1
    55    17    19   ar
    56    67    65   ar
    57    73    70    1
    58     2     1    1
    59     2     5    1
    60    69    70    1
    61    69    59   am
    62    58    61    1
    63    58    59    1
    64    62    61    1
    65    62    63   ar
    66    16    18   ar
    67    65    63   ar
    68    70    71    1
    69     8     6    1
    70     5     6    1
    71    59    60    2
    72    19    18   ar
    73     6     7    1
    74    71    72    2
    75    74    75    1
    76    80    78    1
    77    85    86    1
    78    85    82    1
    79    86    88   ar
    80    86    87   ar
    81    88    90   ar
    82    78    75    1
    83    78    79    1
    84    81    82    1
    85    81    76   am
    86    87    89   ar
    87    75    76    1
    88    90    91   ar
    89    89    91   ar
    90    82    83    1
    91    76    77    2
    92    83    84    2
