@<TRIPOS>MOLECULE
tmp/6c1pC03.pdb
 84 78 0 0 0
SMALL
GASTEIGER

@<TRIPOS>ATOM
      1  N        -26.9960  -68.6910  218.9670 N.3    22  ILE22      -0.1231
      2  CA       -25.7730  -69.3360  218.5150 C.3    22  ILE22       0.1692
      3  C        -26.1390  -70.5380  217.6660 C.2    22  ILE22       0.2591
      4  O        -25.6270  -70.7030  216.5620 O.2    22  ILE22      -0.2718
      5  CB       -24.9080  -69.7930  219.6760 C.3    22  ILE22       0.0266
      6  CG1      -24.4770  -68.5930  220.5010 C.3    22  ILE22       0.0019
      7  CG2      -23.7170  -70.5560  219.1560 C.3    22  ILE22       0.0020
      8  CD1      -23.8260  -68.9580  221.7440 C.3    22  ILE22       0.0001
      9  N        -27.0030  -71.3910  218.2090 N.am   23  VAL23      -0.1980
     10  CA       -27.4400  -72.6030  217.5210 C.3    23  VAL23       0.1595
     11  C        -28.1500  -72.2600  216.2100 C.2    23  VAL23       0.2287
     12  O        -28.0770  -72.9990  215.2270 O.2    23  VAL23      -0.2864
     13  CB       -28.3630  -73.4330  218.4160 C.3    23  VAL23       0.0276
     14  CG1      -29.0140  -74.5520  217.6330 C.3    23  VAL23       0.0022
     15  CG2      -27.5580  -74.0190  219.5490 C.3    23  VAL23       0.0022
     16  N        -25.7050  -71.2730  213.8940 N.3    26  GLY26      -0.1210
     17  CA       -25.0490  -72.5400  213.6610 C.3    26  GLY26       0.1956
     18  C        -25.6820  -73.3050  212.5200 C.2    26  GLY26       0.2611
     19  O        -25.0060  -73.6860  211.5710 O.2    26  GLY26      -0.2717
     20  N        -26.9940  -73.4890  212.5880 N.am   27  ILE27      -0.1979
     21  CA       -27.7280  -74.1360  211.5070 C.3    27  ILE27       0.1595
     22  C        -27.8250  -73.3650  210.2020 C.2    27  ILE27       0.2287
     23  O        -27.5680  -73.9230  209.1420 O.2    27  ILE27      -0.2864
     24  CB       -29.1490  -74.4460  211.9290 C.3    27  ILE27       0.0276
     25  CG1      -29.1480  -75.5620  212.9560 C.3    27  ILE27       0.0022
     26  CG2      -29.9810  -74.8550  210.7310 C.3    27  ILE27       0.0022
     27  CD1      -30.5050  -75.8620  213.5040 C.3    27  ILE27       0.0001
     28  N        -25.1970  -73.7520  208.1290 N.3    30  GLY30      -0.1210
     29  CA       -25.1690  -75.1070  207.6050 C.3    30  GLY30       0.1956
     30  C        -26.0100  -75.4140  206.3760 C.2    30  GLY30       0.2611
     31  O        -25.7700  -76.4150  205.7130 O.2    30  GLY30      -0.2717
     32  N        -26.9980  -74.5800  206.0680 N.am   31  LEU31      -0.1979
     33  CA       -27.8380  -74.7960  204.8820 C.3    31  LEU31       0.1596
     34  C        -27.4240  -73.9960  203.6800 C.2    31  LEU31       0.2287
     35  O        -27.7900  -74.3070  202.5530 O.2    31  LEU31      -0.2864
     36  CB       -29.2890  -74.5130  205.1960 C.3    31  LEU31       0.0297
     37  CG       -29.7640  -75.6100  206.1280 C.3    31  LEU31       0.0022
     38  CD1      -31.1480  -75.3240  206.6240 C.3    31  LEU31       0.0001
     39  CD2      -29.7330  -76.8930  205.3320 C.3    31  LEU31       0.0001
     40  N        -24.9320  -74.3350  202.4750 N.3    33  THR33      -0.1203
     41  CA       -24.0880  -75.3200  201.8000 C.3    33  THR33       0.1994
     42  C        -24.7250  -75.8280  200.4900 C.2    33  THR33       0.2619
     43  O        -24.0410  -76.0430  199.4810 O.2    33  THR33      -0.2717
     44  CB       -23.8310  -76.5270  202.7290 C.3    33  THR33       0.1784
     45  OG1      -22.7680  -76.2220  203.6320 O.3    33  THR33      -0.2211
     46  CG2      -23.4990  -77.7940  201.9360 C.3    33  THR33       0.0376
     47  N        -26.0370  -76.0450  200.5290 N.am   34  SER34      -0.1937
     48  CA       -26.8000  -76.5110  199.3740 C.3    34  SER34       0.2055
     49  C        -27.0570  -75.4020  198.3540 C.2    34  SER34       0.2643
     50  O        -27.5440  -74.3330  198.7060 O.2    34  SER34      -0.2714
     51  CB       -28.1270  -77.1190  199.8340 C.3    34  SER34       0.2130
     52  OG       -28.8880  -77.5770  198.7340 O.3    34  SER34      -0.2179
     53  N        -26.7380  -75.6550  197.0920 N.am   35  LYS35      -0.1963
     54  CA       -27.0630  -74.6980  196.0480 C.3    35  LYS35       0.1728
     55  C        -28.5710  -74.7740  195.8190 C.2    35  LYS35       0.2616
     56  O        -29.1980  -73.7770  195.4710 O.2    35  LYS35      -0.2715
     57  CB       -26.2920  -74.9790  194.7490 C.3    35  LYS35       0.0311
     58  CG       -24.7700  -74.8650  194.8520 C.3    35  LYS35       0.0038
     59  CD       -24.1060  -74.9070  193.4760 C.3    35  LYS35       0.0206
     60  CE       -24.2390  -76.2800  192.8090 C.3    35  LYS35       0.1093
     61  NZ       -23.4620  -77.3660  193.4890 N.3    35  LYS35      -0.1314
     62  N        -29.1500  -75.9580  196.0200 N.am   36  THR36      -0.1951
     63  CA       -30.6020  -76.1400  195.9240 C.3    36  THR36       0.1897
     64  C        -31.3080  -75.1540  196.8220 C.2    36  THR36       0.2313
     65  O        -32.2600  -74.4910  196.4210 O.2    36  THR36      -0.2863
     66  CB       -31.0480  -77.5500  196.3350 C.3    36  THR36       0.1794
     67  OG1      -30.5040  -78.5090  195.4260 O.3    36  THR36      -0.2208
     68  CG2      -32.5660  -77.6580  196.3220 C.3    36  THR36       0.0378
     69  N        -20.0050  -69.8290  216.1190 N.3   106  LEU106     -0.1245
     70  CA       -20.7080  -71.0380  216.4530 C.3   106  LEU106      0.1561
     71  C        -19.8910  -71.7530  217.4850 C.2   106  LEU106      0.2260
     72  O        -20.2630  -72.8090  217.9680 O.2   106  LEU106     -0.2867
     73  CB       -20.9420  -71.8810  215.2220 C.3   106  LEU106      0.0270
     74  CG       -21.4610  -70.9800  214.0970 C.3   106  LEU106      0.0019
     75  CD1      -21.8880  -71.8090  212.9170 C.3   106  LEU106      0.0001
     76  CD2      -22.6040  -70.0780  214.5860 C.3   106  LEU106      0.0001
     77  N        -21.2040  -71.0240  221.0350 N.3   109  LEU109     -0.1245
     78  CA       -21.8950  -72.1160  221.6870 C.3   109  LEU109      0.1561
     79  C        -21.1010  -72.6580  222.8270 C.2   109  LEU109      0.2260
     80  O        -21.6310  -73.0670  223.8490 O.2   109  LEU109     -0.2867
     81  CB       -22.1130  -73.2500  220.7220 C.3   109  LEU109      0.0270
     82  CG       -22.9940  -74.2490  221.4270 C.3   109  LEU109      0.0019
     83  CD1      -24.3780  -73.6700  221.4610 C.3   109  LEU109      0.0001
     84  CD2      -22.9400  -75.5620  220.7220 C.3   109  LEU109      0.0001
@<TRIPOS>BOND
     1    60    59    1
     2    60    61    1
     3    59    58    1
     4    57    58    1
     5    57    54    1
     6    67    66    1
     7    56    55    2
     8    55    62   am
     9    55    54    1
    10    63    62    1
    11    63    66    1
    12    63    64    1
    13    54    53    1
    14    68    66    1
    15    65    64    2
    16    53    49   am
    17    49    50    2
    18    49    48    1
    19    52    51    1
    20    48    51    1
    21    48    47    1
    22    43    42    2
    23    42    47   am
    24    42    41    1
    25    41    40    1
    26    41    44    1
    27    46    44    1
    28    35    34    2
    29    44    45    1
    30    34    33    1
    31    33    36    1
    32    33    32    1
    33    36    37    1
    34    39    37    1
    35    31    30    2
    36    32    30   am
    37    37    38    1
    38    30    29    1
    39    29    28    1
    40    23    22    2
    41    22    21    1
    42    26    24    1
    43    21    24    1
    44    21    20    1
    45    19    18    2
    46    24    25    1
    47    18    20   am
    48    18    17    1
    49    75    74    1
    50    25    27    1
    51    17    16    1
    52    74    76    1
    53    74    73    1
    54    73    70    1
    55    12    11    2
    56    69    70    1
    57    11    10    1
    58    70    71    1
    59     4     3    2
    60    71    72    2
    61    10     9    1
    62    10    13    1
    63    14    13    1
    64     3     9   am
    65     3     2    1
    66    13    15    1
    67     2     1    1
    68     2     5    1
    69     7     5    1
    70     5     6    1
    71     6     8    1
    72    81    82    1
    73    81    78    1
    74    84    82    1
    75    77    78    1
    76    82    83    1
    77    78    79    1
    78    79    80    2
