@<TRIPOS>MOLECULE
tmp/6c1pB04.pdb
 87 89 0 0 0
SMALL
GASTEIGER

@<TRIPOS>ATOM
      1  N        -20.8840 -108.6090  201.1770 N.3   149  LEU149     -0.1231
      2  CA       -21.3050 -107.3080  200.6950 C.3   149  LEU149      0.1693
      3  C        -20.4550 -106.9150  199.5170 C.2   149  LEU149      0.2592
      4  O        -20.9490 -106.4760  198.4890 O.2   149  LEU149     -0.2718
      5  CB       -21.1740 -106.2630  201.7870 C.3   149  LEU149      0.0284
      6  CG       -22.3610 -106.1640  202.7330 C.3   149  LEU149      0.0019
      7  CD1      -22.1290 -105.0880  203.7650 C.3   149  LEU149      0.0001
      8  CD2      -23.5850 -105.8690  201.9270 C.3   149  LEU149      0.0001
      9  N        -19.1600 -107.1270  199.6740 N.am  150  PHE150     -0.1976
     10  CA       -18.1720 -106.4720  198.8550 C.3   150  PHE150      0.1639
     11  C        -17.3710 -107.4620  198.0290 C.2   150  PHE150      0.2290
     12  O        -16.4010 -107.1140  197.3620 O.2   150  PHE150     -0.2864
     13  CB       -17.2480 -105.7050  199.7730 C.3   150  PHE150      0.0560
     14  CG       -17.9630 -104.7840  200.7170 C.ar  150  PHE150     -0.0200
     15  CD1      -18.9950 -103.9870  200.2850 C.ar  150  PHE150     -0.0042
     16  CD2      -17.5990 -104.7180  202.0380 C.ar  150  PHE150     -0.0042
     17  CE1      -19.6360 -103.1310  201.1570 C.ar  150  PHE150     -0.0003
     18  CE2      -18.2450 -103.8720  202.8910 C.ar  150  PHE150     -0.0003
     19  CZ       -19.2610 -103.0790  202.4470 C.ar  150  PHE150     -0.0000
     20  N        -18.7530  -97.8000  194.4560 N.3   188  VAL188     -0.1231
     21  CA       -19.7390  -98.7840  193.9840 C.3   188  VAL188      0.1692
     22  C        -20.9480  -98.8930  194.9160 C.2   188  VAL188      0.2592
     23  O        -22.0990  -99.0250  194.4800 O.2   188  VAL188     -0.2718
     24  CB       -19.1110 -100.1830  193.8700 C.3   188  VAL188      0.0266
     25  CG1      -20.1200 -101.1790  193.3290 C.3   188  VAL188      0.0020
     26  CG2      -17.8790 -100.1480  193.0090 C.3   188  VAL188      0.0020
     27  N        -20.6590  -98.8160  196.2080 N.am  189  TYR189     -0.1963
     28  CA       -21.6590  -98.8730  197.2500 C.3   189  TYR189      0.1756
     29  C        -21.6110  -97.5360  197.9860 C.2   189  TYR189      0.2461
     30  O        -20.7580  -97.3400  198.8360 O.2   189  TYR189     -0.2730
     31  CB       -21.3890 -100.0500  198.1980 C.3   189  TYR189      0.0574
     32  CG       -21.3500 -101.4200  197.5320 C.ar  189  TYR189     -0.0198
     33  CD1      -22.5020 -101.9820  196.9830 C.ar  189  TYR189     -0.0009
     34  CD2      -20.1710 -102.1630  197.4680 C.ar  189  TYR189     -0.0009
     35  CE1      -22.4850 -103.2490  196.3740 C.ar  189  TYR189      0.0417
     36  CE2      -20.1430 -103.4300  196.8680 C.ar  189  TYR189      0.0417
     37  CZ       -21.3070 -103.9670  196.3180 C.ar  189  TYR189      0.1957
     38  OH       -21.3060 -105.2140  195.7140 O.3   189  TYR189     -0.2866
     39  N        -22.4710  -96.5810  197.6010 N.am  190  PRO190     -0.2716
     40  CA       -22.4500  -95.2110  198.1290 C.3   190  PRO190      0.1536
     41  C        -22.5060  -95.1080  199.6600 C.2   190  PRO190      0.2599
     42  O        -22.0320  -94.1070  200.1940 O.2   190  PRO190     -0.2715
     43  CB       -23.6930  -94.5680  197.5100 C.3   190  PRO190      0.0310
     44  CG       -24.4810  -95.6690  196.9210 C.3   190  PRO190      0.0237
     45  CD       -23.5310  -96.7670  196.6010 C.3   190  PRO190      0.0939
     46  N        -23.0950  -96.1020  200.3330 N.am  191  TYR191     -0.1960
     47  CA       -23.3020  -96.1020  201.7920 C.3   191  TYR191      0.1771
     48  C        -22.2820  -96.8840  202.5980 C.2   191  TYR191      0.2619
     49  O        -22.5160  -97.1420  203.7580 O.2   191  TYR191     -0.2715
     50  CB       -24.6790  -96.6850  202.1370 C.3   191  TYR191      0.0574
     51  CG       -25.8420  -95.8740  201.6190 C.ar  191  TYR191     -0.0198
     52  CD1      -26.2570  -94.7220  202.2720 C.ar  191  TYR191     -0.0009
     53  CD2      -26.5210  -96.2560  200.4700 C.ar  191  TYR191     -0.0009
     54  CE1      -27.3230  -93.9680  201.7960 C.ar  191  TYR191      0.0417
     55  CE2      -27.5870  -95.5100  199.9820 C.ar  191  TYR191      0.0417
     56  CZ       -27.9850  -94.3670  200.6510 C.ar  191  TYR191      0.1957
     57  OH       -29.0420  -93.6230  200.1730 O.3   191  TYR191     -0.2866
     58  N        -21.1770  -97.2940  201.9980 N.am  192  ALA192     -0.1977
     59  CA       -20.2000  -98.1140  202.7060 C.3   192  ALA192      0.1597
     60  C        -19.6620  -97.5380  204.0150 C.2   192  ALA192      0.2287
     61  O        -19.2760  -98.2750  204.9110 O.2   192  ALA192     -0.2864
     62  CB       -19.0560  -98.4140  201.7950 C.3   192  ALA192      0.0319
     63  N        -21.0030  -96.3550  206.3760 N.3   194  VAL194     -0.1231
     64  CA       -21.8610  -96.6770  207.5130 C.3   194  VAL194      0.1692
     65  C        -21.3820  -97.9700  208.1170 C.2   194  VAL194      0.2592
     66  O        -21.6790  -98.2950  209.2510 O.2   194  VAL194     -0.2718
     67  CB       -23.3320  -96.8080  207.0930 C.3   194  VAL194      0.0266
     68  CG1      -24.2160  -97.0170  208.2770 C.3   194  VAL194      0.0020
     69  CG2      -23.7520  -95.5800  206.3550 C.3   194  VAL194      0.0020
     70  N        -20.6060  -98.6990  207.3440 N.am  195  PHE195     -0.1976
     71  CA       -20.0290  -99.9290  207.8120 C.3   195  PHE195      0.1639
     72  C        -18.7020  -99.5790  208.4630 C.2   195  PHE195      0.2290
     73  O        -18.4220 -100.0220  209.5710 O.2   195  PHE195     -0.2864
     74  CB       -19.8850 -100.8850  206.6360 C.3   195  PHE195      0.0560
     75  CG       -19.2600 -102.2160  206.9540 C.ar  195  PHE195     -0.0200
     76  CD1      -17.9040 -102.3330  207.2110 C.ar  195  PHE195     -0.0042
     77  CD2      -20.0110 -103.3740  206.8570 C.ar  195  PHE195     -0.0042
     78  CE1      -17.3350 -103.5800  207.4410 C.ar  195  PHE195     -0.0003
     79  CE2      -19.4470 -104.6190  207.0840 C.ar  195  PHE195     -0.0003
     80  CZ       -18.1110 -104.7220  207.3750 C.ar  195  PHE195     -0.0000
     81  N        -18.0770  -96.6630  211.5980 N.3   198  PRO198     -0.2116
     82  CA       -18.4140  -97.4360  212.7910 C.3   198  PRO198      0.1372
     83  C        -17.4160  -98.5280  213.1050 C.2   198  PRO198      0.2244
     84  O        -17.0000  -98.6160  214.2660 O.2   198  PRO198     -0.2868
     85  CB       -19.7720  -98.0350  212.4360 C.3   198  PRO198      0.0268
     86  CG       -20.3710  -97.0380  211.6280 C.3   198  PRO198      0.0207
     87  CD       -19.2690  -96.5540  210.7430 C.3   198  PRO198      0.0892
@<TRIPOS>BOND
     1    26    24    1
     2    25    24    1
     3    24    21    1
     4    21    20    1
     5    21    22    1
     6    23    22    2
     7    22    27   am
     8    38    37    1
     9    27    28    1
    10    37    35   ar
    11    37    36   ar
    12    35    33   ar
    13    45    44    1
    14    45    39    1
    15    36    34   ar
    16    44    43    1
    17    33    32   ar
    18    28    29    1
    19    28    31    1
    20    12    11    2
    21    34    32   ar
    22    43    40    1
    23    32    31    1
    24    39    29   am
    25    39    40    1
    26    29    30    2
    27    11    10    1
    28    40    41    1
    29     4     3    2
    30    10     9    1
    31    10    13    1
    32     3     9   am
    33     3     2    1
    34    41    42    2
    35    41    46   am
    36    13    14    1
    37    55    53   ar
    38    55    56   ar
    39    57    56    1
    40    15    14   ar
    41    15    17   ar
    42    46    47    1
    43    53    51   ar
    44    56    54   ar
    45     2     1    1
    46     2     5    1
    47    14    16   ar
    48    17    19   ar
    49    51    50    1
    50    51    52   ar
    51     5     6    1
    52    47    50    1
    53    47    48    1
    54    62    59    1
    55    54    52   ar
    56     8     6    1
    57    58    48   am
    58    58    59    1
    59    16    18   ar
    60    19    18   ar
    61    48    49    2
    62    59    60    1
    63     6     7    1
    64    60    61    2
    65    69    67    1
    66    63    64    1
    67    74    75    1
    68    74    71    1
    69    77    75   ar
    70    77    79   ar
    71    75    76   ar
    72    79    80   ar
    73    67    64    1
    74    67    68    1
    75    76    78   ar
    76    70    71    1
    77    70    65   am
    78    80    78   ar
    79    64    65    1
    80    71    72    1
    81    65    66    2
    82    72    73    2
    83    87    81    1
    84    87    86    1
    85    81    82    1
    86    86    85    1
    87    85    82    1
    88    82    83    1
    89    83    84    2
