@<TRIPOS>MOLECULE
tmp/6c1pD04.pdb
 133 132 0 0 0
SMALL
GASTEIGER

@<TRIPOS>ATOM
      1  N        -16.0200  -77.2010  211.7370 N.3   143  PHE143     -0.1241
      2  CA       -14.9380  -77.3460  210.7720 C.3   143  PHE143      0.1605
      3  C        -15.2910  -78.0410  209.4820 C.2   143  PHE143      0.2264
      4  O        -14.8640  -77.6250  208.4120 O.2   143  PHE143     -0.2867
      5  CB       -13.7840  -78.0590  211.4320 C.3   143  PHE143      0.0534
      6  CG       -12.8860  -77.1210  212.1130 C.ar  143  PHE143     -0.0203
      7  CD1      -13.3800  -76.3260  213.1190 C.ar  143  PHE143     -0.0042
      8  CD2      -11.5880  -76.9540  211.7150 C.ar  143  PHE143     -0.0042
      9  CE1      -12.5820  -75.4170  213.7470 C.ar  143  PHE143     -0.0003
     10  CE2      -10.7820  -76.0430  212.3430 C.ar  143  PHE143     -0.0003
     11  CZ       -11.2790  -75.2770  213.3600 C.ar  143  PHE143     -0.0000
     12  N        -16.7280  -75.4490  207.3270 N.3   146  MET146     -0.1245
     13  CA       -15.7910  -74.4900  206.7590 C.3   146  MET146      0.1570
     14  C        -15.1350  -75.0400  205.4980 C.2   146  MET146      0.2261
     15  O        -15.0600  -74.3690  204.4710 O.2   146  MET146     -0.2867
     16  CB       -14.7230  -74.1420  207.7950 C.3   146  MET146      0.0387
     17  CG       -15.2700  -73.3580  208.9780 C.3   146  MET146      0.0595
     18  SD       -14.0700  -72.9510  210.2580 S.3   146  MET146     -0.1393
     19  CE       -13.5710  -71.3170  209.7270 C.3   146  MET146      0.0692
     20  N        -14.8330  -74.3520  200.7220 N.3   150  LEU150     -0.1231
     21  CA       -13.5230  -73.8810  200.3170 C.3   150  LEU150      0.1693
     22  C        -12.9690  -74.6750  199.1290 C.2   150  LEU150      0.2592
     23  O        -12.6240  -74.1250  198.0720 O.2   150  LEU150     -0.2718
     24  CB       -12.5840  -73.9990  201.5120 C.3   150  LEU150      0.0284
     25  CG       -12.7400  -72.8220  202.4630 C.3   150  LEU150      0.0019
     26  CD1      -11.7970  -72.9330  203.6340 C.3   150  LEU150      0.0001
     27  CD2      -12.4790  -71.5710  201.6970 C.3   150  LEU150      0.0001
     28  N        -12.9980  -75.9910  199.2930 N.am  151  PHE151     -0.1976
     29  CA       -12.2040  -76.8920  198.4910 C.3   151  PHE151      0.1639
     30  C        -13.1040  -77.8180  197.7230 C.2   151  PHE151      0.2290
     31  O        -12.6590  -78.7450  197.0640 O.2   151  PHE151     -0.2864
     32  CB       -11.2650  -77.6550  199.4010 C.3   151  PHE151      0.0560
     33  CG       -10.4190  -76.7600  200.2520 C.ar  151  PHE151     -0.0200
     34  CD1       -9.7970  -75.6650  199.7040 C.ar  151  PHE151     -0.0042
     35  CD2      -10.2860  -76.9780  201.6090 C.ar  151  PHE151     -0.0042
     36  CE1       -9.0180  -74.8230  200.4850 C.ar  151  PHE151     -0.0003
     37  CE2       -9.5110  -76.1390  202.3940 C.ar  151  PHE151     -0.0003
     38  CZ        -8.8800  -75.0620  201.8320 C.ar  151  PHE151     -0.0000
     39  N        -14.6880  -76.5470  195.6720 N.3   153  GLU153     -0.1231
     40  CA       -14.5380  -75.8580  194.4050 C.3   153  GLU153      0.1699
     41  C        -13.5510  -76.5580  193.4680 C.2   153  GLU153      0.2592
     42  O        -13.9220  -76.9710  192.3710 O.2   153  GLU153     -0.2718
     43  CB       -14.1210  -74.4130  194.6560 C.3   153  GLU153      0.0402
     44  CG       -14.6440  -73.4710  193.5890 C.3   153  GLU153      0.1161
     45  CD       -16.1710  -73.4050  193.6000 C.2   153  GLU153      0.3649
     46  OE1      -16.7740  -73.2020  192.5240 O.co2 153  GLU153     -0.2457
     47  OE2      -16.7690  -73.5440  194.6910 O.co2 153  GLU153     -0.2457
     48  N        -12.3010  -76.6960  193.9030 N.am  154  ARG154     -0.1980
     49  CA       -11.2770  -77.3010  193.0590 C.3   154  ARG154      0.1597
     50  C        -11.1200  -78.7910  193.3690 C.2   154  ARG154      0.2287
     51  O        -10.5970  -79.5700  192.5600 O.2   154  ARG154     -0.2864
     52  CB        -9.9350  -76.5980  193.2310 C.3   154  ARG154      0.0334
     53  CG        -9.9650  -75.0830  193.1700 C.3   154  ARG154      0.0492
     54  CD       -10.0680  -74.5410  191.7600 C.3   154  ARG154      0.2205
     55  NE        -9.6830  -73.1300  191.7150 N.pl3 154  ARG154     -0.0865
     56  CZ        -8.5300  -72.6850  191.2200 C.cat 154  ARG154      0.5346
     57  NH1       -7.6870  -73.5300  190.6470 N.pl3 154  ARG154      0.1354
     58  NH2       -8.2460  -71.3870  191.2310 N.pl3 154  ARG154      0.1354
     59  N         -3.0710  -75.9410  194.2220 N.3   189  VAL189     -0.1231
     60  CA        -4.1270  -75.0200  193.8070 C.3   189  VAL189      0.1692
     61  C         -4.3990  -73.9360  194.8520 C.2   189  VAL189      0.2592
     62  O         -4.5700  -72.7590  194.5220 O.2   189  VAL189     -0.2718
     63  CB        -5.4470  -75.7840  193.5310 C.3   189  VAL189      0.0266
     64  CG1       -6.5410  -74.8350  193.1640 C.3   189  VAL189      0.0020
     65  CG2       -5.2570  -76.8690  192.4650 C.3   189  VAL189      0.0020
     66  N         -4.4010  -74.3400  196.1150 N.am  190  TYR190     -0.1963
     67  CA        -4.5650  -73.4200  197.2320 C.3   190  TYR190      0.1756
     68  C         -3.2960  -73.4680  198.0370 C.2   190  TYR190      0.2461
     69  O         -3.1680  -74.2870  198.9410 O.2   190  TYR190     -0.2730
     70  CB        -5.7630  -73.7800  198.1130 C.3   190  TYR190      0.0574
     71  CG        -7.1190  -73.6750  197.4490 C.ar  190  TYR190     -0.0198
     72  CD1       -7.6480  -72.4360  197.1160 C.ar  190  TYR190     -0.0009
     73  CD2       -7.8710  -74.7990  197.1560 C.ar  190  TYR190     -0.0009
     74  CE1       -8.8880  -72.3160  196.5200 C.ar  190  TYR190      0.0417
     75  CE2       -9.1120  -74.6870  196.5540 C.ar  190  TYR190      0.0417
     76  CZ        -9.6140  -73.4440  196.2400 C.ar  190  TYR190      0.1957
     77  OH       -10.8470  -73.3280  195.6400 O.3   190  TYR190     -0.2866
     78  N         -2.3470  -72.5860  197.6980 N.am  191  PRO191     -0.2716
     79  CA        -0.9940  -72.6110  198.2600 C.3   191  PRO191      0.1536
     80  C         -0.9850  -72.5510  199.7710 C.2   191  PRO191      0.2599
     81  O         -0.1240  -73.1580  200.3980 O.2   191  PRO191     -0.2715
     82  CB        -0.3340  -71.3510  197.6780 C.3   191  PRO191      0.0310
     83  CG        -1.4410  -70.5460  197.0750 C.3   191  PRO191      0.0237
     84  CD        -2.5250  -71.5020  196.7190 C.3   191  PRO191      0.0939
     85  N         -1.9570  -71.8500  200.3410 N.am  192  TYR192     -0.1960
     86  CA        -1.9880  -71.6140  201.7790 C.3   192  TYR192      0.1771
     87  C         -2.9700  -72.5490  202.4820 C.2   192  TYR192      0.2619
     88  O         -3.2710  -72.3740  203.6620 O.2   192  TYR192     -0.2715
     89  CB        -2.3500  -70.1490  202.0510 C.3   192  TYR192      0.0574
     90  CG        -1.3460  -69.1720  201.4610 C.ar  192  TYR192     -0.0198
     91  CD1       -0.1290  -68.9110  202.0900 C.ar  192  TYR192     -0.0009
     92  CD2       -1.6050  -68.5390  200.2460 C.ar  192  TYR192     -0.0009
     93  CE1        0.7950  -68.0250  201.5300 C.ar  192  TYR192      0.0417
     94  CE2       -0.6920  -67.6580  199.6800 C.ar  192  TYR192      0.0417
     95  CZ         0.5050  -67.4040  200.3250 C.ar  192  TYR192      0.1957
     96  OH         1.4080  -66.5290  199.7580 O.3   192  TYR192     -0.2866
     97  N         -3.4780  -73.5350  201.7450 N.am  193  ALA193     -0.1977
     98  CA        -4.4360  -74.5040  202.2850 C.3   193  ALA193      0.1597
     99  C         -3.9010  -75.2010  203.5310 C.2   193  ALA193      0.2287
    100  O         -4.6540  -75.6090  204.3890 O.2   193  ALA193     -0.2864
    101  CB        -4.7950  -75.5360  201.2250 C.3   193  ALA193      0.0319
    102  N         -2.6890  -74.2750  206.1320 N.3   195  VAL195     -0.1231
    103  CA        -2.9650  -73.6180  207.4000 C.3   195  VAL195      0.1692
    104  C         -4.2200  -74.1380  208.1440 C.2   195  VAL195      0.2592
    105  O         -4.3710  -73.9400  209.3460 O.2   195  VAL195     -0.2718
    106  CB        -3.0910  -72.1100  207.1480 C.3   195  VAL195      0.0266
    107  CG1       -3.1970  -71.3430  208.4530 C.3   195  VAL195      0.0020
    108  CG2       -1.8750  -71.6320  206.3660 C.3   195  VAL195      0.0020
    109  N         -5.0890  -74.8430  207.4340 N.am  196  PHE196     -0.1976
    110  CA        -6.3530  -75.3540  207.9800 C.3   196  PHE196      0.1639
    111  C         -6.1930  -76.7030  208.6680 C.2   196  PHE196      0.2290
    112  O         -6.7460  -76.9440  209.7360 O.2   196  PHE196     -0.2864
    113  CB        -7.3660  -75.4370  206.8210 C.3   196  PHE196      0.0560
    114  CG        -8.7260  -76.0370  207.1590 C.ar  196  PHE196     -0.0200
    115  CD1       -8.8860  -77.4020  207.3670 C.ar  196  PHE196     -0.0042
    116  CD2       -9.8680  -75.2450  207.1380 C.ar  196  PHE196     -0.0042
    117  CE1      -10.1430  -77.9440  207.6240 C.ar  196  PHE196     -0.0003
    118  CE2      -11.1370  -75.7870  207.3870 C.ar  196  PHE196     -0.0003
    119  CZ       -11.2710  -77.1300  207.6230 C.ar  196  PHE196     -0.0000
    120  N         -4.0040  -77.4750  212.2500 N.3   199  PRO199     -0.2116
    121  CA        -4.7990  -77.2190  213.4550 C.3   199  PRO199      0.1372
    122  C         -5.8670  -78.2450  213.7390 C.2   199  PRO199      0.2244
    123  O         -5.9380  -78.7090  214.8730 O.2   199  PRO199     -0.2868
    124  CB        -5.4500  -75.8800  213.1490 C.3   199  PRO199      0.0268
    125  CG        -4.4640  -75.2010  212.2910 C.3   199  PRO199      0.0207
    126  CD        -3.9820  -76.2800  211.3840 C.3   199  PRO199      0.0892
    127  N         -5.6300  -80.1060  217.2380 N.3   203  VAL203     -0.1245
    128  CA        -6.8120  -80.1090  218.0620 C.3   203  VAL203      0.1561
    129  C         -7.5190  -81.4420  218.1060 C.2   203  VAL203      0.2260
    130  O         -7.6150  -82.0440  219.1600 O.2   203  VAL203     -0.2867
    131  CB        -7.8010  -79.0790  217.5720 C.3   203  VAL203      0.0252
    132  CG1       -9.0860  -79.2150  218.3360 C.3   203  VAL203      0.0019
    133  CG2       -7.2320  -77.7100  217.7560 C.3   203  VAL203      0.0019
@<TRIPOS>BOND
     1    57    56    1
     2    56    58    1
     3    56    55    2
     4    55    54    1
     5    54    53    1
     6    42    41    2
     7    65    63    1
     8    46    45   ar
     9    51    50    2
    10    49    52    1
    11    49    50    1
    12    49    48    1
    13    64    63    1
    14    53    52    1
    15    41    48   am
    16    41    40    1
    17    63    60    1
    18    44    45    1
    19    44    43    1
    20    45    47   ar
    21    60    59    1
    22    60    61    1
    23    40    43    1
    24    40    39    1
    25    62    61    2
    26    61    66   am
    27    77    76    1
    28    66    67    1
    29    76    74   ar
    30    76    75   ar
    31    74    72   ar
    32    75    73   ar
    33    84    83    1
    34    84    78    1
    35    31    30    2
    36    83    82    1
    37    72    71   ar
    38    73    71   ar
    39    67    68    1
    40    67    70    1
    41    71    70    1
    42    82    79    1
    43    78    68   am
    44    78    79    1
    45    30    29    1
    46    68    69    2
    47    23    22    2
    48    79    80    1
    49    29    28    1
    50    29    32    1
    51    22    28   am
    52    22    21    1
    53    32    33    1
    54    94    92   ar
    55    94    95   ar
    56    34    33   ar
    57    34    36   ar
    58    96    95    1
    59    80    85   am
    60    80    81    2
    61    92    90   ar
    62    33    35   ar
    63    21    20    1
    64    21    24    1
    65    95    93   ar
    66    85    86    1
    67    36    38   ar
    68   101    98    1
    69    90    89    1
    70    90    91   ar
    71    24    25    1
    72    93    91   ar
    73    35    37   ar
    74    27    25    1
    75    97    98    1
    76    97    87   am
    77    86    89    1
    78    86    87    1
    79    38    37   ar
    80    98    99    1
    81    25    26    1
    82    87    88    2
    83    99   100    2
    84    15    14    2
    85    14    13    1
    86   102   103    1
    87   108   106    1
    88    13    12    1
    89    13    16    1
    90   113   114    1
    91   113   110    1
    92   116   114   ar
    93   116   118   ar
    94   106   103    1
    95   106   107    1
    96   114   115   ar
    97   115   117   ar
    98   118   119   ar
    99   103   104    1
   100   109   110    1
   101   109   104   am
   102   119   117   ar
   103    16    17    1
   104   110   111    1
   105   104   105    2
   106     4     3    2
   107   111   112    2
   108    17    18    1
   109     3     2    1
   110    19    18    1
   111     2     5    1
   112     2     1    1
   113   126   120    1
   114   126   125    1
   115     5     6    1
   116     8     6   ar
   117     8    10   ar
   118     6     7   ar
   119   120   121    1
   120   125   124    1
   121    10    11   ar
   122     7     9   ar
   123   124   121    1
   124    11     9   ar
   125   121   122    1
   126   122   123    2
   127   127   128    1
   128   131   133    1
   129   131   128    1
   130   131   132    1
   131   128   129    1
   132   129   130    2
