@<TRIPOS>MOLECULE
tmp/6c1qA01.pdb
 122 115 0 0 0
SMALL
GASTEIGER

@<TRIPOS>ATOM
      1  N         -4.3570   27.3370   37.7770 N.3   180  TYR180     -0.1241
      2  CA        -5.6050   26.7790   38.3020 C.3   180  TYR180      0.1605
      3  C         -5.4330   26.1080   39.6710 C.2   180  TYR180      0.2264
      4  O         -6.2470   26.2940   40.5860 O.2   180  TYR180     -0.2867
      5  CB        -6.1940   25.7910   37.2910 C.3   180  TYR180      0.0534
      6  CG        -6.7940   26.4820   36.0870 C.ar  180  TYR180     -0.0201
      7  CD1       -7.7990   27.4220   36.2480 C.ar  180  TYR180     -0.0009
      8  CD2       -6.3620   26.1960   34.7950 C.ar  180  TYR180     -0.0009
      9  CE1       -8.3600   28.0650   35.1620 C.ar  180  TYR180      0.0417
     10  CE2       -6.9210   26.8370   33.6950 C.ar  180  TYR180      0.0417
     11  CZ        -7.9170   27.7700   33.8870 C.ar  180  TYR180      0.1957
     12  OH        -8.4700   28.4060   32.7990 O.3   180  TYR180     -0.2866
     13  N         -4.9650   28.8630   42.2870 N.3   183  ILE183     -0.1231
     14  CA        -6.1650   29.6220   42.6120 C.3   183  ILE183      0.1692
     15  C         -7.1890   28.7710   43.3830 C.2   183  ILE183      0.2591
     16  O         -7.8930   29.2800   44.2560 O.2   183  ILE183     -0.2718
     17  CB        -6.8040   30.2290   41.3340 C.3   183  ILE183      0.0266
     18  CG1       -7.7220   31.3870   41.7120 C.3   183  ILE183      0.0019
     19  CG2       -7.5570   29.1810   40.5250 C.3   183  ILE183      0.0020
     20  CD1       -7.0310   32.4920   42.5100 C.3   183  ILE183      0.0001
     21  N         -7.2370   27.4730   43.0940 N.am  184  LEU184     -0.1980
     22  CA        -8.1500   26.5730   43.7960 C.3   184  LEU184      0.1596
     23  C         -7.6820   26.3070   45.2250 C.2   184  LEU184      0.2287
     24  O         -8.4740   26.3680   46.1760 O.2   184  LEU184     -0.2864
     25  CB        -8.2870   25.2580   43.0320 C.3   184  LEU184      0.0297
     26  CG        -9.1400   25.3450   41.7680 C.3   184  LEU184      0.0022
     27  CD1       -9.0030   24.0820   40.9320 C.3   184  LEU184      0.0001
     28  CD2      -10.5880   25.5900   42.1450 C.3   184  LEU184      0.0001
     29  N         -8.1140   29.3650   47.1870 N.3   187  ALA187     -0.1231
     30  CA        -9.5370   29.5260   47.4700 C.3   187  ALA187      0.1694
     31  C         -9.9410   28.6970   48.6910 C.2   187  ALA187      0.2592
     32  O        -10.6330   29.1930   49.5890 O.2   187  ALA187     -0.2718
     33  CB       -10.3710   29.1390   46.2540 C.3   187  ALA187      0.0304
     34  N         -9.4990   27.4400   48.7250 N.am  188  THR188     -0.1953
     35  CA        -9.7690   26.5600   49.8660 C.3   188  THR188      0.1897
     36  C         -9.1960   27.1320   51.1660 C.2   188  THR188      0.2313
     37  O         -9.8640   27.1480   52.2080 O.2   188  THR188     -0.2863
     38  CB        -9.1890   25.1420   49.6470 C.3   188  THR188      0.1794
     39  OG1       -9.5990   24.6430   48.3690 O.3   188  THR188     -0.2208
     40  CG2       -9.6710   24.1890   50.7320 C.3   188  THR188      0.0378
     41  N        -11.2840   29.9640   52.3540 N.3   191  ALA191     -0.1245
     42  CA       -12.4610   29.4240   53.0250 C.3   191  ALA191      0.1562
     43  C        -12.1130   29.0460   54.4660 C.2   191  ALA191      0.2260
     44  O        -12.8650   29.3440   55.4080 O.2   191  ALA191     -0.2867
     45  CB       -13.0060   28.2180   52.2610 C.3   191  ALA191      0.0290
     46  N         -9.5900   18.1780   50.2240 N.3   214  ALA214     -0.1245
     47  CA        -9.7390   19.4650   49.5590 C.3   214  ALA214      0.1562
     48  C         -8.5960   19.7010   48.5740 C.2   214  ALA214      0.2260
     49  O         -8.8150   20.1750   47.4550 O.2   214  ALA214     -0.2867
     50  CB        -9.7990   20.5820   50.5840 C.3   214  ALA214      0.0290
     51  N         -9.0830   17.3290   45.4920 N.3   217  VAL217     -0.1231
     52  CA       -10.1170   17.8630   44.6140 C.3   217  VAL217      0.1692
     53  C         -9.6110   19.0910   43.8590 C.2   217  VAL217      0.2591
     54  O         -9.9090   19.2690   42.6760 O.2   217  VAL217     -0.2718
     55  CB       -11.3910   18.2280   45.4070 C.3   217  VAL217      0.0266
     56  CG1      -12.4050   18.9320   44.5140 C.3   217  VAL217      0.0020
     57  CG2      -12.0010   16.9790   46.0270 C.3   217  VAL217      0.0020
     58  N         -8.8390   19.9320   44.5420 N.am  218  ALA218     -0.1980
     59  CA        -8.2580   21.1100   43.9070 C.3   218  ALA218      0.1597
     60  C         -7.3330   20.7110   42.7570 C.2   218  ALA218      0.2287
     61  O         -7.3870   21.2910   41.6690 O.2   218  ALA218     -0.2864
     62  CB        -7.5060   21.9460   44.9280 C.3   218  ALA218      0.0319
     63  N         -9.3800   19.0900   39.8250 N.3   221  LEU221     -0.1245
     64  CA       -10.1010   20.1370   39.1130 C.3   221  LEU221      0.1561
     65  C         -9.1510   20.9870   38.2740 C.2   221  LEU221      0.2260
     66  O         -9.5000   21.4160   37.1740 O.2   221  LEU221     -0.2867
     67  CB       -10.8700   21.0210   40.0950 C.3   221  LEU221      0.0270
     68  CG       -12.0180   21.8380   39.5020 C.3   221  LEU221      0.0019
     69  CD1      -13.0720   20.9090   38.9190 C.3   221  LEU221      0.0001
     70  CD2      -12.6250   22.7590   40.5500 C.3   221  LEU221      0.0001
     71  N         -9.2100   21.4240   34.2900 N.3   225  LEU225     -0.1245
     72  CA        -9.2850   22.7620   33.7180 C.3   225  LEU225      0.1561
     73  C         -8.1410   23.0020   32.7400 C.2   225  LEU225      0.2260
     74  O         -8.2310   23.8660   31.8680 O.2   225  LEU225     -0.2867
     75  CB        -9.2630   23.8240   34.8220 C.3   225  LEU225      0.0270
     76  CG       -10.5460   24.0170   35.6330 C.3   225  LEU225      0.0019
     77  CD1      -10.3010   24.9500   36.8090 C.3   225  LEU225      0.0001
     78  CD2      -11.6610   24.5470   34.7480 C.3   225  LEU225      0.0001
     79  N        -12.8000   32.3240   34.8560 N.3   267  LEU267     -0.1245
     80  CA       -12.5490   31.2940   35.8570 C.3   267  LEU267      0.1561
     81  C        -11.1700   31.4310   36.4940 C.2   267  LEU267      0.2260
     82  O        -10.9660   31.0350   37.6400 O.2   267  LEU267     -0.2867
     83  CB       -12.6940   29.9030   35.2370 C.3   267  LEU267      0.0270
     84  CG       -14.0450   29.5800   34.5960 C.3   267  LEU267      0.0019
     85  CD1      -14.0850   28.1300   34.1380 C.3   267  LEU267      0.0001
     86  CD2      -15.1900   29.8810   35.5520 C.3   267  LEU267      0.0001
     87  N        -13.5700   35.9920   38.5560 N.3   271  TRP271     -0.1228
     88  CA       -14.3460   35.3420   39.6110 C.3   271  TRP271      0.1722
     89  C        -13.5280   35.1580   40.9050 C.2   271  TRP271      0.2437
     90  O        -14.0180   35.4850   41.9970 O.2   271  TRP271     -0.2733
     91  CB       -14.8920   34.0000   39.1040 C.3   271  TRP271      0.0563
     92  CG       -15.6430   33.2000   40.1190 C.ar  271  TRP271      0.0003
     93  CD1      -15.2630   32.0090   40.6670 C.ar  271  TRP271      0.0946
     94  CD2      -16.9100   33.5250   40.7020 C.ar  271  TRP271      0.0152
     95  NE1      -16.2150   31.5740   41.5570 N.ar  271  TRP271     -0.2442
     96  CE2      -17.2350   32.4860   41.5970 C.ar  271  TRP271      0.0810
     97  CE3      -17.7990   34.5930   40.5560 C.ar  271  TRP271      0.0012
     98  CZ2      -18.4120   32.4850   42.3430 C.ar  271  TRP271      0.0191
     99  CZ3      -18.9670   34.5900   41.2980 C.ar  271  TRP271      0.0001
    100  CH2      -19.2630   33.5440   42.1790 C.ar  271  TRP271      0.0015
    101  N        -12.2790   34.6540   40.7950 N.am  272  PRO272     -0.2729
    102  CA       -11.4560   34.5790   42.0060 C.3   272  PRO272      0.1401
    103  C        -11.1800   35.9370   42.6280 C.2   272  PRO272      0.2269
    104  O        -11.1780   36.0570   43.8480 O.2   272  PRO272     -0.2865
    105  CB       -10.1540   33.9570   41.5010 C.3   272  PRO272      0.0296
    106  CG       -10.5620   33.1580   40.3300 C.3   272  PRO272      0.0237
    107  CD       -11.6060   33.9900   39.6610 C.3   272  PRO272      0.0939
    108  N        -14.4980   37.0000   44.4980 N.3   275  THR275     -0.1203
    109  CA       -14.7780   36.1990   45.6870 C.3   275  THR275      0.1994
    110  C        -13.7310   36.3580   46.7910 C.2   275  THR275      0.2617
    111  O        -14.0800   36.5190   47.9610 O.2   275  THR275     -0.2717
    112  CB       -14.8880   34.7130   45.3320 C.3   275  THR275      0.1784
    113  OG1      -13.6830   34.2910   44.6870 O.3   275  THR275     -0.2211
    114  CG2      -16.0690   34.4740   44.4030 C.3   275  THR275      0.0376
    115  N        -12.4550   36.3070   46.4220 N.am  276  LEU276     -0.1979
    116  CA       -11.3790   36.4340   47.4020 C.3   276  LEU276      0.1596
    117  C        -11.3220   37.8430   47.9840 C.2   276  LEU276      0.2287
    118  O        -11.0240   38.0200   49.1690 O.2   276  LEU276     -0.2864
    119  CB       -10.0290   36.0640   46.7820 C.3   276  LEU276      0.0297
    120  CG        -9.8460   34.5980   46.3800 C.3   276  LEU276      0.0022
    121  CD1       -8.4420   34.3500   45.8430 C.3   276  LEU276      0.0001
    122  CD2      -10.1470   33.6730   47.5470 C.3   276  LEU276      0.0001
@<TRIPOS>BOND
     1    74    73    2
     2    73    72    1
     3    12    11    1
     4    10    11   ar
     5    10     8   ar
     6    72    71    1
     7    72    75    1
     8    11     9   ar
     9    85    84    1
    10    84    83    1
    11    84    86    1
    12    78    76    1
    13     8     6   ar
    14    75    76    1
    15    79    80    1
    16     9     7   ar
    17    83    80    1
    18    76    77    1
    19    80    81    1
    20     6     7   ar
    21     6     5    1
    22    81    82    2
    23    66    65    2
    24     5     2    1
    25     1     2    1
    26    65    64    1
    27     2     3    1
    28    87    88    1
    29    69    68    1
    30    91    88    1
    31    91    92    1
    32    64    63    1
    33    64    67    1
    34    68    67    1
    35    68    70    1
    36    88    89    1
    37   107   106    1
    38   107   101    1
    39     3     4    2
    40    92    93   ar
    41    92    94   ar
    42   106   105    1
    43    19    17    1
    44    97    94   ar
    45    97    99   ar
    46    93    95   ar
    47    94    96   ar
    48   101    89   am
    49   101   102    1
    50    89    90    2
    51    27    26    1
    52    99   100   ar
    53    17    18    1
    54    17    14    1
    55   105   102    1
    56    95    96   ar
    57    96    98   ar
    58    61    60    2
    59    18    20    1
    60    26    28    1
    61    26    25    1
    62   102   103    1
    63   100    98   ar
    64    13    14    1
    65    14    15    1
    66   103   104    2
    67    54    53    2
    68    60    59    1
    69    25    22    1
    70    21    15   am
    71    21    22    1
    72    15    16    2
    73    22    23    1
    74    53    58   am
    75    53    52    1
    76    59    58    1
    77    59    62    1
    78   114   112    1
    79   108   109    1
    80    56    55    1
    81    52    55    1
    82    52    51    1
    83   113   112    1
    84    23    24    2
    85   112   109    1
    86    55    57    1
    87   109   110    1
    88   121   120    1
    89    33    30    1
    90   120   119    1
    91   120   122    1
    92   115   110   am
    93   115   116    1
    94   119   116    1
    95   110   111    2
    96    29    30    1
    97   116   117    1
    98    49    48    2
    99    30    31    1
   100   117   118    2
   101    39    38    1
   102    48    47    1
   103    31    34   am
   104    31    32    2
   105    34    35    1
   106    47    46    1
   107    47    50    1
   108    38    35    1
   109    38    40    1
   110    35    36    1
   111    36    37    2
   112    45    42    1
   113    41    42    1
   114    42    43    1
   115    43    44    2
