@<TRIPOS>MOLECULE
tmp/6c1rA07.pdb
 122 116 0 0 0
SMALL
GASTEIGER

@<TRIPOS>ATOM
      1  N          8.5390   14.5680  -56.9260 N.3   277  LEU277     -0.1245
      2  CA         7.6860   15.6880  -57.3200 C.3   277  LEU277      0.1561
      3  C          8.4280   16.7260  -58.1580 C.2   277  LEU277      0.2260
      4  O          7.8750   17.2680  -59.1170 O.2   277  LEU277     -0.2867
      5  CB         7.0710   16.3520  -56.0880 C.3   277  LEU277      0.0270
      6  CG         5.9680   15.5030  -55.4490 C.3   277  LEU277      0.0019
      7  CD1        5.2930   16.2380  -54.3020 C.3   277  LEU277      0.0001
      8  CD2        4.9540   15.0950  -56.5020 C.3   277  LEU277      0.0001
      9  N          8.7260   15.2650  -61.5730 N.3   280  THR280     -0.1203
     10  CA         7.4340   15.3660  -62.2460 C.3   280  THR280      0.1994
     11  C          7.0950   16.7990  -62.6750 C.2   280  THR280      0.2617
     12  O          6.6350   17.0250  -63.7930 O.2   280  THR280     -0.2717
     13  CB         6.3010   14.8380  -61.3350 C.3   280  THR280      0.1784
     14  OG1        6.6650   13.5590  -60.8010 O.3   280  THR280     -0.2211
     15  CG2        4.9930   14.7180  -62.1070 C.3   280  THR280      0.0376
     16  N          7.3270   17.7610  -61.7840 N.am  281  TRP281     -0.1975
     17  CA         6.9760   19.1610  -62.0330 C.3   281  TRP281      0.1640
     18  C          7.9050   19.8640  -63.0140 C.2   281  TRP281      0.2290
     19  O          7.5870   20.9450  -63.5060 O.2   281  TRP281     -0.2864
     20  CB         6.9680   19.9480  -60.7230 C.3   281  TRP281      0.0576
     21  CG         5.9090   19.5190  -59.7730 C.ar  281  TRP281      0.0006
     22  CD1        4.7690   18.8320  -60.0720 C.ar  281  TRP281      0.0946
     23  CD2        5.8900   19.7360  -58.3590 C.ar  281  TRP281      0.0152
     24  NE1        4.0370   18.6130  -58.9290 N.ar  281  TRP281     -0.2442
     25  CE2        4.7040   19.1600  -57.8630 C.ar  281  TRP281      0.0810
     26  CE3        6.7620   20.3670  -57.4630 C.ar  281  TRP281      0.0012
     27  CZ2        4.3660   19.1930  -56.5070 C.ar  281  TRP281      0.0191
     28  CZ3        6.4250   20.4000  -56.1190 C.ar  281  TRP281      0.0001
     29  CH2        5.2370   19.8150  -55.6540 C.ar  281  TRP281      0.0015
     30  N          0.2670   10.8100  -62.5560 N.3   286  THR286     -0.1218
     31  CA         0.0470   11.5570  -61.3190 C.3   286  THR286      0.1862
     32  C         -1.1160   11.0440  -60.4770 C.2   286  THR286      0.2287
     33  O         -1.1370   11.2620  -59.2700 O.2   286  THR286     -0.2866
     34  CB        -0.1910   13.0510  -61.6040 C.3   286  THR286      0.1770
     35  OG1       -1.3260   13.2020  -62.4660 O.3   286  THR286     -0.2211
     36  CG2        1.0330   13.6580  -62.2600 C.3   286  THR286      0.0375
     37  N          0.0870    8.5020  -57.9900 N.3   289  LEU289     -0.1231
     38  CA         1.0640    9.2890  -57.2420 C.3   289  LEU289      0.1693
     39  C          0.3950   10.2840  -56.2910 C.2   289  LEU289      0.2591
     40  O          0.8040   10.4270  -55.1410 O.2   289  LEU289     -0.2718
     41  CB         1.9940   10.0280  -58.2080 C.3   289  LEU289      0.0284
     42  CG         2.9960   11.0140  -57.6040 C.3   289  LEU289      0.0019
     43  CD1        3.9220   10.3060  -56.6180 C.3   289  LEU289      0.0001
     44  CD2        3.7930   11.7050  -58.7040 C.3   289  LEU289      0.0001
     45  N         -0.6410   10.9610  -56.7720 N.am  290  LYS290     -0.1980
     46  CA        -1.3460   11.9440  -55.9640 C.3   290  LYS290      0.1596
     47  C         -2.0660   11.2710  -54.7970 C.2   290  LYS290      0.2287
     48  O         -2.1730   11.8440  -53.7080 O.2   290  LYS290     -0.2864
     49  CB        -2.3380   12.7390  -56.8220 C.3   290  LYS290      0.0298
     50  CG        -2.9010   13.8510  -55.8250 C.3   290  LYS290      0.0038
     51  CD        -3.7490   14.8540  -56.5870 C.3   290  LYS290      0.0206
     52  CE        -5.1760   14.4900  -56.7780 C.3   290  LYS290      0.1093
     53  NZ        -5.9540   14.3180  -55.5160 N.3   290  LYS290     -0.1314
     54  N          0.7170   10.1120  -52.1310 N.3   293  VAL293     -0.1231
     55  CA         1.1900   11.2830  -51.3920 C.3   293  VAL293      0.1692
     56  C          0.1810   11.6800  -50.3150 C.2   293  VAL293      0.2591
     57  O          0.5560   11.9170  -49.1670 O.2   293  VAL293     -0.2718
     58  CB         1.4570   12.4850  -52.3220 C.3   293  VAL293      0.0266
     59  CG1        1.7350   13.7470  -51.5000 C.3   293  VAL293      0.0020
     60  CG2        2.6230   12.1790  -53.2550 C.3   293  VAL293      0.0020
     61  N         -1.0970   11.7110  -50.6850 N.am  294  ALA294     -0.1980
     62  CA        -2.1690   12.0130  -49.7370 C.3   294  ALA294      0.1597
     63  C         -2.1830   11.0360  -48.5560 C.2   294  ALA294      0.2287
     64  O         -2.3300   11.4400  -47.4060 O.2   294  ALA294     -0.2864
     65  CB        -3.5290   12.0030  -50.4470 C.3   294  ALA294      0.0319
     66  N          0.8750   11.7260  -46.4010 N.3   297  ALA297     -0.1231
     67  CA         0.6380   12.9540  -45.6480 C.3   297  ALA297      0.1694
     68  C         -0.3040   12.7090  -44.4700 C.2   297  ALA297      0.2592
     69  O         -0.0180   13.1170  -43.3460 O.2   297  ALA297     -0.2718
     70  CB         0.0780   14.0470  -46.5630 C.3   297  ALA297      0.0304
     71  N         -1.4090   12.0190  -44.7230 N.am  298  SER298     -0.1952
     72  CA        -2.3920   11.7460  -43.6740 C.3   298  SER298      0.1924
     73  C         -1.8220   10.9080  -42.5210 C.2   298  SER298      0.2314
     74  O         -2.3030   11.0070  -41.3960 O.2   298  SER298     -0.2863
     75  CB        -3.6210   11.0470  -44.2570 C.3   298  SER298      0.2116
     76  OG        -3.3020    9.7370  -44.6980 O.3   298  SER298     -0.2180
     77  N         -0.0710   13.4910  -40.2490 N.3   301  ILE301     -0.1231
     78  CA        -1.0570   14.4160  -39.6880 C.3   301  ILE301      0.1692
     79  C         -1.7770   13.8070  -38.4810 C.2   301  ILE301      0.2592
     80  O         -1.9160   14.4450  -37.4390 O.2   301  ILE301     -0.2718
     81  CB        -2.0970   14.8480  -40.7480 C.3   301  ILE301      0.0266
     82  CG1       -1.4800   15.8780  -41.6980 C.3   301  ILE301      0.0019
     83  CG2       -3.3240   15.4490  -40.0840 C.3   301  ILE301      0.0020
     84  CD1       -2.2240   16.0380  -42.9960 C.3   301  ILE301      0.0001
     85  N         -2.1960   12.5540  -38.6090 N.am  302  PHE302     -0.1976
     86  CA        -3.0320   11.9410  -37.5900 C.3   302  PHE302      0.1639
     87  C         -2.2450   11.2470  -36.4670 C.2   302  PHE302      0.2290
     88  O         -2.8190   10.9290  -35.4280 O.2   302  PHE302     -0.2864
     89  CB        -4.0170   10.9680  -38.2550 C.3   302  PHE302      0.0560
     90  CG        -5.0520   11.6620  -39.1040 C.ar  302  PHE302     -0.0200
     91  CD1       -5.9560   12.5460  -38.5280 C.ar  302  PHE302     -0.0042
     92  CD2       -5.1090   11.4560  -40.4740 C.ar  302  PHE302     -0.0042
     93  CE1       -6.8980   13.2060  -39.3000 C.ar  302  PHE302     -0.0003
     94  CE2       -6.0530   12.1130  -41.2510 C.ar  302  PHE302     -0.0003
     95  CZ        -6.9460   12.9820  -40.6620 C.ar  302  PHE302     -0.0000
     96  N         -7.5770    9.9960  -32.5710 N.3   336  PHE336     -0.1241
     97  CA        -7.1570   10.8340  -33.6850 C.3   336  PHE336      0.1605
     98  C         -6.2160   10.0410  -34.5920 C.2   336  PHE336      0.2264
     99  O         -6.2960   10.1270  -35.8160 O.2   336  PHE336     -0.2867
    100  CB        -6.4850   12.1130  -33.1790 C.3   336  PHE336      0.0534
    101  CG        -6.3470   13.1840  -34.2230 C.ar  336  PHE336     -0.0203
    102  CD1       -7.4630   13.8400  -34.7190 C.ar  336  PHE336     -0.0042
    103  CD2       -5.1010   13.5550  -34.6940 C.ar  336  PHE336     -0.0042
    104  CE1       -7.3330   14.8320  -35.6740 C.ar  336  PHE336     -0.0003
    105  CE2       -4.9730   14.5550  -35.6490 C.ar  336  PHE336     -0.0003
    106  CZ        -6.0870   15.1860  -36.1350 C.ar  336  PHE336     -0.0000
    107  N         -9.1990    6.7690  -43.3470 N.3   343  ILE343     -0.1245
    108  CA        -8.9640    7.9030  -44.2360 C.3   343  ILE343      0.1561
    109  C         -8.6450    7.5050  -45.6870 C.2   343  ILE343      0.2260
    110  O         -8.9750    8.2470  -46.6090 O.2   343  ILE343     -0.2867
    111  CB        -7.8260    8.8020  -43.6910 C.3   343  ILE343      0.0252
    112  CG1       -7.8190   10.1650  -44.3950 C.3   343  ILE343      0.0019
    113  CG2       -6.4720    8.0950  -43.7640 C.3   343  ILE343      0.0019
    114  CD1       -9.0070   11.0360  -44.0300 C.3   343  ILE343      0.0001
    115  N         -9.9390    9.2500  -49.1810 N.3   347  ILE347     -0.1245
    116  CA        -8.9880    9.7870  -50.1430 C.3   347  ILE347      0.1561
    117  C         -9.2240    9.2120  -51.5450 C.2   347  ILE347      0.2260
    118  O         -9.2210    9.9510  -52.5350 O.2   347  ILE347     -0.2867
    119  CB        -7.5380    9.5110  -49.6800 C.3   347  ILE347      0.0252
    120  CG1       -7.2040   10.3810  -48.4630 C.3   347  ILE347      0.0019
    121  CG2       -6.5360    9.7500  -50.8010 C.3   347  ILE347      0.0019
    122  CD1       -5.8360   10.1130  -47.8750 C.3   347  ILE347      0.0001
@<TRIPOS>BOND
     1    12    11    2
     2    19    18    2
     3    18    17    1
     4    11    10    1
     5    11    16   am
     6    30    31    1
     7    35    34    1
     8    36    34    1
     9    10     9    1
    10    10    13    1
    11    15    13    1
    12    17    16    1
    13    17    20    1
    14    34    31    1
    15    13    14    1
    16    31    32    1
    17    20    21    1
    18    32    33    2
    19    22    21   ar
    20    22    24   ar
    21    21    23   ar
    22     4     3    2
    23    24    25   ar
    24    44    42    1
    25    23    25   ar
    26    23    26   ar
    27    41    42    1
    28    41    38    1
    29     3     2    1
    30    37    38    1
    31    25    27   ar
    32    42    43    1
    33    26    28   ar
    34     2     1    1
    35     2     5    1
    36    38    39    1
    37    49    46    1
    38    49    50    1
    39    52    51    1
    40    52    53    1
    41    45    39   am
    42    45    46    1
    43    51    50    1
    44    27    29   ar
    45     8     6    1
    46    39    40    2
    47    28    29   ar
    48     5     6    1
    49    46    47    1
    50     6     7    1
    51    47    48    2
    52    60    58    1
    53   118   117    2
    54    58    59    1
    55    58    55    1
    56    54    55    1
    57   117   116    1
    58    55    56    1
    59   121   119    1
    60    61    56   am
    61    61    62    1
    62    65    62    1
    63    56    57    2
    64   116   119    1
    65   116   115    1
    66    62    63    1
    67   119   120    1
    68    63    64    2
    69   120   122    1
    70   110   109    2
    71    70    67    1
    72    66    67    1
    73   109   108    1
    74    67    68    1
    75    71    68   am
    76    71    72    1
    77    76    75    1
    78    68    69    2
    79   112   114    1
    80   112   111    1
    81    75    72    1
    82   108   111    1
    83   108   107    1
    84   113   111    1
    85    72    73    1
    86    84    82    1
    87    73    74    2
    88    82    81    1
    89    94    95   ar
    90    94    92   ar
    91    81    83    1
    92    81    78    1
    93    95    93   ar
    94    92    90   ar
    95    77    78    1
    96    78    79    1
    97    93    91   ar
    98    90    91   ar
    99    90    89    1
   100    85    79   am
   101    85    86    1
   102    79    80    2
   103    89    86    1
   104    86    87    1
   105    87    88    2
   106   106   104   ar
   107   106   105   ar
   108    99    98    2
   109   104   102   ar
   110   105   103   ar
   111   102   101   ar
   112   103   101   ar
   113    98    97    1
   114   101   100    1
   115    97   100    1
   116    97    96    1
