@<TRIPOS>MOLECULE
tmp/6c1rA02.pdb
 164 156 0 0 0
SMALL
GASTEIGER

@<TRIPOS>ATOM
      1  N          3.1940    0.6100  -37.5780 N.3   173  TYR173     -0.1241
      2  CA         4.3990    0.0730  -38.1880 C.3   173  TYR173      0.1605
      3  C          4.1080   -0.6110  -39.5180 C.2   173  TYR173      0.2264
      4  O          4.8970   -0.4930  -40.4490 O.2   173  TYR173     -0.2867
      5  CB         5.0990   -0.8860  -37.2250 C.3   173  TYR173      0.0534
      6  CG         5.7720   -0.1620  -36.0820 C.ar  173  TYR173     -0.0201
      7  CD1        6.7900    0.7560  -36.3280 C.ar  173  TYR173     -0.0009
      8  CD2        5.3800   -0.3730  -34.7650 C.ar  173  TYR173     -0.0009
      9  CE1        7.4080    1.4390  -35.2950 C.ar  173  TYR173      0.0417
     10  CE2        5.9970    0.2980  -33.7160 C.ar  173  TYR173      0.0417
     11  CZ         7.0110    1.2030  -33.9880 C.ar  173  TYR173      0.1957
     12  OH         7.6170    1.8730  -32.9560 O.3   173  TYR173     -0.2866
     13  N          3.3850    2.1600  -42.1930 N.3   176  ILE176     -0.1231
     14  CA         4.5190    2.9820  -42.5890 C.3   176  ILE176      0.1692
     15  C          5.5750    2.1580  -43.3390 C.2   176  ILE176      0.2591
     16  O          6.2720    2.6840  -44.2080 O.2   176  ILE176     -0.2718
     17  CB         5.1460    3.7070  -41.3740 C.3   176  ILE176      0.0266
     18  CG1        6.0090    4.8820  -41.8580 C.3   176  ILE176      0.0019
     19  CG2        5.9190    2.7470  -40.4670 C.3   176  ILE176      0.0020
     20  CD1        5.2280    5.9730  -42.5920 C.3   176  ILE176      0.0001
     21  N          5.6700    0.8690  -43.0220 N.am  177  LEU177     -0.1980
     22  CA         6.5670   -0.0300  -43.7390 C.3   177  LEU177      0.1596
     23  C          6.0330   -0.3280  -45.1450 C.2   177  LEU177      0.2287
     24  O          6.8000   -0.4180  -46.1070 O.2   177  LEU177     -0.2864
     25  CB         6.7670   -1.3260  -42.9510 C.3   177  LEU177      0.0297
     26  CG         7.6850   -1.1750  -41.7320 C.3   177  LEU177      0.0022
     27  CD1        7.5940   -2.3810  -40.8050 C.3   177  LEU177      0.0001
     28  CD2        9.1290   -0.9230  -42.1760 C.3   177  LEU177      0.0001
     29  N          6.5850    2.7880  -47.0440 N.3   180  ALA180     -0.1231
     30  CA         7.9980    2.8380  -47.4060 C.3   180  ALA180      0.1694
     31  C          8.2550    1.9820  -48.6540 C.2   180  ALA180      0.2592
     32  O          9.0060    2.3790  -49.5370 O.2   180  ALA180     -0.2718
     33  CB         8.8750    2.3840  -46.2390 C.3   180  ALA180      0.0304
     34  N          7.6070    0.8220  -48.7340 N.am  181  THR181     -0.1953
     35  CA         7.7910   -0.0730  -49.8730 C.3   181  THR181      0.1897
     36  C          7.1410    0.4970  -51.1230 C.2   181  THR181      0.2313
     37  O          7.7270    0.4860  -52.2070 O.2   181  THR181     -0.2863
     38  CB         7.2040   -1.4720  -49.6000 C.3   181  THR181      0.1794
     39  OG1        7.7430   -1.9890  -48.3760 O.3   181  THR181     -0.2208
     40  CG2        7.5250   -2.4100  -50.7510 C.3   181  THR181      0.0378
     41  N          6.6060    3.6010  -51.6530 N.3   183  SER183     -0.1202
     42  CA         7.3720    4.7930  -52.0220 C.3   183  SER183      0.2020
     43  C          8.6410    4.4170  -52.7780 C.2   183  SER183      0.2618
     44  O          9.0420    5.1150  -53.7070 O.2   183  SER183     -0.2717
     45  CB         7.7260    5.6200  -50.7820 C.3   183  SER183      0.2103
     46  OG         6.5560    5.9870  -50.0780 O.3   183  SER183     -0.2182
     47  N          9.2700    3.3160  -52.3720 N.am  184  ALA184     -0.1979
     48  CA        10.4530    2.8250  -53.0660 C.3   184  ALA184      0.1597
     49  C         10.0820    2.4280  -54.4940 C.2   184  ALA184      0.2287
     50  O         10.8130    2.7380  -55.4350 O.2   184  ALA184     -0.2864
     51  CB        11.0780    1.6530  -52.3080 C.3   184  ALA184      0.0319
     52  N          9.4930    5.6100  -56.4730 N.3   187  PHE187     -0.1241
     53  CA        10.8010    6.1780  -56.7510 C.3   187  PHE187      0.1605
     54  C         11.4690    5.4800  -57.9450 C.2   187  PHE187      0.2264
     55  O         11.9890    6.1370  -58.8420 O.2   187  PHE187     -0.2867
     56  CB        11.6870    6.0810  -55.5020 C.3   187  PHE187      0.0534
     57  CG        12.9510    6.8930  -55.5780 C.ar  187  PHE187     -0.0203
     58  CD1       12.9870    8.1820  -55.0750 C.ar  187  PHE187     -0.0042
     59  CD2       14.1040    6.3700  -56.1370 C.ar  187  PHE187     -0.0042
     60  CE1       14.1430    8.9360  -55.1310 C.ar  187  PHE187     -0.0003
     61  CE2       15.2620    7.1240  -56.1950 C.ar  187  PHE187     -0.0003
     62  CZ        15.2770    8.4110  -55.6910 C.ar  187  PHE187     -0.0000
     63  N          7.9880   -8.4230  -50.3700 N.3   207  ALA207     -0.1245
     64  CA         8.2160   -7.1720  -49.6580 C.3   207  ALA207      0.1562
     65  C          7.0910   -6.9320  -48.6410 C.2   207  ALA207      0.2260
     66  O          7.3480   -6.5260  -47.5070 O.2   207  ALA207     -0.2867
     67  CB         8.3320   -6.0140  -50.6320 C.3   207  ALA207      0.0290
     68  N          7.5820   -9.3060  -45.5520 N.3   210  VAL210     -0.1231
     69  CA         8.6180   -8.7520  -44.6920 C.3   210  VAL210      0.1692
     70  C          8.0950   -7.5380  -43.9170 C.2   210  VAL210      0.2591
     71  O          8.3220   -7.4170  -42.7200 O.2   210  VAL210     -0.2718
     72  CB         9.8630   -8.3520  -45.5160 C.3   210  VAL210      0.0266
     73  CG1       10.8710   -7.6090  -44.6580 C.3   210  VAL210      0.0020
     74  CG2       10.4940   -9.5870  -46.1650 C.3   210  VAL210      0.0020
     75  N          7.3850   -6.6500  -44.6060 N.am  211  ALA211     -0.1980
     76  CA         6.8060   -5.4730  -43.9670 C.3   211  ALA211      0.1597
     77  C          5.8740   -5.8710  -42.8160 C.2   211  ALA211      0.2287
     78  O          5.9720   -5.3340  -41.7080 O.2   211  ALA211     -0.2864
     79  CB         6.0680   -4.6310  -44.9870 C.3   211  ALA211      0.0319
     80  N          8.0520   -7.4910  -39.9440 N.3   214  LEU214     -0.1245
     81  CA         8.8100   -6.4720  -39.2330 C.3   214  LEU214      0.1561
     82  C          7.9110   -5.6540  -38.3200 C.2   214  LEU214      0.2260
     83  O          8.2730   -5.3550  -37.1870 O.2   214  LEU214     -0.2867
     84  CB         9.5260   -5.5680  -40.2310 C.3   214  LEU214      0.0270
     85  CG        10.7320   -4.8250  -39.6650 C.3   214  LEU214      0.0019
     86  CD1       11.7540   -5.8350  -39.1580 C.3   214  LEU214      0.0001
     87  CD2       11.3410   -3.9000  -40.7170 C.3   214  LEU214      0.0001
     88  N          8.1010   -5.2290  -34.2500 N.3   218  LEU218     -0.1245
     89  CA         8.1860   -3.9060  -33.6270 C.3   218  LEU218      0.1561
     90  C          7.0930   -3.6830  -32.5940 C.2   218  LEU218      0.2260
     91  O          7.1930   -2.7880  -31.7620 O.2   218  LEU218     -0.2867
     92  CB         8.1240   -2.8040  -34.6880 C.3   218  LEU218      0.0270
     93  CG         9.4040   -2.6540  -35.5120 C.3   218  LEU218      0.0019
     94  CD1        9.2220   -1.7090  -36.6970 C.3   218  LEU218      0.0001
     95  CD2       10.5440   -2.1980  -34.6100 C.3   218  LEU218      0.0001
     96  N         11.3120    5.6230  -34.8520 N.3   260  LEU260     -0.1245
     97  CA        10.9950    4.6050  -35.8520 C.3   260  LEU260      0.1561
     98  C          9.5970    4.8050  -36.4370 C.2   260  LEU260      0.2260
     99  O          9.3490    4.5200  -37.6070 O.2   260  LEU260     -0.2867
    100  CB        11.1030    3.1910  -35.2520 C.3   260  LEU260      0.0270
    101  CG        12.4460    2.7120  -34.6930 C.3   260  LEU260      0.0019
    102  CD1       12.3520    1.2460  -34.2580 C.3   260  LEU260      0.0001
    103  CD2       13.5680    2.9020  -35.7050 C.3   260  LEU260      0.0001
    104  N         11.9840    9.1950  -38.3770 N.3   264  TRP264     -0.1228
    105  CA        12.7490    8.5620  -39.4500 C.3   264  TRP264      0.1722
    106  C         11.9120    8.3320  -40.7310 C.2   264  TRP264      0.2437
    107  O         12.4150    8.5480  -41.8360 O.2   264  TRP264     -0.2733
    108  CB        13.3660    7.2410  -38.9580 C.3   264  TRP264      0.0563
    109  CG        14.0760    6.4540  -40.0200 C.ar  264  TRP264      0.0003
    110  CD1       13.6860    5.2580  -40.5510 C.ar  264  TRP264      0.0946
    111  CD2       15.2970    6.8060  -40.6810 C.ar  264  TRP264      0.0152
    112  NE1       14.5900    4.8400  -41.4940 N.ar  264  TRP264     -0.2442
    113  CE2       15.5900    5.7710  -41.5940 C.ar  264  TRP264      0.0810
    114  CE3       16.1750    7.8900  -40.5860 C.ar  264  TRP264      0.0012
    115  CZ2       16.7210    5.7920  -42.4090 C.ar  264  TRP264      0.0191
    116  CZ3       17.3000    7.9070  -41.3970 C.ar  264  TRP264      0.0001
    117  CH2       17.5590    6.8660  -42.2970 C.ar  264  TRP264      0.0015
    118  N         10.6400    7.9080  -40.5990 N.am  265  PRO265     -0.2729
    119  CA         9.8200    7.8660  -41.8230 C.3   265  PRO265      0.1401
    120  C          9.5440    9.2490  -42.4200 C.2   265  PRO265      0.2269
    121  O          9.4610    9.3820  -43.6390 O.2   265  PRO265     -0.2865
    122  CB         8.5090    7.2380  -41.3520 C.3   265  PRO265      0.0296
    123  CG         8.8340    6.5460  -40.0930 C.3   265  PRO265      0.0237
    124  CD         9.9390    7.3010  -39.4520 C.3   265  PRO265      0.0939
    125  N         12.7390   10.2930  -44.3740 N.3   268  THR268     -0.1203
    126  CA        13.0400    9.4810  -45.5520 C.3   268  THR268      0.1994
    127  C         11.9870    9.6030  -46.6620 C.2   268  THR268      0.2617
    128  O         12.3370    9.7210  -47.8350 O.2   268  THR268     -0.2717
    129  CB        13.2170    7.9870  -45.1690 C.3   268  THR268      0.1784
    130  OG1       12.0700    7.5320  -44.4440 O.3   268  THR268     -0.2211
    131  CG2       14.4610    7.8060  -44.2980 C.3   268  THR268      0.0376
    132  N         10.7070    9.5770  -46.3030 N.am  269  LEU269     -0.1979
    133  CA         9.6460    9.7490  -47.2970 C.3   269  LEU269      0.1596
    134  C          9.5650   11.1760  -47.8680 C.2   269  LEU269      0.2287
    135  O          9.2090   11.3470  -49.0300 O.2   269  LEU269     -0.2864
    136  CB         8.2970    9.3610  -46.7060 C.3   269  LEU269      0.0297
    137  CG         8.1640    7.8820  -46.3280 C.3   269  LEU269      0.0022
    138  CD1        6.7740    7.5910  -45.7720 C.3   269  LEU269      0.0001
    139  CD2        8.4710    6.9740  -47.5240 C.3   269  LEU269      0.0001
    140  N         12.1480   13.0910  -48.3330 N.3   271  ILE271     -0.1231
    141  CA        13.2480   13.0810  -49.2980 C.3   271  ILE271      0.1692
    142  C         12.7990   12.3980  -50.5840 C.2   271  ILE271      0.2592
    143  O         13.0280   12.9070  -51.6910 O.2   271  ILE271     -0.2718
    144  CB        14.5010   12.3460  -48.7660 C.3   271  ILE271      0.0266
    145  CG1       15.1340   13.1050  -47.5960 C.3   271  ILE271      0.0019
    146  CG2       15.5340   12.1500  -49.8930 C.3   271  ILE271      0.0020
    147  CD1       16.2790   12.3660  -46.9240 C.3   271  ILE271      0.0001
    148  N         12.1620   11.2410  -50.4180 N.am  272  CYS272     -0.1970
    149  CA        11.6810   10.4290  -51.5290 C.3   272  CYS272      0.1712
    150  C         10.7690   11.2020  -52.4730 C.2   272  CYS272      0.2296
    151  O         10.9440   11.1600  -53.6910 O.2   272  CYS272     -0.2864
    152  CB        10.9390    9.1930  -50.9980 C.3   272  CYS272      0.0983
    153  SG        10.2740    8.0810  -52.2810 S.3   272  CYS272     -0.0798
    154  N         12.3290   14.3040  -54.3820 N.3   275  PHE275     -0.1241
    155  CA        12.9070   13.7650  -55.6080 C.3   275  PHE275      0.1605
    156  C         11.8400   13.5520  -56.6880 C.2   275  PHE275      0.2264
    157  O         11.9860   14.0180  -57.8120 O.2   275  PHE275     -0.2867
    158  CB        13.6240   12.4400  -55.3250 C.3   275  PHE275      0.0534
    159  CG        15.1040   12.5780  -55.0470 C.ar  275  PHE275     -0.0203
    160  CD1       15.5590   13.0320  -53.8180 C.ar  275  PHE275     -0.0042
    161  CD2       16.0400   12.2280  -56.0070 C.ar  275  PHE275     -0.0042
    162  CE1       16.9210   13.1480  -53.5560 C.ar  275  PHE275     -0.0003
    163  CE2       17.4010   12.3410  -55.7500 C.ar  275  PHE275     -0.0003
    164  CZ        17.8390   12.7990  -54.5190 C.ar  275  PHE275     -0.0000
@<TRIPOS>BOND
     1    55    54    2
     2    54    53    1
     3   157   156    2
     4    53    52    1
     5    53    56    1
     6   156   155    1
     7    61    59   ar
     8    61    62   ar
     9    59    57   ar
    10   161   163   ar
    11   161   159   ar
    12   163   164   ar
    13    62    60   ar
    14   155   158    1
    15   155   154    1
    16    57    56    1
    17    57    58   ar
    18    50    49    2
    19   158   159    1
    20    60    58   ar
    21   159   160   ar
    22   164   162   ar
    23    49    48    1
    24   160   162   ar
    25    44    43    2
    26   151   150    2
    27    48    47    1
    28    48    51    1
    29    43    47   am
    30    43    42    1
    31   150   149    1
    32   153   152    1
    33    37    36    2
    34    42    41    1
    35    42    45    1
    36   143   142    2
    37   149   152    1
    38   149   148    1
    39    36    35    1
    40    45    46    1
    41    40    38    1
    42    67    64    1
    43   142   148   am
    44   142   141    1
    45    63    64    1
    46   146   144    1
    47    35    38    1
    48    35    34    1
    49    64    65    1
    50    38    39    1
    51    32    31    2
    52   141   144    1
    53   141   140    1
    54   135   134    2
    55   144   145    1
    56    34    31   am
    57    31    30    1
    58    65    66    2
    59   134   133    1
    60   128   127    2
    61   145   147    1
    62   139   137    1
    63    30    29    1
    64    30    33    1
    65   133   136    1
    66   133   132    1
    67   136   137    1
    68   127   132   am
    69   127   126    1
    70   137   138    1
    71    74    72    1
    72    24    23    2
    73   126   129    1
    74   126   125    1
    75    68    69    1
    76    72    69    1
    77    72    73    1
    78   129   130    1
    79   129   131    1
    80    23    22    1
    81    79    76    1
    82    69    70    1
    83    75    76    1
    84    75    70   am
    85    16    15    2
    86    76    77    1
    87    70    71    2
    88    22    21    1
    89    22    25    1
    90   121   120    2
    91    15    21   am
    92    15    14    1
    93    25    26    1
    94    77    78    2
    95    20    18    1
    96    14    13    1
    97    14    17    1
    98   120   119    1
    99   115   117   ar
   100   115   113   ar
   101   117   116   ar
   102    28    26    1
   103    18    17    1
   104   107   106    2
   105   119   122    1
   106   119   118    1
   107    26    27    1
   108   113   112   ar
   109   113   111   ar
   110   112   110   ar
   111   116   114   ar
   112    17    19    1
   113   122   123    1
   114   106   118   am
   115   106   105    1
   116    87    85    1
   117   111   114   ar
   118   111   109   ar
   119   118   124    1
   120   110   109   ar
   121     4     3    2
   122    84    85    1
   123    84    81    1
   124   123   124    1
   125   109   108    1
   126    80    81    1
   127    85    86    1
   128     3     2    1
   129   105   108    1
   130   105   104    1
   131    81    82    1
   132    82    83    2
   133     2     1    1
   134     2     5    1
   135    99    98    2
   136     5     6    1
   137    94    93    1
   138    98    97    1
   139     7     6   ar
   140     7     9   ar
   141     6     8   ar
   142    97   100    1
   143    97    96    1
   144   103   101    1
   145    93    92    1
   146    93    95    1
   147     9    11   ar
   148   100   101    1
   149     8    10   ar
   150   101   102    1
   151    92    89    1
   152    88    89    1
   153    11    10   ar
   154    11    12    1
   155    89    90    1
   156    90    91    2
