@<TRIPOS>MOLECULE
tmp/6c1rA10.pdb
 85 81 0 0 0
SMALL
GASTEIGER

@<TRIPOS>ATOM
      1  N         -3.3310  -10.0980  -58.7560 N.3   119  LYS119     -0.1245
      2  CA        -2.3730  -10.8700  -59.5330 C.3   119  LYS119      0.1561
      3  C         -2.1920  -10.2810  -60.9320 C.2   119  LYS119      0.2260
      4  O         -1.4300  -10.8070  -61.7420 O.2   119  LYS119     -0.2867
      5  CB        -2.8080  -12.3340  -59.6170 C.3   119  LYS119      0.0271
      6  CG        -2.8300  -13.0430  -58.2670 C.3   119  LYS119      0.0035
      7  CD        -3.0390  -14.5310  -58.4440 C.3   119  LYS119      0.0206
      8  CE        -1.9660  -15.1180  -59.3450 C.3   119  LYS119      0.1093
      9  NZ        -2.1960  -16.5660  -59.6080 N.3   119  LYS119     -0.1314
     10  N         -2.9290   -4.4760  -49.2470 N.3   129  ASN129     -0.1240
     11  CA        -2.2350   -4.6450  -47.9760 C.3   129  ASN129      0.1653
     12  C         -2.4910   -3.4890  -46.9970 C.2   129  ASN129      0.2266
     13  O         -2.6030   -3.7200  -45.7890 O.2   129  ASN129     -0.2867
     14  CB        -0.7320   -4.8230  -48.2160 C.3   129  ASN129      0.1155
     15  CG        -0.3460   -6.2790  -48.4730 C.2   129  ASN129      0.2627
     16  OD1        0.2530   -6.9340  -47.6180 O.2   129  ASN129     -0.2716
     17  ND2       -0.6980   -6.7900  -49.6440 N.am  129  ASN129     -0.0877
     18  N          0.4500   -1.8830  -34.1870 N.3   170  LEU170     -0.1245
     19  CA         0.7360   -2.7590  -35.3150 C.3   170  LEU170      0.1561
     20  C          0.4140   -2.0420  -36.6220 C.2   170  LEU170      0.2260
     21  O          1.1930   -2.0690  -37.5800 O.2   170  LEU170     -0.2867
     22  CB        -0.0720   -4.0490  -35.2180 C.3   170  LEU170      0.0270
     23  CG         0.1750   -5.0590  -36.3410 C.3   170  LEU170      0.0019
     24  CD1        1.6450   -5.4460  -36.3960 C.3   170  LEU170      0.0001
     25  CD2       -0.7010   -6.2880  -36.1690 C.3   170  LEU170      0.0001
     26  N          4.8590   -9.3250  -59.5000 N.3   201  ALA201     -0.1231
     27  CA         3.9390   -9.5300  -58.3890 C.3   201  ALA201      0.1694
     28  C          4.6210  -10.2930  -57.2580 C.2   201  ALA201      0.2592
     29  O          4.3450  -10.0460  -56.0830 O.2   201  ALA201     -0.2718
     30  CB         2.6940  -10.2650  -58.8550 C.3   201  ALA201      0.0304
     31  N          5.5200  -11.2050  -57.6250 N.am  202  GLY202     -0.1957
     32  CA         6.2100  -12.0510  -56.6650 C.3   202  GLY202      0.1869
     33  C          7.0660  -11.2950  -55.6660 C.2   202  GLY202      0.2309
     34  O          7.0140  -11.5710  -54.4680 O.2   202  GLY202     -0.2863
     35  N          4.8340   -9.2040  -53.2170 N.3   205  TRP205     -0.1241
     36  CA         4.2610  -10.0100  -52.1380 C.3   205  TRP205      0.1605
     37  C          5.2920  -10.3790  -51.0750 C.2   205  TRP205      0.2264
     38  O          4.9650  -10.4830  -49.8970 O.2   205  TRP205     -0.2867
     39  CB         3.6230  -11.2790  -52.6930 C.3   205  TRP205      0.0550
     40  CG         2.2310  -11.0690  -53.2160 C.ar  205  TRP205      0.0003
     41  CD1        1.8130  -11.1900  -54.5120 C.ar  205  TRP205      0.0946
     42  CD2        1.0770  -10.6920  -52.4560 C.ar  205  TRP205      0.0152
     43  NE1        0.4650  -10.9330  -54.5990 N.ar  205  TRP205     -0.2442
     44  CE2       -0.0070  -10.6170  -53.3520 C.ar  205  TRP205      0.0810
     45  CE3        0.8540  -10.4160  -51.1070 C.ar  205  TRP205      0.0012
     46  CZ2       -1.2890  -10.2690  -52.9410 C.ar  205  TRP205      0.0191
     47  CZ3       -0.4210  -10.0740  -50.7010 C.ar  205  TRP205      0.0001
     48  CH2       -1.4730  -10.0030  -51.6140 C.ar  205  TRP205      0.0015
     49  N          5.8540   -7.2170  -49.0400 N.3   208  CYS208     -0.1221
     50  CA         4.7130   -7.0920  -48.1330 C.3   208  CYS208      0.1808
     51  C          4.8010   -8.0490  -46.9330 C.2   208  CYS208      0.2601
     52  O          4.4440   -7.6840  -45.8080 O.2   208  CYS208     -0.2717
     53  CB         3.4040   -7.3290  -48.8900 C.3   208  CYS208      0.0970
     54  SG         2.9470   -5.9890  -50.0290 S.3   208  CYS208     -0.0800
     55  N          5.2660   -9.2700  -47.1820 N.am  209  ALA209     -0.1979
     56  CA         5.4350  -10.2610  -46.1230 C.3   209  ALA209      0.1597
     57  C          6.4390   -9.7840  -45.0770 C.2   209  ALA209      0.2287
     58  O          6.1830   -9.8530  -43.8740 O.2   209  ALA209     -0.2864
     59  CB         5.8790  -11.6010  -46.7110 C.3   209  ALA209      0.0319
     60  N          4.9920   -6.8310  -43.0760 N.3   212  TRP212     -0.1227
     61  CA         4.1100   -7.3530  -42.0370 C.3   212  TRP212      0.1737
     62  C          4.8890   -7.9890  -40.8950 C.2   212  TRP212      0.2596
     63  O          4.5570   -7.7860  -39.7320 O.2   212  TRP212     -0.2718
     64  CB         3.1370   -8.3700  -42.6130 C.3   212  TRP212      0.0564
     65  CG         1.9360   -7.7790  -43.2400 C.ar  212  TRP212      0.0003
     66  CD1        1.6900   -7.6410  -44.5730 C.ar  212  TRP212      0.0946
     67  CD2        0.7970   -7.2490  -42.5630 C.ar  212  TRP212      0.0152
     68  NE1        0.4630   -7.0610  -44.7710 N.ar  212  TRP212     -0.2442
     69  CE2       -0.1060   -6.8030  -43.5520 C.ar  212  TRP212      0.0810
     70  CE3        0.4510   -7.1020  -41.2170 C.ar  212  TRP212      0.0012
     71  CZ2       -1.3330   -6.2280  -43.2390 C.ar  212  TRP212      0.0191
     72  CZ3       -0.7670   -6.5270  -40.9070 C.ar  212  TRP212      0.0001
     73  CH2       -1.6450   -6.0980  -41.9160 C.ar  212  TRP212      0.0015
     74  N          5.9220   -8.7570  -41.2310 N.am  213  GLY213     -0.1957
     75  CA         6.7050   -9.4550  -40.2300 C.3   213  GLY213      0.1869
     76  C          7.4390   -8.4890  -39.3250 C.2   213  GLY213      0.2309
     77  O          7.4440   -8.6330  -38.1020 O.2   213  GLY213     -0.2863
     78  N          5.1680   -6.6940  -36.9610 N.3   216  LEU216     -0.1245
     79  CA         4.8100   -7.5370  -35.8360 C.3   216  LEU216      0.1561
     80  C          5.9200   -7.5120  -34.7890 C.2   216  LEU216      0.2260
     81  O          5.6530   -7.3210  -33.6060 O.2   216  LEU216     -0.2867
     82  CB         4.5310   -8.9670  -36.2900 C.3   216  LEU216      0.0270
     83  CG         4.2030   -9.9350  -35.1560 C.3   216  LEU216      0.0019
     84  CD1        2.9270   -9.5040  -34.4520 C.3   216  LEU216      0.0001
     85  CD2        4.0930  -11.3800  -35.6630 C.3   216  LEU216      0.0001
@<TRIPOS>BOND
     1     4     3    2
     2     3     2    1
     3     5     2    1
     4     5     6    1
     5     9     8    1
     6     2     1    1
     7    26    27    1
     8     8     7    1
     9    30    27    1
    10     7     6    1
    11    27    28    1
    12    31    28   am
    13    31    32    1
    14    28    29    2
    15    32    33    1
    16    33    34    2
    17    43    41   ar
    18    43    44   ar
    19    41    40   ar
    20    44    46   ar
    21    44    42   ar
    22    35    36    1
    23    40    39    1
    24    40    42   ar
    25    46    48   ar
    26    39    36    1
    27    42    45   ar
    28    36    37    1
    29    48    47   ar
    30    45    47   ar
    31    37    38    2
    32    54    53    1
    33    17    15   am
    34    10    11    1
    35    49    50    1
    36    53    50    1
    37    15    14    1
    38    15    16    2
    39    14    11    1
    40    50    51    1
    41    11    12    1
    42    55    51   am
    43    55    56    1
    44    12    13    2
    45    51    52    2
    46    59    56    1
    47    56    57    1
    48    57    58    2
    49    68    66   ar
    50    68    69   ar
    51    66    65   ar
    52    69    71   ar
    53    69    67   ar
    54    65    64    1
    55    65    67   ar
    56    71    73   ar
    57    60    61    1
    58    64    61    1
    59    67    70   ar
    60    61    62    1
    61    73    72   ar
    62    74    62   am
    63    74    75    1
    64    70    72   ar
    65    62    63    2
    66    75    76    1
    67    76    77    2
    68    21    20    2
    69    78    79    1
    70    20    19    1
    71    24    23    1
    72    23    25    1
    73    23    22    1
    74    82    79    1
    75    82    83    1
    76    79    80    1
    77    85    83    1
    78    19    22    1
    79    19    18    1
    80    83    84    1
    81    80    81    2
