@<TRIPOS>MOLECULE
tmp/6c1rA03.pdb
 84 77 0 0 0
SMALL
GASTEIGER

@<TRIPOS>ATOM
      1  N         -0.0400   -2.2990  -58.1540 N.3   123  ASN123     -0.1240
      2  CA        -0.7270   -1.3060  -57.3290 C.3   123  ASN123      0.1653
      3  C         -1.8410   -1.9290  -56.4850 C.2   123  ASN123      0.2266
      4  O         -2.0390   -1.5470  -55.3350 O.2   123  ASN123     -0.2867
      5  CB        -1.2920   -0.1760  -58.1960 C.3   123  ASN123      0.1155
      6  CG        -0.2150    0.7860  -58.6780 C.2   123  ASN123      0.2627
      7  OD1        0.9040    0.7850  -58.1720 O.2   123  ASN123     -0.2716
      8  ND2       -0.5530    1.6130  -59.6630 N.am  123  ASN123     -0.0877
      9  N          7.5030    3.6680  -56.2170 N.3   186  ARG186     -0.1245
     10  CA         7.2280    4.9130  -56.9450 C.3   186  ARG186      0.1563
     11  C          8.5260    5.5710  -57.3860 C.2   186  ARG186      0.2260
     12  O          8.6430    6.0360  -58.5180 O.2   186  ARG186     -0.2867
     13  CB         6.4200    5.9090  -56.1000 C.3   186  ARG186      0.0307
     14  CG         5.0250    5.4600  -55.6980 C.3   186  ARG186      0.0489
     15  CD         4.2800    4.8090  -56.8410 C.3   186  ARG186      0.2205
     16  NE         4.2730    5.6380  -58.0400 N.pl3 186  ARG186     -0.0865
     17  CZ         3.4320    5.4690  -59.0520 C.cat 186  ARG186      0.5346
     18  NH1        3.4950    6.2660  -60.1100 N.pl3 186  ARG186      0.1354
     19  NH2        2.5230    4.5030  -59.0000 N.pl3 186  ARG186      0.1354
     20  N         10.1030    3.5630  -60.3730 N.3   189  LEU189     -0.1245
     21  CA         9.3450    3.7770  -61.6090 C.3   189  LEU189      0.1561
     22  C          9.7750    5.0570  -62.3260 C.2   189  LEU189      0.2260
     23  O          9.7720    5.1210  -63.5580 O.2   189  LEU189     -0.2867
     24  CB         7.8450    3.8340  -61.3190 C.3   189  LEU189      0.0270
     25  CG         7.1400    2.5100  -61.0230 C.3   189  LEU189      0.0019
     26  CD1        5.7240    2.7530  -60.5120 C.3   189  LEU189      0.0001
     27  CD2        7.1160    1.6400  -62.2720 C.3   189  LEU189      0.0001
     28  N         10.6480   -5.7170  -61.1550 N.3   199  ARG199     -0.1245
     29  CA         9.2710   -5.5000  -60.7070 C.3   199  ARG199      0.1563
     30  C          8.2830   -6.5460  -61.2150 C.2   199  ARG199      0.2260
     31  O          7.9740   -6.6120  -62.4060 O.2   199  ARG199     -0.2867
     32  CB         8.8100   -4.1050  -61.1330 C.3   199  ARG199      0.0307
     33  CG         7.4580   -3.6690  -60.5980 C.3   199  ARG199      0.0489
     34  CD         7.1230   -2.2830  -61.1260 C.3   199  ARG199      0.2205
     35  NE         6.1150   -1.5970  -60.3280 N.pl3 199  ARG199     -0.0865
     36  CZ         4.8770   -1.3620  -60.7390 C.cat 199  ARG199      0.5346
     37  NH1        4.4900   -1.7600  -61.9430 N.pl3 199  ARG199      0.1354
     38  NH2        4.0260   -0.7280  -59.9450 N.pl3 199  ARG199      0.1354
     39  N          0.9900    9.9090  -64.9360 N.3   285  SER285     -0.1217
     40  CA         0.9650    8.9040  -63.8800 C.3   285  SER285      0.1889
     41  C          0.5300    9.5040  -62.5530 C.2   285  SER285      0.2288
     42  O          0.4350    8.7930  -61.5490 O.2   285  SER285     -0.2866
     43  CB         2.3420    8.2620  -63.7100 C.3   285  SER285      0.2089
     44  OG         3.0950    8.9670  -62.7340 O.3   285  SER285     -0.2183
     45  N         -2.0690   10.3630  -61.1100 N.3   287  LYS287     -0.1231
     46  CA        -3.2560    9.8660  -60.4110 C.3   287  LYS287      0.1693
     47  C         -2.9110    9.0140  -59.1850 C.2   287  LYS287      0.2592
     48  O         -3.2520    9.3690  -58.0560 O.2   287  LYS287     -0.2718
     49  CB        -4.1340    9.0610  -61.3670 C.3   287  LYS287      0.0285
     50  CG        -5.5150    8.7120  -60.8680 C.3   287  LYS287      0.0035
     51  CD        -6.3620    8.1940  -62.0390 C.3   287  LYS287      0.0206
     52  CE        -7.7470    7.8320  -61.5370 C.3   287  LYS287      0.1093
     53  NZ        -8.4910    9.0390  -61.1070 N.3   287  LYS287     -0.1314
     54  N         -2.2350    7.8920  -59.4120 N.am  288  THR288     -0.1953
     55  CA        -1.8070    7.0230  -58.3210 C.3   288  THR288      0.1897
     56  C         -0.8380    7.7560  -57.3920 C.2   288  THR288      0.2313
     57  O         -0.9370    7.6560  -56.1700 O.2   288  THR288     -0.2863
     58  CB        -1.1410    5.7400  -58.8540 C.3   288  THR288      0.1794
     59  OG1       -2.0570    5.0430  -59.7100 O.3   288  THR288     -0.2208
     60  CG2       -0.7310    4.8310  -57.7040 C.3   288  THR288      0.0378
     61  N         -4.6730    0.9120  -61.6230 N.3   368  GLU368     -0.1231
     62  CA        -4.0500    1.3730  -62.8600 C.3   368  GLU368      0.1699
     63  C         -2.6650    0.7510  -62.9780 C.2   368  GLU368      0.2592
     64  O         -2.0190    0.4640  -61.9680 O.2   368  GLU368     -0.2718
     65  CB        -3.9600    2.9010  -62.9030 C.3   368  GLU368      0.0402
     66  CG        -3.4480    3.4650  -64.2260 C.3   368  GLU368      0.1161
     67  CD        -3.5260    4.9820  -64.2970 C.2   368  GLU368      0.3649
     68  OE1       -4.0790    5.6290  -63.3780 O.co2 368  GLU368     -0.2457
     69  OE2       -3.0020    5.5370  -65.2710 O.co2 368  GLU368     -0.2457
     70  N         -2.2170    0.5280  -64.2090 N.am  369  GLU369     -0.1966
     71  CA        -0.9050   -0.0660  -64.4400 C.3   369  GLU369      0.1733
     72  C          0.0720    1.0030  -64.9150 C.2   369  GLU369      0.2617
     73  O         -0.3180    1.9330  -65.6240 O.2   369  GLU369     -0.2715
     74  CB        -0.9950   -1.2050  -65.4590 C.3   369  GLU369      0.0429
     75  CG        -1.5260   -0.7500  -66.8070 C.3   369  GLU369      0.1163
     76  CD        -1.6680   -1.8830  -67.8060 C.2   369  GLU369      0.3649
     77  OE1       -1.4180   -3.0600  -67.4160 O.co2 369  GLU369     -0.2457
     78  OE2       -2.0130   -1.6170  -68.9740 O.co2 369  GLU369     -0.2457
     79  N          1.3370    0.8780  -64.5190 N.am  370  SER370     -0.1950
     80  CA         2.3540    1.8440  -64.9320 C.3   370  SER370      0.1924
     81  C          3.1350    1.3660  -66.1530 C.2   370  SER370      0.2314
     82  O          3.7070    2.1730  -66.8900 O.2   370  SER370     -0.2863
     83  CB         3.3250    2.1400  -63.7880 C.3   370  SER370      0.2116
     84  OG         4.3130    3.0640  -64.2140 O.3   370  SER370     -0.2180
@<TRIPOS>BOND
     1    78    76   ar
     2    76    77   ar
     3    76    75    1
     4    82    81    2
     5    75    74    1
     6    81    80    1
     7    73    72    2
     8    74    71    1
     9    69    67   ar
    10    39    40    1
    11    80    79    1
    12    80    83    1
    13    72    79   am
    14    72    71    1
    15    71    70    1
    16    67    66    1
    17    67    68   ar
    18    66    65    1
    19    84    83    1
    20    70    63   am
    21    40    43    1
    22    40    41    1
    23    43    44    1
    24    23    22    2
    25    63    62    1
    26    63    64    2
    27    65    62    1
    28    62    61    1
    29    41    42    2
    30    31    30    2
    31    22    21    1
    32    27    25    1
    33    51    52    1
    34    51    50    1
    35    37    36    1
    36    21    24    1
    37    21    20    1
    38    52    53    1
    39    49    50    1
    40    49    46    1
    41    24    25    1
    42    30    29    1
    43    28    29    1
    44    32    29    1
    45    32    33    1
    46    34    33    1
    47    34    35    1
    48    45    46    1
    49    25    26    1
    50    36    35    2
    51    36    38    1
    52    46    47    1
    53    18    17    1
    54    59    58    1
    55     8     6   am
    56    54    47   am
    57    54    55    1
    58    47    48    2
    59    17    19    1
    60    17    16    2
    61    58    55    1
    62    58    60    1
    63     6     5    1
    64     6     7    2
    65    12    11    2
    66    55    56    1
    67     5     2    1
    68     1     2    1
    69    16    15    1
    70    56    57    2
    71    11    10    1
    72     2     3    1
    73    10     9    1
    74    10    13    1
    75    15    14    1
    76     3     4    2
    77    13    14    1
