@<TRIPOS>MOLECULE
tmp/6c1rA05.pdb
 94 89 0 0 0
SMALL
GASTEIGER

@<TRIPOS>ATOM
      1  N          0.5380   -4.5810  -59.7520 N.3   122  ILE122     -0.1245
      2  CA         1.3070   -4.2950  -58.5430 C.3   122  ILE122      0.1561
      3  C          0.5860   -3.3330  -57.5960 C.2   122  ILE122      0.2260
      4  O          0.6080   -3.5190  -56.3750 O.2   122  ILE122     -0.2867
      5  CB         2.6790   -3.6840  -58.8820 C.3   122  ILE122      0.0252
      6  CG1        3.4580   -4.6020  -59.8220 C.3   122  ILE122      0.0019
      7  CG2        3.4720   -3.3950  -57.6000 C.3   122  ILE122      0.0019
      8  CD1        3.5970   -6.0070  -59.2990 C.3   122  ILE122      0.0001
      9  N         -0.3430   -3.3540  -53.3430 N.3   126  TRP126     -0.1241
     10  CA        -0.0420   -2.3120  -52.3690 C.3   126  TRP126      0.1605
     11  C         -1.2990   -1.8660  -51.6220 C.2   126  TRP126      0.2264
     12  O         -1.3320   -1.8440  -50.3900 O.2   126  TRP126     -0.2867
     13  CB         0.5960   -1.0900  -53.0360 C.3   126  TRP126      0.0550
     14  CG         1.9010   -1.2840  -53.7700 C.ar  126  TRP126      0.0003
     15  CD1        2.2920   -0.6270  -54.9000 C.ar  126  TRP126      0.0946
     16  CD2        2.9910   -2.1540  -53.4190 C.ar  126  TRP126      0.0152
     17  NE1        3.5410   -1.0360  -55.2840 N.ar  126  TRP126     -0.2442
     18  CE2        3.9950   -1.9730  -54.3930 C.ar  126  TRP126      0.0810
     19  CE3        3.2140   -3.0750  -52.3890 C.ar  126  TRP126      0.0012
     20  CZ2        5.1940   -2.6700  -54.3660 C.ar  126  TRP126      0.0191
     21  CZ3        4.4070   -3.7640  -52.3640 C.ar  126  TRP126      0.0001
     22  CH2        5.3820   -3.5590  -53.3460 C.ar  126  TRP126      0.0015
     23  N          7.6070    0.8220  -48.7340 N.3   181  THR181     -0.1218
     24  CA         7.7910   -0.0730  -49.8730 C.3   181  THR181      0.1862
     25  C          7.1410    0.4970  -51.1230 C.2   181  THR181      0.2287
     26  O          7.7270    0.4860  -52.2070 O.2   181  THR181     -0.2866
     27  CB         7.2040   -1.4720  -49.6000 C.3   181  THR181      0.1770
     28  OG1        7.7430   -1.9890  -48.3760 O.3   181  THR181     -0.2211
     29  CG2        7.5250   -2.4100  -50.7510 C.3   181  THR181      0.0375
     30  N          9.2700    3.3160  -52.3720 N.3   184  ALA184     -0.1231
     31  CA        10.4530    2.8250  -53.0660 C.3   184  ALA184      0.1694
     32  C         10.0820    2.4280  -54.4940 C.2   184  ALA184      0.2592
     33  O         10.8130    2.7380  -55.4350 O.2   184  ALA184     -0.2718
     34  CB        11.0780    1.6530  -52.3080 C.3   184  ALA184      0.0304
     35  N          8.9340    1.7680  -54.6420 N.am  185  ASP185     -0.1974
     36  CA         8.4010    1.4040  -55.9520 C.3   185  ASP185      0.1709
     37  C          8.1470    2.6550  -56.8030 C.2   185  ASP185      0.2293
     38  O          8.5450    2.7020  -57.9680 O.2   185  ASP185     -0.2864
     39  CB         7.1110    0.5900  -55.8040 C.3   185  ASP185      0.1436
     40  CG         6.6340   -0.0040  -57.1240 C.2   185  ASP185      0.3671
     41  OD1        7.4780   -0.5220  -57.8920 O.co2 185  ASP185     -0.2456
     42  OD2        5.4140    0.0430  -57.3940 O.co2 185  ASP185     -0.2456
     43  N         11.4400    4.1490  -57.9550 N.3   188  LEU188     -0.1245
     44  CA        12.1160    3.3840  -59.0000 C.3   188  LEU188      0.1561
     45  C         11.4330    3.5290  -60.3620 C.2   188  LEU188      0.2260
     46  O         12.1050    3.6160  -61.3870 O.2   188  LEU188     -0.2867
     47  CB        12.2060    1.9050  -58.6050 C.3   188  LEU188      0.0270
     48  CG        13.0930    1.5830  -57.3950 C.3   188  LEU188      0.0019
     49  CD1       13.0860    0.0880  -57.0760 C.3   188  LEU188      0.0001
     50  CD2       14.5170    2.0840  -57.6040 C.3   188  LEU188      0.0001
     51  N         13.0600   -6.3260  -62.8560 N.3   198  PHE198     -0.1227
     52  CA        12.7290   -6.8800  -61.5430 C.3   198  PHE198      0.1736
     53  C         11.2400   -6.9090  -61.2220 C.2   198  PHE198      0.2595
     54  O         10.6630   -7.9800  -61.0190 O.2   198  PHE198     -0.2718
     55  CB        13.4440   -6.0820  -60.4540 C.3   198  PHE198      0.0547
     56  CG        14.7580   -6.6550  -60.0570 C.ar  198  PHE198     -0.0202
     57  CD1       14.8700   -8.0020  -59.7570 C.ar  198  PHE198     -0.0042
     58  CD2       15.8870   -5.8580  -59.9960 C.ar  198  PHE198     -0.0042
     59  CE1       16.0790   -8.5430  -59.3910 C.ar  198  PHE198     -0.0003
     60  CE2       17.1050   -6.3960  -59.6310 C.ar  198  PHE198     -0.0003
     61  CZ        17.1980   -7.7420  -59.3290 C.ar  198  PHE198     -0.0000
     62  N         10.6480   -5.7170  -61.1550 N.am  199  ARG199     -0.1966
     63  CA         9.2710   -5.5000  -60.7070 C.3   199  ARG199      0.1729
     64  C          8.2830   -6.5460  -61.2150 C.2   199  ARG199      0.2616
     65  O          7.9740   -6.6120  -62.4060 O.2   199  ARG199     -0.2715
     66  CB         8.8100   -4.1050  -61.1330 C.3   199  ARG199      0.0348
     67  CG         7.4580   -3.6690  -60.5980 C.3   199  ARG199      0.0492
     68  CD         7.1230   -2.2830  -61.1260 C.3   199  ARG199      0.2205
     69  NE         6.1150   -1.5970  -60.3280 N.pl3 199  ARG199     -0.0865
     70  CZ         4.8770   -1.3620  -60.7390 C.cat 199  ARG199      0.5346
     71  NH1        4.4900   -1.7600  -61.9430 N.pl3 199  ARG199      0.1354
     72  NH2        4.0260   -0.7280  -59.9450 N.pl3 199  ARG199      0.1354
     73  N          7.8090   -7.3720  -60.2900 N.am  200  GLY200     -0.1955
     74  CA         6.8160   -8.3870  -60.5810 C.3   200  GLY200      0.1869
     75  C          5.9380   -8.5650  -59.3600 C.2   200  GLY200      0.2309
     76  O          6.2320   -8.0140  -58.3000 O.2   200  GLY200     -0.2863
     77  N          7.8580  -10.3440  -56.1570 N.3   203  LEU203     -0.1231
     78  CA         8.6830   -9.5130  -55.2830 C.3   203  LEU203      0.1693
     79  C          7.8340   -8.5970  -54.4100 C.2   203  LEU203      0.2591
     80  O          8.1730   -8.3360  -53.2570 O.2   203  LEU203     -0.2718
     81  CB         9.6740   -8.6800  -56.1000 C.3   203  LEU203      0.0284
     82  CG        10.8740   -9.4610  -56.6410 C.3   203  LEU203      0.0019
     83  CD1       11.8090   -8.5640  -57.4410 C.3   203  LEU203      0.0001
     84  CD2       11.6170  -10.1220  -55.4940 C.3   203  LEU203      0.0001
     85  N          6.7310   -8.1070  -54.9630 N.am  204  ALA204     -0.1980
     86  CA         5.8400   -7.2190  -54.2250 C.3   204  ALA204      0.1597
     87  C          5.2260   -7.9430  -53.0210 C.2   204  ALA204      0.2287
     88  O          5.1330   -7.3760  -51.9330 O.2   204  ALA204     -0.2864
     89  CB         4.7510   -6.6690  -55.1460 C.3   204  ALA204      0.0319
     90  N          7.9880   -8.4230  -50.3700 N.3   207  ALA207     -0.1245
     91  CA         8.2160   -7.1720  -49.6580 C.3   207  ALA207      0.1562
     92  C          7.0910   -6.9320  -48.6410 C.2   207  ALA207      0.2260
     93  O          7.3480   -6.5260  -47.5070 O.2   207  ALA207     -0.2867
     94  CB         8.3320   -6.0140  -50.6320 C.3   207  ALA207      0.0290
@<TRIPOS>BOND
     1    51    52    1
     2    65    64    2
     3    71    70    1
     4    52    53    1
     5    52    55    1
     6    46    45    2
     7    53    62   am
     8    53    54    2
     9    64    63    1
    10    64    73   am
    11    62    63    1
    12    66    63    1
    13    66    67    1
    14    68    67    1
    15    68    69    1
    16    70    69    2
    17    70    72    1
    18    74    73    1
    19    74    75    1
    20    55    56    1
    21    45    44    1
    22    56    58   ar
    23    56    57   ar
    24    58    60   ar
    25     6     8    1
    26     6     5    1
    27    57    59   ar
    28     1     2    1
    29    60    61   ar
    30    59    61   ar
    31    75    76    2
    32    44    47    1
    33    44    43    1
    34     5     2    1
    35     5     7    1
    36    47    48    1
    37     2     3    1
    38    38    37    2
    39    41    40   ar
    40    50    48    1
    41     3     4    2
    42    83    82    1
    43    48    49    1
    44    42    40   ar
    45    40    39    1
    46    37    36    1
    47    82    81    1
    48    82    84    1
    49    77    78    1
    50    81    78    1
    51    36    39    1
    52    36    35    1
    53    33    32    2
    54    17    15   ar
    55    17    18   ar
    56    78    79    1
    57    89    86    1
    58    85    79   am
    59    85    86    1
    60    15    14   ar
    61    35    32   am
    62    32    31    1
    63    79    80    2
    64    18    20   ar
    65    18    16   ar
    66    20    22   ar
    67    86    87    1
    68    14    16   ar
    69    14    13    1
    70    16    19   ar
    71    22    21   ar
    72     9    10    1
    73    31    30    1
    74    31    34    1
    75    13    10    1
    76    87    88    2
    77    19    21   ar
    78    10    11    1
    79    26    25    2
    80    11    12    2
    81    25    24    1
    82    29    27    1
    83    94    91    1
    84    90    91    1
    85    24    27    1
    86    24    23    1
    87    91    92    1
    88    27    28    1
    89    92    93    2
