@<TRIPOS>MOLECULE
tmp/6c1sA00.pdb
 215 203 0 0 0
SMALL
GASTEIGER

@<TRIPOS>ATOM
      1  N         20.0480   63.9600   12.7310 N.3   555  MET555     -0.1245
      2  CA        20.4380   64.8460   13.8300 C.3   555  MET555      0.1570
      3  C         21.3390   65.9730   13.3270 C.2   555  MET555      0.2261
      4  O         22.2060   65.7390   12.4820 O.2   555  MET555     -0.2867
      5  CB        21.0920   64.0620   14.9640 C.3   555  MET555      0.0387
      6  CG        20.1250   63.1330   15.6670 C.3   555  MET555      0.0595
      7  SD        20.9650   62.0340   16.8140 S.3   555  MET555     -0.1393
      8  CE        20.9600   63.0320   18.2890 C.3   555  MET555      0.0692
      9  N         24.0070   67.3910   13.8220 N.3   557  SER557     -0.1217
     10  CA        25.4060   67.2250   14.2270 C.3   557  SER557      0.1889
     11  C         26.2000   67.1660   12.9320 C.2   557  SER557      0.2288
     12  O         25.6230   66.8090   11.8990 O.2   557  SER557     -0.2866
     13  CB        25.5740   65.9320   15.0210 C.3   557  SER557      0.2089
     14  OG        26.9070   65.4440   15.0290 O.3   557  SER557     -0.2183
     15  N         24.2370   62.0050   12.3690 N.3   561  PRO561     -0.2116
     16  CA        23.6800   60.7110   12.7720 C.3   561  PRO561      0.1372
     17  C         22.1600   60.6070   12.5570 C.2   561  PRO561      0.2244
     18  O         21.4360   61.6150   12.4690 O.2   561  PRO561     -0.2868
     19  CB        24.0790   60.5860   14.2460 C.3   561  PRO561      0.0268
     20  CG        24.2460   61.9630   14.7320 C.3   561  PRO561      0.0207
     21  CD        24.5400   62.8480   13.5470 C.3   561  PRO561      0.0892
     22  N         18.4800   59.6390   13.7250 N.3   563  TRP563     -0.1241
     23  CA        17.5750   59.4820   14.8710 C.3   563  TRP563      0.1605
     24  C         16.4870   58.5380   14.3580 C.2   563  TRP563      0.2264
     25  O         15.6790   58.9320   13.5170 O.2   563  TRP563     -0.2867
     26  CB        16.9800   60.8460   15.3100 C.3   563  TRP563      0.0550
     27  CG        15.9240   60.7810   16.3820 C.ar  563  TRP563      0.0003
     28  CD1       14.6250   60.3840   16.2310 C.ar  563  TRP563      0.0946
     29  CD2       16.0530   61.2200   17.7470 C.ar  563  TRP563      0.0152
     30  NE1       13.9560   60.4900   17.4260 N.ar  563  TRP563     -0.2442
     31  CE2       14.7940   61.0400   18.3640 C.ar  563  TRP563      0.0810
     32  CE3       17.1060   61.7690   18.5040 C.ar  563  TRP563      0.0012
     33  CZ2       14.5560   61.3910   19.7020 C.ar  563  TRP563      0.0191
     34  CZ3       16.8700   62.1210   19.8270 C.ar  563  TRP563      0.0001
     35  CH2       15.6100   61.9240   20.4170 C.ar  563  TRP563      0.0015
     36  N         13.3500   55.6900   15.0620 N.3   565  GLU565     -0.1245
     37  CA        12.3210   55.2840   16.0080 C.3   565  GLU565      0.1567
     38  C         11.5710   54.0760   15.4640 C.2   565  GLU565      0.2260
     39  O         11.1330   54.0830   14.3190 O.2   565  GLU565     -0.2867
     40  CB        11.4240   56.4580   16.3990 C.3   565  GLU565      0.0388
     41  CG        12.0740   57.3520   17.4450 C.3   565  GLU565      0.1160
     42  CD        11.2840   58.5870   17.8320 C.2   565  GLU565      0.3649
     43  OE1       11.3550   59.5870   17.0850 O.co2 565  GLU565     -0.2457
     44  OE2       10.6380   58.5800   18.9030 O.co2 565  GLU565     -0.2457
     45  N         19.9440   55.8930   17.9820 N.3   582  ILE582     -0.1245
     46  CA        20.8130   56.8200   17.2590 C.3   582  ILE582      0.1561
     47  C         21.7580   55.9170   16.4850 C.2   582  ILE582      0.2260
     48  O         22.4590   55.0990   17.0910 O.2   582  ILE582     -0.2867
     49  CB        21.6210   57.7910   18.1780 C.3   582  ILE582      0.0252
     50  CG1       20.7020   58.8540   18.8250 C.3   582  ILE582      0.0019
     51  CG2       22.7820   58.4670   17.3910 C.3   582  ILE582      0.0019
     52  CD1       21.2970   59.4860   20.0800 C.3   582  ILE582      0.0001
     53  N         24.9490   56.1950   14.4140 N.3   584  LYS584     -0.1245
     54  CA        26.0230   57.1560   14.1200 C.3   584  LYS584      0.1561
     55  C         27.1980   56.5620   13.3190 C.2   584  LYS584      0.2260
     56  O         27.6430   55.4460   13.6060 O.2   584  LYS584     -0.2867
     57  CB        26.5220   57.8170   15.4290 C.3   584  LYS584      0.0271
     58  CG        27.3400   59.0930   15.2190 C.3   584  LYS584      0.0035
     59  CD        28.1230   59.5120   16.4550 C.3   584  LYS584      0.0206
     60  CE        29.0100   60.6920   16.1560 C.3   584  LYS584      0.1093
     61  NZ        29.5820   61.3020   17.3840 N.3   584  LYS584     -0.1314
     62  N         32.5450   57.9900   14.0830 N.3   587  ASP587     -0.1239
     63  CA        33.1310   57.7800   15.4100 C.3   587  ASP587      0.1674
     64  C         33.4160   56.2850   15.6210 C.2   587  ASP587      0.2266
     65  O         32.6070   55.4300   15.2500 O.2   587  ASP587     -0.2867
     66  CB        32.1480   58.2510   16.5170 C.3   587  ASP587      0.1410
     67  CG        32.2910   59.6580   17.0880 C.2   587  ASP587      0.3668
     68  OD1       32.6970   60.5750   16.3290 O.co2 587  ASP587     -0.2456
     69  OD2       31.8750   59.8700   18.2610 O.co2 587  ASP587     -0.2456
     70  N         33.2090   53.8270   18.2930 N.3   589  LEU589     -0.1245
     71  CA        32.4430   53.7820   19.5540 C.3   589  LEU589      0.1561
     72  C         33.0270   52.9060   20.6510 C.2   589  LEU589      0.2260
     73  O         32.4850   52.9050   21.7410 O.2   589  LEU589     -0.2867
     74  CB        30.9740   53.3890   19.2840 C.3   589  LEU589      0.0270
     75  CG        30.2060   54.2340   18.2240 C.3   589  LEU589      0.0019
     76  CD1       28.7910   53.8330   18.1620 C.3   589  LEU589      0.0001
     77  CD2       30.2800   55.7410   18.4960 C.3   589  LEU589      0.0001
     78  N         33.7690   54.8130   23.8340 N.3   592  ASP592     -0.1239
     79  CA        32.4940   55.0990   24.4880 C.3   592  ASP592      0.1674
     80  C         31.9950   53.9120   25.2710 C.2   592  ASP592      0.2266
     81  O         31.6290   54.0660   26.4360 O.2   592  ASP592     -0.2867
     82  CB        31.4540   55.5210   23.4540 C.3   592  ASP592      0.1410
     83  CG        31.7900   56.8340   22.8000 C.2   592  ASP592      0.3668
     84  OD1       31.4030   57.8770   23.3520 O.co2 592  ASP592     -0.2456
     85  OD2       32.4520   56.8160   21.7440 O.co2 592  ASP592     -0.2456
     86  N         23.8100   54.5640   29.3750 N.3   618  TYR618     -0.1241
     87  CA        22.9120   54.2710   28.2440 C.3   618  TYR618      0.1605
     88  C         23.5160   53.2070   27.3130 C.2   618  TYR618      0.2264
     89  O         24.7330   53.0170   27.3190 O.2   618  TYR618     -0.2867
     90  CB        22.5480   55.5850   27.4830 C.3   618  TYR618      0.0534
     91  CG        23.7600   56.3590   27.0070 C.ar  618  TYR618     -0.0201
     92  CD1       24.3830   56.0460   25.7970 C.ar  618  TYR618     -0.0009
     93  CD2       24.3110   57.3790   27.7820 C.ar  618  TYR618     -0.0009
     94  CE1       25.5440   56.7000   25.3900 C.ar  618  TYR618      0.0417
     95  CE2       25.4830   58.0290   27.3920 C.ar  618  TYR618      0.0417
     96  CZ        26.0910   57.6890   26.1920 C.ar  618  TYR618      0.1957
     97  OH        27.2170   58.3500   25.7690 O.3   618  TYR618     -0.2866
     98  N         25.1280   51.5200   24.1740 N.3   620  CYS620     -0.1235
     99  CA        26.0340   52.0050   23.1520 C.3   620  CYS620      0.1677
    100  C         26.8280   50.8260   22.6790 C.2   620  CYS620      0.2270
    101  O         27.6040   50.2830   23.4530 O.2   620  CYS620     -0.2867
    102  CB        26.9400   53.1020   23.7060 C.3   620  CYS620      0.0956
    103  SG        28.2000   53.7000   22.5430 S.3   620  CYS620     -0.0801
    104  N         23.3020   53.7170   19.4120 N.3   630  ILE630     -0.1231
    105  CA        23.2200   54.4240   20.6820 C.3   630  ILE630      0.1692
    106  C         21.7650   54.4960   21.1300 C.2   630  ILE630      0.2592
    107  O         20.8800   54.8510   20.3540 O.2   630  ILE630     -0.2718
    108  CB        23.9170   55.8230   20.6020 C.3   630  ILE630      0.0266
    109  CG1       25.3770   55.7020   20.0710 C.3   630  ILE630      0.0019
    110  CG2       23.8920   56.5140   21.9540 C.3   630  ILE630      0.0020
    111  CD1       25.9160   56.8760   19.2830 C.3   630  ILE630      0.0001
    112  N         21.5220   54.1500   22.3930 N.am  631  GLU631     -0.1966
    113  CA        20.2070   54.2200   23.0050 C.3   631  GLU631      0.1733
    114  C         19.7960   55.6880   23.2030 C.2   631  GLU631      0.2616
    115  O         20.5850   56.4930   23.7110 O.2   631  GLU631     -0.2715
    116  CB        20.2500   53.5360   24.3650 C.3   631  GLU631      0.0429
    117  CG        18.8790   53.3380   25.0000 C.3   631  GLU631      0.1163
    118  CD        18.8560   53.1580   26.5060 C.2   631  GLU631      0.3649
    119  OE1       19.8850   52.7480   27.0900 O.co2 631  GLU631     -0.2457
    120  OE2       17.7990   53.4530   27.1070 O.co2 631  GLU631     -0.2457
    121  N         18.5590   56.0160   22.7810 N.am  632  ILE632     -0.1963
    122  CA        17.8730   57.2810   23.0040 C.3   632  ILE632      0.1727
    123  C         17.1090   57.0740   24.3340 C.2   632  ILE632      0.2616
    124  O         16.2390   56.1970   24.4400 O.2   632  ILE632     -0.2715
    125  CB        16.8730   57.6470   21.8620 C.3   632  ILE632      0.0290
    126  CG1       17.5820   58.0490   20.5630 C.3   632  ILE632      0.0022
    127  CG2       15.8620   58.7410   22.3260 C.3   632  ILE632      0.0023
    128  CD1       16.6650   58.0870   19.3570 C.3   632  ILE632      0.0001
    129  N         17.4620   57.8780   25.3350 N.am  633  VAL633     -0.1963
    130  CA        16.8320   57.9090   26.6430 C.3   633  VAL633      0.1727
    131  C         15.5870   58.7720   26.4990 C.2   633  VAL633      0.2616
    132  O         15.6780   59.9590   26.1820 O.2   633  VAL633     -0.2715
    133  CB        17.8090   58.3920   27.7450 C.3   633  VAL633      0.0290
    134  CG1       17.0790   58.7060   29.0580 C.3   633  VAL633      0.0023
    135  CG2       18.9270   57.3600   27.9650 C.3   633  VAL633      0.0023
    136  N         14.4240   58.1320   26.6420 N.am  634  LYS634     -0.1963
    137  CA        13.1060   58.7430   26.5020 C.3   634  LYS634      0.1728
    138  C         12.8780   59.7930   27.6270 C.2   634  LYS634      0.2616
    139  O         13.3620   59.5990   28.7480 O.2   634  LYS634     -0.2715
    140  CB        11.9940   57.6560   26.4700 C.3   634  LYS634      0.0311
    141  CG        12.2310   56.4210   25.5550 C.3   634  LYS634      0.0038
    142  CD        12.5720   56.7140   24.0560 C.3   634  LYS634      0.0206
    143  CE        11.4170   57.1960   23.1870 C.3   634  LYS634      0.1093
    144  NZ        11.8760   57.5960   21.8190 N.3   634  LYS634     -0.1314
    145  N         12.2160   60.9240   27.2960 N.am  635  ASP635     -0.1957
    146  CA        11.9170   62.0340   28.2240 C.3   635  ASP635      0.1840
    147  C         13.1960   62.7330   28.7790 C.2   635  ASP635      0.2622
    148  O         13.2550   63.0820   29.9690 O.2   635  ASP635     -0.2715
    149  CB        10.9490   61.5970   29.3680 C.3   635  ASP635      0.1450
    150  CG         9.7370   60.7950   28.9060 C.2   635  ASP635      0.3671
    151  OD1        8.9170   61.3460   28.1280 O.co2 635  ASP635     -0.2456
    152  OD2        9.6290   59.6020   29.2900 O.co2 635  ASP635     -0.2456
    153  N         14.2010   62.9510   27.8960 N.am  636  ALA636     -0.1963
    154  CA        15.4680   63.6090   28.2370 C.3   636  ALA636      0.1728
    155  C         15.8090   64.8210   27.3190 C.2   636  ALA636      0.2617
    156  O         15.4380   64.8390   26.1440 O.2   636  ALA636     -0.2715
    157  CB        16.6040   62.5920   28.2270 C.3   636  ALA636      0.0334
    158  N         16.5160   65.8290   27.8680 N.am  637  THR637     -0.1937
    159  CA        16.9830   67.0040   27.1200 C.3   637  THR637      0.2028
    160  C         18.4030   67.4180   27.5700 C.2   637  THR637      0.2642
    161  O         18.8080   67.0820   28.6880 O.2   637  THR637     -0.2714
    162  CB        15.9610   68.1490   27.1560 C.3   637  THR637      0.1808
    163  OG1       16.2200   69.0240   26.0560 O.3   637  THR637     -0.2208
    164  CG2       16.0110   68.9360   28.4400 C.3   637  THR637      0.0379
    165  N         19.1550   68.1340   26.7030 N.am  638  THR638     -0.1950
    166  CA        20.5070   68.5990   27.0530 C.3   638  THR638      0.1897
    167  C         20.4140   69.8110   27.9710 C.2   638  THR638      0.2313
    168  O         19.4030   70.5190   27.9380 O.2   638  THR638     -0.2863
    169  CB        21.3170   68.9560   25.8120 C.3   638  THR638      0.1794
    170  OG1       20.6730   70.0340   25.1480 O.3   638  THR638     -0.2208
    171  CG2       21.5160   67.7680   24.8630 C.3   638  THR638      0.0378
    172  N         20.0540   73.0380   25.9010 N.3   641  LYS641     -0.1245
    173  CA        18.7230   73.3680   25.3660 C.3   641  LYS641      0.1561
    174  C         17.8950   74.1390   26.3820 C.2   641  LYS641      0.2260
    175  O         17.2080   75.0980   26.0100 O.2   641  LYS641     -0.2867
    176  CB        17.9820   72.1330   24.8410 C.3   641  LYS641      0.0271
    177  CG        18.3530   71.8290   23.4010 C.3   641  LYS641      0.0035
    178  CD        17.6010   70.6340   22.8260 C.3   641  LYS641      0.0206
    179  CE        18.3660   69.9790   21.6930 C.3   641  LYS641      0.1093
    180  NZ        19.6570   69.3780   22.1550 N.3   641  LYS641     -0.1314
    181  N         23.1460   65.7670   29.7790 N.3   702  MET702     -0.1245
    182  CA        21.7000   65.6420   29.6930 C.3   702  MET702      0.1570
    183  C         21.0620   65.4380   31.0430 C.2   702  MET702      0.2261
    184  O         21.7450   65.0740   32.0020 O.2   702  MET702     -0.2867
    185  CB        21.3330   64.4680   28.7830 C.3   702  MET702      0.0387
    186  CG        21.6490   64.6950   27.3280 C.3   702  MET702      0.0595
    187  SD        20.7370   63.5170   26.3310 S.3   702  MET702     -0.1393
    188  CE        19.4390   64.5300   25.8130 C.3   702  MET702      0.0692
    189  N         22.9940   63.0060   33.3710 N.3   710  PHE710     -0.1241
    190  CA        23.8750   62.0380   32.7280 C.3   710  PHE710      0.1605
    191  C         24.6830   62.6520   31.6200 C.2   710  PHE710      0.2264
    192  O         24.1340   63.3740   30.7860 O.2   710  PHE710     -0.2867
    193  CB        23.1420   60.7630   32.2600 C.3   710  PHE710      0.0534
    194  CG        22.1060   60.9390   31.1750 C.ar  710  PHE710     -0.0203
    195  CD1       22.3560   60.5140   29.8800 C.ar  710  PHE710     -0.0042
    196  CD2       20.8600   61.4960   31.4590 C.ar  710  PHE710     -0.0042
    197  CE1       21.3870   60.6710   28.8740 C.ar  710  PHE710     -0.0003
    198  CE2       19.8910   61.6530   30.4520 C.ar  710  PHE710     -0.0003
    199  CZ        20.1540   61.2230   29.1720 C.ar  710  PHE710     -0.0000
    200  N         27.0220   62.4520   28.1760 N.3   712  ILE712     -0.1231
    201  CA        26.9410   61.6870   26.9360 C.3   712  ILE712      0.1692
    202  C         28.1930   62.0060   26.0820 C.2   712  ILE712      0.2592
    203  O         28.9500   62.9380   26.3970 O.2   712  ILE712     -0.2718
    204  CB        25.5900   61.9390   26.1600 C.3   712  ILE712      0.0266
    205  CG1       25.4520   63.4000   25.6430 C.3   712  ILE712      0.0019
    206  CG2       24.3510   61.5170   26.9560 C.3   712  ILE712      0.0020
    207  CD1       24.5670   63.5780   24.4100 C.3   712  ILE712      0.0001
    208  N         28.3880   61.2380   25.0020 N.am  713  ASP713     -0.1974
    209  CA        29.4550   61.3750   24.0050 C.3   713  ASP713      0.1709
    210  C         30.8870   61.5160   24.6000 C.2   713  ASP713      0.2293
    211  O         31.4370   62.6120   24.6990 O.2   713  ASP713     -0.2864
    212  CB        29.1220   62.5160   23.0370 C.3   713  ASP713      0.1436
    213  CG        29.8470   62.4690   21.7140 C.2   713  ASP713      0.3671
    214  OD1       30.7850   61.6370   21.5730 O.co2 713  ASP713     -0.2456
    215  OD2       29.4850   63.2700   20.8110 O.co2 713  ASP713     -0.2456
@<TRIPOS>BOND
     1    12    11    2
     2    15    16    1
     3    15    21    1
     4    18    17    2
     5     4     3    2
     6    17    16    1
     7     1     2    1
     8    16    19    1
     9    11    10    1
    10    55    56    2
    11    55    54    1
    12     3     2    1
    13    25    24    2
    14    21    20    1
    15    22    23    1
    16     9    10    1
    17     2     5    1
    18    62    63    1
    19    54    53    1
    20    54    57    1
    21    10    13    1
    22    19    20    1
    23    39    38    2
    24    24    23    1
    25    23    26    1
    26     5     6    1
    27    13    14    1
    28    36    37    1
    29    58    57    1
    30    58    59    1
    31    65    64    2
    32    26    27    1
    33    63    64    1
    34    63    66    1
    35    38    37    1
    36     6     7    1
    37    37    40    1
    38    60    59    1
    39    60    61    1
    40    28    27   ar
    41    28    30   ar
    42    68    67   ar
    43    27    29   ar
    44    40    41    1
    45    47    48    2
    46    47    46    1
    47    66    67    1
    48     7     8    1
    49    43    42   ar
    50    67    69   ar
    51    46    45    1
    52    46    49    1
    53    51    49    1
    54    30    31   ar
    55    41    42    1
    56    29    31   ar
    57    29    32   ar
    58    42    44   ar
    59    76    75    1
    60    49    50    1
    61    75    77    1
    62    75    74    1
    63    70    71    1
    64    31    33   ar
    65    32    34   ar
    66    50    52    1
    67   111   109    1
    68    74    71    1
    69   128   126    1
    70   104   105    1
    71    71    72    1
    72    33    35   ar
    73    34    35   ar
    74   109   108    1
    75   107   106    2
    76   126   125    1
    77   108   105    1
    78   108   110    1
    79    72    73    2
    80   105   106    1
    81   215   213   ar
    82   106   112   am
    83   214   213   ar
    84   179   180    1
    85   179   178    1
    86   213   212    1
    87    85    83   ar
    88   144   143    1
    89   125   127    1
    90   125   122    1
    91   112   113    1
    92   103   102    1
    93   100    99    1
    94   100   101    2
    95   121   122    1
    96   121   114   am
    97    83    84   ar
    98    83    82    1
    99   178   177    1
   100   122   123    1
   101   113   114    1
   102   113   116    1
   103   212   209    1
   104    99   102    1
   105    99    98    1
   106   143   142    1
   107   114   115    2
   108   177   176    1
   109    82    79    1
   110    78    79    1
   111   209   210    1
   112   209   208    1
   113   142   141    1
   114   123   124    2
   115   123   129   am
   116   116   117    1
   117   207   205    1
   118    79    80    1
   119   210   211    2
   120   176   173    1
   121   171   169    1
   122   117   118    1
   123   208   202   am
   124   170   169    1
   125    80    81    2
   126   129   130    1
   127   173   172    1
   128   173   174    1
   129    94    92   ar
   130    94    96   ar
   131   141   140    1
   132   205   204    1
   133    97    96    1
   134    92    91   ar
   135   169   166    1
   136   188   187    1
   137   175   174    2
   138   163   162    1
   139   202   203    2
   140   202   201    1
   141   156   155    2
   142   204   201    1
   143   204   206    1
   144   132   131    2
   145    96    95   ar
   146   187   186    1
   147   140   137    1
   148   131   136   am
   149   131   130    1
   150   137   136    1
   151   137   138    1
   152   118   119   ar
   153   118   120   ar
   154   130   133    1
   155   165   166    1
   156   165   160   am
   157   201   200    1
   158    91    90    1
   159    91    93   ar
   160   166   167    1
   161   159   162    1
   162   159   160    1
   163   159   158    1
   164   162   164    1
   165   145   138   am
   166   145   146    1
   167    88    89    2
   168    88    87    1
   169   155   158   am
   170   155   154    1
   171   186   185    1
   172    95    93   ar
   173    90    87    1
   174   160   161    2
   175   138   139    2
   176   133   135    1
   177   133   134    1
   178   153   154    1
   179   153   147   am
   180   168   167    2
   181   151   150   ar
   182   146   147    1
   183   146   149    1
   184   157   154    1
   185    87    86    1
   186   147   148    2
   187   185   182    1
   188   197   199   ar
   189   197   195   ar
   190   150   152   ar
   191   150   149    1
   192   199   198   ar
   193   182   181    1
   194   182   183    1
   195   195   194   ar
   196   198   196   ar
   197   192   191    2
   198   183   184    2
   199   194   196   ar
   200   194   193    1
   201   191   190    1
   202   193   190    1
   203   190   189    1
