@<TRIPOS>MOLECULE
tmp/6c25A00.pdb
 138 131 0 0 0
SMALL
GASTEIGER

@<TRIPOS>ATOM
      1  N        -29.4900   21.2620  -18.0400 N.3    14  ASP14      -0.1239
      2  CA       -28.8460   22.4900  -17.5940 C.3    14  ASP14       0.1674
      3  C        -29.0730   22.7600  -16.1050 C.2    14  ASP14       0.2266
      4  O        -29.0420   23.9150  -15.6740 O.2    14  ASP14      -0.2867
      5  CB       -29.3260   23.6780  -18.4330 C.3    14  ASP14       0.1410
      6  CG       -28.9820   23.5200  -19.8890 C.2    14  ASP14       0.3668
      7  OD1      -27.7730   23.4450  -20.1770 O.co2  14  ASP14      -0.2456
      8  OD2      -29.9110   23.4530  -20.7310 O.co2  14  ASP14      -0.2456
      9  N        -27.1950   22.1640  -13.5690 N.3    16  GLY16      -0.1210
     10  CA       -26.0020   22.4470  -12.7810 C.3    16  GLY16       0.1956
     11  C        -25.3970   21.2060  -12.1770 C.2    16  GLY16       0.2612
     12  O        -24.7860   21.2740  -11.1070 O.2    16  GLY16      -0.2717
     13  N        -25.5720   20.0600  -12.8340 N.am   17  LYS17      -0.1965
     14  CA       -25.1800   18.7690  -12.2740 C.3    17  LYS17       0.1728
     15  C        -23.6580   18.5920  -12.2200 C.2    17  LYS17       0.2617
     16  O        -23.1560   17.8790  -11.3500 O.2    17  LYS17      -0.2715
     17  CB       -25.8150   17.6660  -13.1210 C.3    17  LYS17       0.0311
     18  CG       -25.3040   16.2500  -12.8670 C.3    17  LYS17       0.0038
     19  CD       -26.1180   15.2140  -13.6550 C.3    17  LYS17       0.0206
     20  CE       -26.0490   15.4540  -15.1620 C.3    17  LYS17       0.1093
     21  NZ       -24.8050   14.8840  -15.7800 N.3    17  LYS17      -0.1314
     22  N        -22.9190   19.2360  -13.1250 N.am   18  GLY18      -0.1940
     23  CA       -21.4960   18.9530  -13.2600 C.3    18  GLY18       0.2014
     24  C        -20.7090   19.1520  -11.9750 C.2    18  GLY18       0.2638
     25  O        -19.9620   18.2680  -11.5380 O.2    18  GLY18      -0.2714
     26  N        -20.8500   20.3190  -11.3560 N.am   19  LYS19      -0.1977
     27  CA       -20.0360   20.5840  -10.1780 C.3    19  LYS19       0.1596
     28  C        -20.5160   19.7850   -8.9760 C.2    19  LYS19       0.2287
     29  O        -19.7290   19.5460   -8.0520 O.2    19  LYS19      -0.2864
     30  CB       -20.0290   22.0790   -9.8520 C.3    19  LYS19       0.0298
     31  CG       -21.4270   22.6610   -9.6170 C.3    19  LYS19       0.0038
     32  CD       -21.3680   23.9160   -8.7190 C.3    19  LYS19       0.0206
     33  CE       -21.5950   23.5580   -7.2350 C.3    19  LYS19       0.1093
     34  NZ       -21.6250   24.8000   -6.3680 N.3    19  LYS19      -0.1314
     35  N        -21.2730   17.7350  -22.8570 N.3    41  GLY41      -0.1210
     36  CA       -19.9620   17.7790  -22.2480 C.3    41  GLY41       0.1956
     37  C        -19.9660   18.4320  -20.8680 C.2    41  GLY41       0.2612
     38  O        -20.9420   19.0430  -20.4400 O.2    41  GLY41      -0.2717
     39  N        -18.8380   18.2780  -20.1700 N.am   42  HIS42      -0.1961
     40  CA       -18.6170   18.8890  -18.8620 C.3    42  HIS42       0.1787
     41  C        -17.2300   19.5180  -18.8270 C.2    42  HIS42       0.2620
     42  O        -16.2280   18.8280  -19.0400 O.2    42  HIS42      -0.2715
     43  CB       -18.7640   17.8660  -17.7300 C.3    42  HIS42       0.0785
     44  CG       -18.3620   18.3970  -16.3880 C.ar   42  HIS42       0.0821
     45  ND1      -18.9360   19.5210  -15.8290 N.ar   42  HIS42      -0.2267
     46  CD2      -17.4290   17.9740  -15.5020 C.ar   42  HIS42       0.1154
     47  CE1      -18.3820   19.7600  -14.6550 C.ar   42  HIS42       0.1986
     48  NE2      -17.4630   18.8380  -14.4330 N.ar   42  HIS42      -0.2212
     49  N        -17.1680   20.8150  -18.5430 N.am   43  THR43      -0.1951
     50  CA       -15.9020   21.5360  -18.5160 C.3    43  THR43       0.1897
     51  C        -15.3370   21.5490  -17.1030 C.2    43  THR43       0.2313
     52  O        -16.0720   21.7870  -16.1390 O.2    43  THR43      -0.2863
     53  CB       -16.0970   22.9720  -19.0070 C.3    43  THR43       0.1794
     54  OG1      -16.7050   22.9560  -20.3030 O.3    43  THR43      -0.2208
     55  CG2      -14.7670   23.6990  -19.0800 C.3    43  THR43       0.0378
     56  N        -28.4750   36.5320  -15.2250 N.3   257  ARG257     -0.1231
     57  CA       -27.7850   36.1780  -13.9890 C.3   257  ARG257      0.1694
     58  C        -27.3980   34.7170  -13.9770 C.2   257  ARG257      0.2593
     59  O        -26.3780   34.3520  -13.3910 O.2   257  ARG257     -0.2718
     60  CB       -28.6550   36.5180  -12.7770 C.3   257  ARG257      0.0321
     61  CG       -28.8190   38.0210  -12.5350 C.3   257  ARG257      0.0489
     62  CD       -29.7410   38.3040  -11.3250 C.3   257  ARG257      0.2205
     63  NE       -29.2910   37.6520  -10.0810 N.pl3 257  ARG257     -0.0865
     64  CZ       -28.3310   38.1400   -9.3010 C.cat 257  ARG257      0.5346
     65  NH1      -27.7210   39.2660   -9.6500 N.pl3 257  ARG257      0.1354
     66  NH2      -27.9660   37.5120   -8.1870 N.pl3 257  ARG257      0.1354
     67  N        -28.1840   33.8680  -14.6290 N.am  258  GLY258     -0.1942
     68  CA       -27.8490   32.4660  -14.6800 C.3   258  GLY258      0.2014
     69  C        -27.0500   32.0620  -15.8980 C.2   258  GLY258      0.2638
     70  O        -26.7970   30.8640  -16.0820 O.2   258  GLY258     -0.2714
     71  N        -26.6340   33.0250  -16.7220 N.am  259  GLN259     -0.1977
     72  CA       -25.8450   32.7340  -17.9160 C.3   259  GLN259      0.1601
     73  C        -26.5040   31.6340  -18.7400 C.2   259  GLN259      0.2287
     74  O        -25.8480   30.6940  -19.2000 O.2   259  GLN259     -0.2864
     75  CB       -24.4050   32.3530  -17.5400 C.3   259  GLN259      0.0394
     76  CG       -23.6160   33.4870  -16.8600 C.3   259  GLN259      0.0908
     77  CD       -22.1140   33.2080  -16.8770 C.2   259  GLN259      0.2608
     78  OE1      -21.6660   32.0920  -16.6040 O.2   259  GLN259     -0.2717
     79  NE2      -21.3480   34.2020  -17.2370 N.am  259  GLN259     -0.0878
     80  N        -31.5070   30.4230  -23.5130 N.3   269  ARG269     -0.1245
     81  CA       -32.4970   29.4160  -23.1530 C.3   269  ARG269      0.1563
     82  C        -33.7940   30.0730  -22.6890 C.2   269  ARG269      0.2260
     83  O        -33.8080   31.2070  -22.1930 O.2   269  ARG269     -0.2867
     84  CB       -31.9590   28.5080  -22.0470 C.3   269  ARG269      0.0307
     85  CG       -30.7110   27.7730  -22.4410 C.3   269  ARG269      0.0489
     86  CD       -30.1490   26.9070  -21.3030 C.3   269  ARG269      0.2205
     87  NE       -28.8180   26.4570  -21.6930 N.pl3 269  ARG269     -0.0865
     88  CZ       -27.7150   26.5750  -20.9690 C.cat 269  ARG269      0.5346
     89  NH1      -26.5670   26.1360  -21.4630 N.pl3 269  ARG269      0.1354
     90  NH2      -27.7500   27.0900  -19.7510 N.pl3 269  ARG269      0.1354
     91  N        -30.0990   24.0990   -7.1180 N.3   294  THR294     -0.1203
     92  CA       -28.9510   24.7990   -7.6590 C.3   294  THR294      0.1994
     93  C        -29.3350   26.2050   -8.1060 C.2   294  THR294      0.2617
     94  O        -30.5090   26.5010   -8.3520 O.2   294  THR294     -0.2717
     95  CB       -28.3630   24.0480   -8.8570 C.3   294  THR294      0.1784
     96  OG1      -29.3160   24.0890   -9.9170 O.3   294  THR294     -0.2211
     97  CG2      -28.0570   22.5780   -8.4920 C.3   294  THR294      0.0376
     98  N        -28.3160   27.0670   -8.2090 N.am  295  LYS295     -0.1979
     99  CA       -28.4620   28.4350   -8.7500 C.3   295  LYS295      0.1596
    100  C        -29.4340   29.2730   -7.9250 C.2   295  LYS295      0.2287
    101  O        -30.1280   30.1560   -8.4550 O.2   295  LYS295     -0.2864
    102  CB       -28.9000   28.4310  -10.2310 C.3   295  LYS295      0.0298
    103  CG       -27.9810   27.6080  -11.1830 C.3   295  LYS295      0.0038
    104  CD       -27.7810   28.3150  -12.5390 C.3   295  LYS295      0.0206
    105  CE       -27.2330   27.3410  -13.5980 C.3   295  LYS295      0.1093
    106  NZ       -27.0330   28.0310  -14.9000 N.3   295  LYS295     -0.1314
    107  N        -28.6100   31.5950   -6.0360 N.3   297  ASP297     -0.1225
    108  CA       -28.0950   32.9570   -6.1290 C.3   297  ASP297      0.1805
    109  C        -28.6360   33.7240   -7.3250 C.2   297  ASP297      0.2597
    110  O        -28.6280   34.9590   -7.2970 O.2   297  ASP297     -0.2718
    111  CB       -26.5650   32.9210   -6.1800 C.3   297  ASP297      0.1424
    112  CG       -26.0260   32.1190   -7.3650 C.2   297  ASP297      0.3668
    113  OD1      -26.3260   30.9100   -7.4880 O.co2 297  ASP297     -0.2456
    114  OD2      -25.3020   32.7020   -8.1940 O.co2 297  ASP297     -0.2456
    115  N        -29.0740   33.0310   -8.3810 N.am  298  VAL298     -0.1980
    116  CA       -29.6140   33.7030   -9.5640 C.3   298  VAL298      0.1595
    117  C        -30.8830   34.4900   -9.2180 C.2   298  VAL298      0.2287
    118  O        -31.1490   35.5430   -9.8040 O.2   298  VAL298     -0.2864
    119  CB       -29.8650   32.6610  -10.6910 C.3   298  VAL298      0.0276
    120  CG1      -30.6450   33.2880  -11.8690 C.3   298  VAL298      0.0022
    121  CG2      -28.5320   32.0690  -11.1900 C.3   298  VAL298      0.0022
    122  N        -26.6430   24.4690   -3.9790 N.3   378  SER378     -0.1217
    123  CA       -25.5480   25.1860   -4.6380 C.3   378  SER378      0.1889
    124  C        -25.8860   26.6680   -4.6850 C.2   378  SER378      0.2288
    125  O        -26.9840   27.0430   -5.1160 O.2   378  SER378     -0.2866
    126  CB       -25.3100   24.6780   -6.0660 C.3   378  SER378      0.2089
    127  OG       -24.2720   25.4190   -6.6980 O.3   378  SER378     -0.2183
    128  N        -23.4050   28.9550   -5.9540 N.3   380  GLY380     -0.1210
    129  CA       -22.4580   29.5770   -6.8520 C.3   380  GLY380      0.1940
    130  C        -21.8410   28.5450   -7.7670 C.2   380  GLY380      0.2453
    131  O        -21.9910   27.3390   -7.5590 O.2   380  GLY380     -0.2732
    132  N        -21.1200   28.9970   -8.7940 N.am  381  PRO381     -0.2728
    133  CA       -20.5360   28.0440   -9.7450 C.3   381  PRO381      0.1401
    134  C        -19.3430   27.2740   -9.2020 C.2   381  PRO381      0.2269
    135  O        -19.0630   26.1800   -9.7130 O.2   381  PRO381     -0.2865
    136  CB       -20.1290   28.9350  -10.9300 C.3   381  PRO381      0.0296
    137  CG       -19.9430   30.2840  -10.3500 C.3   381  PRO381      0.0237
    138  CD       -20.9240   30.3970   -9.2150 C.3   381  PRO381      0.0939
@<TRIPOS>BOND
     1    80    81    1
     2    81    82    1
     3    81    84    1
     4    35    36    1
     5    82    83    2
     6    85    84    1
     7    85    86    1
     8    36    37    1
     9    87    86    1
    10    87    88    2
    11    89    88    1
    12    88    90    1
    13    37    38    2
    14    37    39   am
    15     8     6   ar
    16    54    53    1
    17     7     6   ar
    18    39    40    1
    19     6     5    1
    20    74    73    2
    21    55    53    1
    22    42    41    2
    23    53    50    1
    24    40    41    1
    25    40    43    1
    26    41    49   am
    27    73    72    1
    28    49    50    1
    29    50    51    1
    30     5     2    1
    31     1     2    1
    32    72    75    1
    33    72    71    1
    34    43    44    1
    35     2     3    1
    36    75    76    1
    37    79    77   am
    38    51    52    2
    39    77    76    1
    40    77    78    2
    41    71    69   am
    42    44    45   ar
    43    44    46   ar
    44     3     4    2
    45    70    69    2
    46    69    68    1
    47    45    47   ar
    48    21    20    1
    49    46    48   ar
    50    56    57    1
    51    20    19    1
    52   106   105    1
    53    68    67    1
    54    47    48   ar
    55    67    58   am
    56    57    58    1
    57    57    60    1
    58    58    59    2
    59    19    18    1
    60   105   104    1
    61     9    10    1
    62    23    22    1
    63    23    24    1
    64    22    15   am
    65    17    18    1
    66    17    14    1
    67    13    14    1
    68    13    11   am
    69    10    11    1
    70    60    61    1
    71   104   103    1
    72    61    62    1
    73    14    15    1
    74    15    16    2
    75    11    12    2
    76    24    25    2
    77    24    26   am
    78   120   119    1
    79    26    27    1
    80    62    63    1
    81   121   119    1
    82   103   102    1
    83   136   137    1
    84   136   133    1
    85   119   116    1
    86   137   138    1
    87   102    99    1
    88    27    30    1
    89    27    28    1
    90    63    64    2
    91    96    95    1
    92    30    31    1
    93   118   117    2
    94   133   134    1
    95   133   132    1
    96   135   134    2
    97    65    64    1
    98    31    32    1
    99   116   117    1
   100   116   115    1
   101    64    66    1
   102   138   132    1
   103    28    29    2
   104    95    97    1
   105    95    92    1
   106   132   130   am
   107    99    98    1
   108    99   100    1
   109    32    33    1
   110   101   100    2
   111   115   109   am
   112    94    93    2
   113    98    93   am
   114   114   112   ar
   115    93    92    1
   116   130   131    2
   117   130   129    1
   118    92    91    1
   119   113   112   ar
   120   112   111    1
   121   109   110    2
   122   109   108    1
   123    33    34    1
   124   129   128    1
   125   127   126    1
   126   111   108    1
   127   108   107    1
   128   126   123    1
   129   125   124    2
   130   124   123    1
   131   123   122    1
