@<TRIPOS>MOLECULE
tmp/6c26A01.pdb
 120 120 0 0 0
SMALL
GASTEIGER

@<TRIPOS>ATOM
      1  N        127.7790  135.4120  139.3180 N.3    54  LEU54      -0.1231
      2  CA       127.5790  135.6880  137.8960 C.3    54  LEU54       0.1693
      3  C        127.1420  134.4690  137.1130 C.2    54  LEU54       0.2591
      4  O        126.4720  134.5980  136.0880 O.2    54  LEU54      -0.2718
      5  CB       128.8860  136.2130  137.3150 C.3    54  LEU54       0.0284
      6  CG       129.2440  136.3120  135.8370 C.3    54  LEU54       0.0019
      7  CD1      128.3010  137.1700  135.0740 C.3    54  LEU54       0.0001
      8  CD2      130.6260  136.8840  135.7400 C.3    54  LEU54       0.0001
      9  N        127.4990  133.2800  137.5740 N.am   55  VAL55      -0.1980
     10  CA       127.3680  132.0980  136.7480 C.3    55  VAL55       0.1595
     11  C        126.0110  131.4330  136.8950 C.2    55  VAL55       0.2287
     12  O        125.6770  130.5550  136.0900 O.2    55  VAL55      -0.2864
     13  CB       128.5200  131.1430  137.0990 C.3    55  VAL55       0.0276
     14  CG1      128.1860  130.3080  138.3000 C.3    55  VAL55       0.0022
     15  CG2      128.9130  130.3310  135.9580 C.3    55  VAL55       0.0022
     16  N        122.9920  133.5110  137.7730 N.3    57  ASN57      -0.1225
     17  CA       121.9500  134.4450  137.3400 C.3    57  ASN57       0.1785
     18  C        122.5910  135.3700  136.3030 C.2    57  ASN57       0.2598
     19  O        123.6210  135.0290  135.7190 O.2    57  ASN57      -0.2718
     20  CB       121.2610  135.1180  138.5450 C.3    57  ASN57       0.1169
     21  CG       122.1950  135.8550  139.4470 C.2    57  ASN57       0.2627
     22  OD1      123.3110  136.1660  139.0940 O.2    57  ASN57      -0.2716
     23  ND2      121.7460  136.0970  140.6610 N.am   57  ASN57      -0.0877
     24  N        121.9820  136.5160  136.0350 N.am   58  SER58      -0.1938
     25  CA       122.3710  137.2420  134.8350 C.3    58  SER58       0.2055
     26  C        123.6480  138.0530  135.0430 C.2    58  SER58       0.2643
     27  O        124.1590  138.1880  136.1520 O.2    58  SER58      -0.2714
     28  CB       121.2430  138.1590  134.3800 C.3    58  SER58       0.2130
     29  OG       121.0240  139.1930  135.3170 O.3    58  SER58      -0.2179
     30  N        124.1730  138.5780  133.9320 N.am   59  PHE59      -0.1973
     31  CA       125.2850  139.5210  133.9420 C.3    59  PHE59       0.1639
     32  C        124.8400  140.9250  134.3200 C.2    59  PHE59       0.2290
     33  O        125.6610  141.7280  134.7630 O.2    59  PHE59      -0.2864
     34  CB       125.9640  139.5220  132.5670 C.3    59  PHE59       0.0560
     35  CG       127.1100  140.4940  132.4230 C.ar   59  PHE59      -0.0200
     36  CD1      128.3340  140.2480  132.9940 C.ar   59  PHE59      -0.0042
     37  CD2      126.9630  141.6380  131.6710 C.ar   59  PHE59      -0.0042
     38  CE1      129.3810  141.1430  132.8400 C.ar   59  PHE59      -0.0003
     39  CE2      128.0070  142.5280  131.5180 C.ar   59  PHE59      -0.0003
     40  CZ       129.2120  142.2770  132.1010 C.ar   59  PHE59      -0.0000
     41  N        134.7450  137.4220  134.2180 N.3    88  THR88      -0.1218
     42  CA       133.8720  137.3750  133.0630 C.3    88  THR88       0.1862
     43  C        134.4660  136.5980  131.8980 C.2    88  THR88       0.2287
     44  O        133.7090  135.9930  131.1280 O.2    88  THR88      -0.2866
     45  CB       133.4830  138.7960  132.6670 C.3    88  THR88       0.1770
     46  OG1      132.5860  138.7480  131.5660 O.3    88  THR88      -0.2211
     47  CG2      134.6510  139.5890  132.2930 C.3    88  THR88       0.0375
     48  N        133.4360  133.0450  133.1820 N.3    91  ALA91      -0.1231
     49  CA       132.0590  132.7300  132.8260 C.3    91  ALA91       0.1694
     50  C        131.8920  132.5690  131.3240 C.2    91  ALA91       0.2592
     51  O        131.0020  131.8390  130.8770 O.2    91  ALA91      -0.2718
     52  CB       131.1250  133.8080  133.3440 C.3    91  ALA91       0.0304
     53  N        132.7570  133.2030  130.5330 N.am   92  PHE92      -0.1976
     54  CA       132.7240  132.9800  129.0930 C.3    92  PHE92       0.1639
     55  C        133.2350  131.5940  128.7110 C.2    92  PHE92       0.2290
     56  O        132.6470  130.9380  127.8450 O.2    92  PHE92      -0.2864
     57  CB       133.5210  134.0660  128.3940 C.3    92  PHE92       0.0560
     58  CG       133.5910  133.9030  126.9260 C.ar   92  PHE92      -0.0200
     59  CD1      132.4540  133.9930  126.1600 C.ar   92  PHE92      -0.0042
     60  CD2      134.8030  133.7200  126.3000 C.ar   92  PHE92      -0.0042
     61  CE1      132.5150  133.8580  124.8010 C.ar   92  PHE92      -0.0003
     62  CE2      134.8720  133.5900  124.9380 C.ar   92  PHE92      -0.0003
     63  CZ       133.7250  133.6610  124.1880 C.ar   92  PHE92      -0.0000
     64  N        133.1720  128.9570  130.6560 N.3    94  TRP94      -0.1227
     65  CA       132.1190  128.0580  131.1250 C.3    94  TRP94       0.1737
     66  C        130.9520  128.0020  130.1430 C.2    94  TRP94       0.2595
     67  O        130.4830  126.9120  129.7840 O.2    94  TRP94      -0.2718
     68  CB       131.6480  128.5290  132.4910 C.3    94  TRP94       0.0564
     69  CG       130.6030  127.7440  133.1590 C.ar   94  TRP94       0.0003
     70  CD1      130.7520  126.5830  133.8320 C.ar   94  TRP94       0.0946
     71  CD2      129.2190  128.0670  133.2120 C.ar   94  TRP94       0.0152
     72  NE1      129.5480  126.1680  134.3250 N.ar   94  TRP94      -0.2442
     73  CE2      128.5880  127.0630  133.9470 C.ar   94  TRP94       0.0810
     74  CE3      128.4490  129.1050  132.6900 C.ar   94  TRP94       0.0012
     75  CZ2      127.2320  127.0680  134.1880 C.ar   94  TRP94       0.0191
     76  CZ3      127.1060  129.1130  132.9360 C.ar   94  TRP94       0.0001
     77  CH2      126.5070  128.1010  133.6760 C.ar   94  TRP94       0.0015
     78  N        130.5070  129.1640  129.6580 N.am   95  HIS95      -0.1975
     79  CA       129.4100  129.2200  128.6990 C.3    95  HIS95       0.1656
     80  C        129.7750  128.6190  127.3480 C.2    95  HIS95       0.2291
     81  O        128.8860  128.1660  126.6290 O.2    95  HIS95      -0.2864
     82  CB       128.9660  130.6670  128.5280 C.3    95  HIS95       0.0771
     83  CG       127.7910  130.8430  127.6230 C.ar   95  HIS95       0.0820
     84  ND1      126.5080  130.5110  127.9960 N.ar   95  HIS95      -0.2267
     85  CD2      127.7030  131.3280  126.3630 C.ar   95  HIS95       0.1154
     86  CE1      125.6800  130.7800  127.0030 C.ar   95  HIS95       0.1986
     87  NE2      126.3800  131.2760  125.9990 N.ar   95  HIS95      -0.2212
     88  N        128.4780  124.6700  123.4160 N.3   100  TRP100     -0.1241
     89  CA       128.9530  124.4850  122.0530 C.3   100  TRP100      0.1605
     90  C        129.7630  123.2120  121.8890 C.2   100  TRP100      0.2264
     91  O        129.4370  122.3750  121.0480 O.2   100  TRP100     -0.2867
     92  CB       129.8030  125.6880  121.6370 C.3   100  TRP100      0.0550
     93  CG       129.0930  127.0080  121.6780 C.ar  100  TRP100      0.0003
     94  CD1      127.7570  127.2260  121.8000 C.ar  100  TRP100      0.0946
     95  CD2      129.7050  128.2980  121.6460 C.ar  100  TRP100      0.0152
     96  NE1      127.4960  128.5710  121.8290 N.ar  100  TRP100     -0.2442
     97  CE2      128.6790  129.2510  121.7360 C.ar  100  TRP100      0.0810
     98  CE3      131.0260  128.7380  121.5410 C.ar  100  TRP100      0.0012
     99  CZ2      128.9300  130.6160  121.7280 C.ar  100  TRP100      0.0191
    100  CZ3      131.2730  130.0930  121.5300 C.ar  100  TRP100      0.0001
    101  CH2      130.2320  131.0170  121.6230 C.ar  100  TRP100      0.0015
    102  N        142.8880  148.4020  122.3810 N.3   195  LEU195     -0.1245
    103  CA       141.8440  147.5170  122.8910 C.3   195  LEU195      0.1561
    104  C        142.3870  146.4690  123.8580 C.2   195  LEU195      0.2260
    105  O        141.7150  146.1380  124.8410 O.2   195  LEU195     -0.2867
    106  CB       141.1040  146.8460  121.7440 C.3   195  LEU195      0.0270
    107  CG       140.3100  147.8150  120.8770 C.3   195  LEU195      0.0019
    108  CD1      139.6030  147.0550  119.7800 C.3   195  LEU195      0.0001
    109  CD2      139.3300  148.6020  121.7090 C.3   195  LEU195      0.0001
    110  N        142.7380  148.2130  127.0330 N.3   198  PHE198     -0.1241
    111  CA       141.4660  148.2370  127.7560 C.3   198  PHE198      0.1605
    112  C        141.1720  146.9080  128.4240 C.2   198  PHE198      0.2264
    113  O        140.5690  146.8650  129.4970 O.2   198  PHE198     -0.2867
    114  CB       140.3340  148.6030  126.8070 C.3   198  PHE198      0.0534
    115  CG       138.9660  148.3750  127.3710 C.ar  198  PHE198     -0.0203
    116  CD1      138.4620  149.1960  128.3480 C.ar  198  PHE198     -0.0042
    117  CD2      138.1800  147.3460  126.9070 C.ar  198  PHE198     -0.0042
    118  CE1      137.2010  148.9970  128.8550 C.ar  198  PHE198     -0.0003
    119  CE2      136.9240  147.1400  127.4140 C.ar  198  PHE198     -0.0003
    120  CZ       136.4370  147.9690  128.3900 C.ar  198  PHE198     -0.0000
@<TRIPOS>BOND
     1   108   107    1
     2   107   109    1
     3   107   106    1
     4    91    90    2
     5   100    98   ar
     6   100   101   ar
     7    98    95   ar
     8   101    99   ar
     9    92    93    1
    10    92    89    1
    11    95    93   ar
    12    95    97   ar
    13    93    94   ar
    14    99    97   ar
    15    97    96   ar
    16   106   103    1
    17    94    96   ar
    18    90    89    1
    19    89    88    1
    20   102   103    1
    21   103   104    1
    22   104   105    2
    23    63    61   ar
    24    63    62   ar
    25    61    59   ar
    26    62    60   ar
    27    87    85   ar
    28    87    86   ar
    29    59    58   ar
    30    60    58   ar
    31    85    83   ar
    32    81    80    2
    33   114   115    1
    34   114   111    1
    35   117   115   ar
    36   117   119   ar
    37    58    57    1
    38    86    84   ar
    39   110   111    1
    40    80    79    1
    41   115   116   ar
    42   119   120   ar
    43    83    84   ar
    44    83    82    1
    45   111   112    1
    46    56    55    2
    47   116   118   ar
    48   120   118   ar
    49    57    54    1
    50   112   113    2
    51    82    79    1
    52    79    78    1
    53    55    54    1
    54    54    53    1
    55    78    66   am
    56    67    66    2
    57    66    65    1
    58    53    50   am
    59    64    65    1
    60    51    50    2
    61    65    68    1
    62    44    43    2
    63    50    49    1
    64    39    37   ar
    65    39    40   ar
    66    46    45    1
    67    37    35   ar
    68    43    42    1
    69    40    38   ar
    70    47    45    1
    71    35    34    1
    72    35    36   ar
    73    68    69    1
    74    34    31    1
    75    45    42    1
    76    74    76   ar
    77    74    71   ar
    78    49    48    1
    79    49    52    1
    80    38    36   ar
    81    76    77   ar
    82    42    41    1
    83    69    71   ar
    84    69    70   ar
    85    71    73   ar
    86    77    75   ar
    87    70    72   ar
    88    30    31    1
    89    30    26   am
    90    31    32    1
    91    73    75   ar
    92    73    72   ar
    93    32    33    2
    94    28    25    1
    95    28    29    1
    96    25    26    1
    97    25    24    1
    98    26    27    2
    99     7     6    1
   100    19    18    2
   101     8     6    1
   102     6     5    1
   103    15    13    1
   104    24    18   am
   105     4     3    2
   106    12    11    2
   107    18    17    1
   108    10    11    1
   109    10    13    1
   110    10     9    1
   111    13    14    1
   112     3     9   am
   113     3     2    1
   114     5     2    1
   115    17    16    1
   116    17    20    1
   117     2     1    1
   118    20    21    1
   119    22    21    2
   120    21    23   am
