@<TRIPOS>MOLECULE
tmp/6c26C01.pdb
 89 84 0 0 0
SMALL
GASTEIGER

@<TRIPOS>ATOM
      1  N        137.6330   96.2650  128.0360 N.3    21  LEU21      -0.1245
      2  CA       138.0160   97.5780  128.5290 C.3    21  LEU21       0.1561
      3  C        139.5240   97.7400  128.6540 C.2    21  LEU21       0.2260
      4  O        140.0100   98.8740  128.6530 O.2    21  LEU21      -0.2867
      5  CB       137.3150   97.8350  129.8680 C.3    21  LEU21       0.0270
      6  CG       137.2070   99.2190  130.5240 C.3    21  LEU21       0.0019
      7  CD1      138.3990   99.6050  131.3640 C.3    21  LEU21       0.0001
      8  CD2      137.0010  100.2480  129.4600 C.3    21  LEU21       0.0001
      9  N        143.2790  101.3770  125.4710 N.3    25  PRO25      -0.2116
     10  CA       144.4730  102.2430  125.3960 C.3    25  PRO25       0.1372
     11  C        145.5150  101.8410  124.3570 C.2    25  PRO25       0.2244
     12  O        146.5310  102.5340  124.2470 O.2    25  PRO25      -0.2868
     13  CB       145.0580  102.1590  126.8060 C.3    25  PRO25       0.0268
     14  CG       143.9310  101.8760  127.6450 C.3    25  PRO25       0.0207
     15  CD       143.0620  100.9630  126.8710 C.3    25  PRO25       0.0892
     16  N        143.7220  103.7580  121.2690 N.3    28  ALA28      -0.1231
     17  CA       143.7940  105.2060  121.4370 C.3    28  ALA28       0.1694
     18  C        145.0460  105.7820  120.7820 C.2    28  ALA28       0.2591
     19  O        144.9590  106.6470  119.9010 O.2    28  ALA28      -0.2718
     20  CB       143.7520  105.5600  122.9190 C.3    28  ALA28       0.0304
     21  N        146.2260  105.3040  121.1880 N.am   29  ILE29      -0.1980
     22  CA       147.4600  105.7910  120.5810 C.3    29  ILE29       0.1595
     23  C        147.6340  105.2620  119.1660 C.2    29  ILE29       0.2287
     24  O        148.3730  105.8560  118.3770 O.2    29  ILE29      -0.2864
     25  CB       148.6930  105.4370  121.4320 C.3    29  ILE29       0.0276
     26  CG1      148.8840  103.9250  121.5110 C.3    29  ILE29       0.0022
     27  CG2      148.5630  106.0230  122.8200 C.3    29  ILE29       0.0022
     28  CD1      150.2050  103.5100  122.0850 C.3    29  ILE29       0.0001
     29  N        145.4810  108.0130  117.3170 N.3    32  LEU32      -0.1245
     30  CA       145.9470  109.3940  117.4080 C.3    32  LEU32       0.1561
     31  C        147.0820  109.6980  116.4370 C.2    32  LEU32       0.2260
     32  O        147.2620  110.8590  116.0620 O.2    32  LEU32      -0.2867
     33  CB       146.3680  109.6900  118.8520 C.3    32  LEU32       0.0270
     34  CG       146.6440  111.1030  119.3830 C.3    32  LEU32       0.0019
     35  CD1      148.0690  111.6000  119.1710 C.3    32  LEU32       0.0001
     36  CD2      145.6580  112.0660  118.7510 C.3    32  LEU32       0.0001
     37  N        138.7940  107.9070  117.7060 N.3    73  THR73      -0.1218
     38  CA       139.9130  108.3070  118.5540 C.3    73  THR73       0.1862
     39  C        139.4330  108.9240  119.8600 C.2    73  THR73       0.2287
     40  O        139.9210  108.5680  120.9380 O.2    73  THR73      -0.2866
     41  CB       140.8090  109.2920  117.8110 C.3    73  THR73       0.1770
     42  OG1      141.3150  108.6760  116.6250 O.3    73  THR73      -0.2211
     43  CG2      141.9720  109.7270  118.6850 C.3    73  THR73       0.0375
     44  N        139.5610  107.1600  123.4790 N.3    77  ALA77      -0.1245
     45  CA       140.4560  107.9330  124.3210 C.3    77  ALA77       0.1562
     46  C        139.7590  108.5510  125.5150 C.2    77  ALA77       0.2260
     47  O        140.4410  109.0690  126.4000 O.2    77  ALA77      -0.2867
     48  CB       141.1310  109.0380  123.5130 C.3    77  ALA77       0.0290
     49  N        137.3030  106.6930  127.3800 N.3    79  ASN79      -0.1225
     50  CA       136.9750  105.6290  128.3250 C.3    79  ASN79       0.1785
     51  C        138.1580  105.1490  129.1430 C.2    79  ASN79       0.2598
     52  O        137.9660  104.3210  130.0330 O.2    79  ASN79      -0.2718
     53  CB       136.3910  104.4170  127.6100 C.3    79  ASN79       0.1169
     54  CG       135.0060  104.6520  127.1180 C.2    79  ASN79       0.2627
     55  OD1      134.2090  105.3030  127.7740 O.2    79  ASN79      -0.2716
     56  ND2      134.7000  104.1150  125.9570 N.am   79  ASN79      -0.0877
     57  N        139.3690  105.6060  128.8580 N.am   80  SER80      -0.1938
     58  CA       140.5350  105.1520  129.5930 C.3    80  SER80       0.2055
     59  C        141.1130  106.2290  130.4910 C.2    80  SER80       0.2643
     60  O        142.2270  106.0710  130.9900 O.2    80  SER80      -0.2714
     61  CB       141.5960  104.6420  128.6280 C.3    80  SER80       0.2130
     62  OG       142.0790  105.6940  127.8270 O.3    80  SER80      -0.2179
     63  N        140.3840  107.3230  130.6980 N.am   81  PHE81      -0.1959
     64  CA       140.7090  108.3280  131.6980 C.3    81  PHE81       0.1771
     65  C        139.8390  108.2120  132.9310 C.2    81  PHE81       0.2620
     66  O        140.2470  108.6450  134.0110 O.2    81  PHE81      -0.2715
     67  CB       140.5630  109.7290  131.1160 C.3    81  PHE81       0.0574
     68  CG       141.7120  110.1550  130.2830 C.ar   81  PHE81      -0.0200
     69  CD1      142.9610  109.6130  130.4710 C.ar   81  PHE81      -0.0042
     70  CD2      141.5390  111.0880  129.2880 C.ar   81  PHE81      -0.0042
     71  CE1      144.0190  110.0100  129.6920 C.ar   81  PHE81      -0.0003
     72  CE2      142.5910  111.4800  128.5050 C.ar   81  PHE81      -0.0003
     73  CZ       143.8290  110.9440  128.7100 C.ar   81  PHE81      -0.0000
     74  N        138.6520  107.6510  132.8000 N.am   82  GLY82      -0.1954
     75  CA       137.7330  107.6100  133.9030 C.3    82  GLY82       0.1869
     76  C        136.5220  108.4920  133.7500 C.2    82  GLY82       0.2309
     77  O        135.9360  108.8880  134.7620 O.2    82  GLY82      -0.2863
     78  N        133.1380  107.9790  131.4080 N.3    84  TYR84      -0.1241
     79  CA       132.6030  107.0100  130.4760 C.3    84  TYR84       0.1605
     80  C        131.5150  107.6220  129.6090 C.2    84  TYR84       0.2264
     81  O        131.5540  107.5250  128.3850 O.2    84  TYR84      -0.2867
     82  CB       132.0650  105.8090  131.2400 C.3    84  TYR84       0.0534
     83  CG       133.1210  105.1030  132.0490 C.ar   84  TYR84      -0.0201
     84  CD1      133.9520  104.1690  131.4760 C.ar   84  TYR84      -0.0009
     85  CD2      133.2980  105.3910  133.3890 C.ar   84  TYR84      -0.0009
     86  CE1      134.9180  103.5290  132.2180 C.ar   84  TYR84       0.0417
     87  CE2      134.2600  104.7580  134.1330 C.ar   84  TYR84       0.0417
     88  CZ       135.0640  103.8330  133.5430 C.ar   84  TYR84       0.1957
     89  OH       136.0270  103.2050  134.2820 O.3    84  TYR84      -0.2866
@<TRIPOS>BOND
     1    32    31    2
     2    31    30    1
     3    42    41    1
     4    29    30    1
     5    30    33    1
     6    37    38    1
     7    41    38    1
     8    41    43    1
     9    24    23    2
    10    38    39    1
    11    36    34    1
    12    33    34    1
    13    23    22    1
    14    35    34    1
    15    39    40    2
    16    19    18    2
    17    22    21    1
    18    22    25    1
    19    18    21   am
    20    18    17    1
    21    16    17    1
    22    25    26    1
    23    25    27    1
    24    17    20    1
    25    26    28    1
    26    44    45    1
    27    48    45    1
    28    12    11    2
    29    45    46    1
    30    11    10    1
    31    10     9    1
    32    10    13    1
    33     9    15    1
    34    46    47    2
    35    56    54   am
    36    13    14    1
    37    15    14    1
    38    54    53    1
    39    54    55    2
    40    49    50    1
    41    53    50    1
    42    62    61    1
    43     1     2    1
    44    50    51    1
    45    81    80    2
    46    72    73   ar
    47    72    70   ar
    48     2     3    1
    49     2     5    1
    50    61    58    1
    51     4     3    2
    52    73    71   ar
    53    57    51   am
    54    57    58    1
    55    51    52    2
    56    70    68   ar
    57     8     6    1
    58    58    59    1
    59    80    79    1
    60    71    69   ar
    61     5     6    1
    62    68    69   ar
    63    68    67    1
    64    79    82    1
    65    79    78    1
    66    59    63   am
    67    59    60    2
    68     6     7    1
    69    63    64    1
    70    67    64    1
    71    82    83    1
    72    84    83   ar
    73    84    86   ar
    74    64    65    1
    75    83    85   ar
    76    86    88   ar
    77    74    65   am
    78    74    75    1
    79    65    66    2
    80    85    87   ar
    81    88    87   ar
    82    88    89    1
    83    76    75    1
    84    76    77    2
