@<TRIPOS>MOLECULE
tmp/6c26A00.pdb
 122 112 0 0 0
SMALL
GASTEIGER

@<TRIPOS>ATOM
      1  N        153.8130  123.4840  124.9170 N.3    21  PHE21      -0.1241
      2  CA       152.5210  123.6990  125.5490 C.3    21  PHE21       0.1605
      3  C        152.2280  122.6170  126.5750 C.2    21  PHE21       0.2264
      4  O        151.3550  122.8000  127.4240 O.2    21  PHE21      -0.2867
      5  CB       151.4130  123.7610  124.4940 C.3    21  PHE21       0.0534
      6  CG       150.0680  124.1400  125.0400 C.ar   21  PHE21      -0.0203
      7  CD1      149.7920  125.4520  125.3830 C.ar   21  PHE21      -0.0042
      8  CD2      149.0810  123.1880  125.2160 C.ar   21  PHE21      -0.0042
      9  CE1      148.5520  125.8090  125.8950 C.ar   21  PHE21      -0.0003
     10  CE2      147.8390  123.5410  125.7270 C.ar   21  PHE21      -0.0003
     11  CZ       147.5800  124.8550  126.0650 C.ar   21  PHE21      -0.0000
     12  N        151.9140  122.7140  131.4740 N.3    25  ILE25      -0.1245
     13  CA       150.7780  121.9670  132.0180 C.3    25  ILE25       0.1561
     14  C        151.2380  120.8910  132.9870 C.2    25  ILE25       0.2260
     15  O        150.7020  120.7620  134.0890 O.2    25  ILE25      -0.2867
     16  CB       149.9590  121.3480  130.8740 C.3    25  ILE25       0.0252
     17  CG1      149.2850  122.4130  130.0200 C.3    25  ILE25       0.0019
     18  CG2      148.9300  120.3810  131.4130 C.3    25  ILE25       0.0019
     19  CD1      148.1900  123.1060  130.7140 C.3    25  ILE25       0.0001
     20  N        151.1620  120.9050  138.1810 N.3    29  LEU29      -0.1245
     21  CA       150.1390  120.0560  138.7930 C.3    29  LEU29       0.1561
     22  C        150.6410  119.1920  139.9360 C.2    29  LEU29       0.2260
     23  O        150.2330  118.0390  140.0160 O.2    29  LEU29      -0.2867
     24  CB       149.5030  119.1520  137.7490 C.3    29  LEU29       0.0270
     25  CG       148.7670  119.7480  136.5730 C.3    29  LEU29       0.0019
     26  CD1      148.1780  118.6260  135.7850 C.3    29  LEU29       0.0001
     27  CD2      147.7030  120.6820  137.0350 C.3    29  LEU29       0.0001
     28  N        147.7190  119.3450  142.8160 N.3    32  VAL32      -0.1231
     29  CA       146.4170  118.8120  142.4500 C.3    32  VAL32       0.1692
     30  C        146.4040  117.2950  142.4960 C.2    32  VAL32       0.2591
     31  O        145.4350  116.6980  142.9610 O.2    32  VAL32      -0.2718
     32  CB       146.0110  119.3630  141.0730 C.3    32  VAL32       0.0266
     33  CG1      144.8200  118.6530  140.5010 C.3    32  VAL32       0.0020
     34  CG2      145.6770  120.8020  141.2220 C.3    32  VAL32       0.0020
     35  N        147.4650  116.6180  142.0670 N.am   33  ILE33      -0.1980
     36  CA       147.4450  115.1630  142.1560 C.3    33  ILE33       0.1595
     37  C        148.0460  114.6670  143.4650 C.2    33  ILE33       0.2287
     38  O        147.8630  113.4950  143.8140 O.2    33  ILE33      -0.2864
     39  CB       148.1120  114.5260  140.9210 C.3    33  ILE33       0.0276
     40  CG1      149.5720  114.9140  140.7840 C.3    33  ILE33       0.0022
     41  CG2      147.4060  114.9640  139.6650 C.3    33  ILE33       0.0022
     42  CD1      150.5550  113.8810  141.2930 C.3    33  ILE33       0.0001
     43  N        141.7320  119.0000  144.9190 N.3    37  SER37      -0.1217
     44  CA       141.7980  120.1900  144.0750 C.3    37  SER37       0.1889
     45  C        140.8630  121.2600  144.6340 C.2    37  SER37       0.2288
     46  O        139.6570  121.2240  144.3860 O.2    37  SER37      -0.2866
     47  CB       141.4350  119.8450  142.6400 C.3    37  SER37       0.2089
     48  OG       140.0650  119.5460  142.5330 O.3    37  SER37      -0.2183
     49  N        132.1360  125.9560  126.9810 N.3    97  LEU97      -0.1245
     50  CA       132.2320  124.5100  127.1270 C.3    97  LEU97       0.1561
     51  C        130.8730  123.8720  127.3230 C.2    97  LEU97       0.2260
     52  O        130.6690  122.7290  126.9170 O.2    97  LEU97      -0.2867
     53  CB       133.1240  124.1320  128.3040 C.3    97  LEU97       0.0270
     54  CG       134.6000  124.4530  128.1800 C.3    97  LEU97       0.0019
     55  CD1      135.3110  124.1130  129.4530 C.3    97  LEU97       0.0001
     56  CD2      135.1600  123.6750  127.0400 C.3    97  LEU97       0.0001
     57  N        130.8130  123.0380  122.6920 N.3   101  LEU101     -0.1245
     58  CA       131.6730  121.8680  122.5730 C.3   101  LEU101      0.1561
     59  C        131.0220  120.6110  123.1150 C.2   101  LEU101      0.2260
     60  O        131.4590  119.5100  122.7770 O.2   101  LEU101     -0.2867
     61  CB       132.9950  122.1000  123.2940 C.3   101  LEU101      0.0270
     62  CG       134.1920  122.6710  122.5420 C.3   101  LEU101      0.0019
     63  CD1      134.6460  121.6450  121.5490 C.3   101  LEU101      0.0001
     64  CD2      133.8800  123.9740  121.8370 C.3   101  LEU101      0.0001
     65  N        130.5050  119.4570  126.4110 N.3   103  LEU103     -0.1245
     66  CA       130.8500  118.8110  127.6710 C.3   103  LEU103      0.1561
     67  C        130.6240  119.7320  128.8650 C.2   103  LEU103      0.2260
     68  O        131.2640  120.7870  128.9590 O.2   103  LEU103     -0.2867
     69  CB       132.2950  118.3090  127.6080 C.3   103  LEU103      0.0270
     70  CG       133.5300  119.1390  127.2670 C.3   103  LEU103      0.0019
     71  CD1      134.2360  119.6250  128.5020 C.3   103  LEU103      0.0001
     72  CD2      134.4680  118.3450  126.3950 C.3   103  LEU103      0.0001
     73  N        131.1230  120.9060  132.5950 N.3   105  ILE105     -0.1245
     74  CA       131.9500  120.7510  133.7840 C.3   105  ILE105      0.1561
     75  C        131.6280  121.8630  134.7720 C.2   105  ILE105      0.2260
     76  O        131.0930  122.9120  134.4120 O.2   105  ILE105     -0.2867
     77  CB       133.4550  120.7410  133.4690 C.3   105  ILE105      0.0252
     78  CG1      133.8620  122.0180  132.7700 C.3   105  ILE105      0.0019
     79  CG2      133.8300  119.5600  132.6170 C.3   105  ILE105      0.0019
     80  CD1      135.3290  122.1090  132.6160 C.3   105  ILE105      0.0001
     81  N        133.9290  125.0790  139.6890 N.3   108  ARG108     -0.1231
     82  CA       135.1120  124.9660  140.5280 C.3   108  ARG108      0.1694
     83  C        136.3010  124.4400  139.7420 C.2   108  ARG108      0.2592
     84  O        137.4290  124.8980  139.9410 O.2   108  ARG108     -0.2718
     85  CB       134.8140  124.0620  141.7110 C.3   108  ARG108      0.0321
     86  CG       135.9430  123.8890  142.6760 C.3   108  ARG108      0.0489
     87  CD       135.4740  123.0100  143.8040 C.3   108  ARG108      0.2205
     88  NE       135.0730  121.7010  143.3130 N.pl3 108  ARG108     -0.0865
     89  CZ       135.9030  120.6780  143.1770 C.cat 108  ARG108      0.5346
     90  NH1      137.1720  120.8040  143.5270 N.pl3 108  ARG108      0.1354
     91  NH2      135.4610  119.5240  142.7090 N.pl3 108  ARG108      0.1354
     92  N        136.0710  123.5130  138.8180 N.am  109  ASN109     -0.1974
     93  CA       137.1650  122.9970  138.0100 C.3   109  ASN109      0.1688
     94  C        137.6170  123.9700  136.9390 C.2   109  ASN109      0.2292
     95  O        138.7490  123.8660  136.4730 O.2   109  ASN109     -0.2864
     96  CB       136.7710  121.6940  137.3430 C.3   109  ASN109      0.1181
     97  CG       136.5510  120.6060  138.3280 C.2   109  ASN109      0.2629
     98  OD1      137.2800  120.4970  139.3000 O.2   109  ASN109     -0.2716
     99  ND2      135.5410  119.7880  138.0970 N.am  109  ASN109     -0.0877
    100  N        141.7390  125.2230  137.2880 N.3   113  LEU113     -0.1245
    101  CA       142.5940  125.0100  136.1230 C.3   113  LEU113      0.1561
    102  C        142.5800  126.1910  135.1840 C.2   113  LEU113      0.2260
    103  O        142.5650  126.0360  133.9670 O.2   113  LEU113     -0.2867
    104  CB       142.1720  123.7480  135.3930 C.3   113  LEU113      0.0270
    105  CG       142.6690  122.3910  135.8590 C.3   113  LEU113      0.0019
    106  CD1      142.0470  121.9110  137.1390 C.3   113  LEU113      0.0001
    107  CD2      142.3350  121.4610  134.7630 C.3   113  LEU113      0.0001
    108  N        147.0810  127.0960  134.5500 N.3   116  PRO116     -0.2102
    109  CA       147.9220  126.2910  133.6480 C.3   116  PRO116      0.1504
    110  C        147.4550  126.2740  132.2100 C.2   116  PRO116      0.2575
    111  O        148.2990  126.2890  131.3070 O.2   116  PRO116     -0.2718
    112  CB       147.8530  124.8900  134.2600 C.3   116  PRO116      0.0282
    113  CG       147.5390  125.0950  135.6150 C.3   116  PRO116      0.0208
    114  CD       146.6080  126.2300  135.6460 C.3   116  PRO116      0.0893
    115  N        146.1410  126.2560  131.9720 N.am  117  LEU117     -0.1980
    116  CA       145.6130  126.3850  130.6180 C.3   117  LEU117      0.1596
    117  C        146.0200  127.6960  129.9790 C.2   117  LEU117      0.2287
    118  O        146.2950  127.7490  128.7770 O.2   117  LEU117     -0.2864
    119  CB       144.0920  126.2850  130.6420 C.3   117  LEU117      0.0297
    120  CG       143.3480  126.5560  129.3340 C.3   117  LEU117      0.0022
    121  CD1      143.7210  125.5330  128.2870 C.3   117  LEU117      0.0001
    122  CD2      141.8440  126.6150  129.5420 C.3   117  LEU117      0.0001
@<TRIPOS>BOND
     1    63    62    1
     2    64    62    1
     3    62    61    1
     4    58    57    1
     5    58    59    1
     6    58    61    1
     7    60    59    2
     8     5     6    1
     9     5     2    1
    10     1     2    1
    11     6     8   ar
    12     6     7   ar
    13     8    10   ar
    14     7     9   ar
    15     2     3    1
    16    10    11   ar
    17     9    11   ar
    18    72    70    1
    19    65    66    1
    20     3     4    2
    21    52    51    2
    22    49    50    1
    23    56    54    1
    24    50    51    1
    25    50    53    1
    26    70    69    1
    27    70    71    1
    28    69    66    1
    29    66    67    1
    30    54    53    1
    31    54    55    1
    32   121   120    1
    33   118   117    2
    34    67    68    2
    35   120   122    1
    36   120   119    1
    37   117   116    1
    38    17    19    1
    39    17    16    1
    40   116   119    1
    41   116   115    1
    42    16    18    1
    43    16    13    1
    44   111   110    2
    45    12    13    1
    46   115   110   am
    47    13    14    1
    48   110   109    1
    49    73    74    1
    50    80    78    1
    51    79    77    1
    52    78    77    1
    53    14    15    2
    54    77    74    1
    55   109   112    1
    56   109   108    1
    57    74    75    1
    58   103   102    2
    59   112   113    1
    60    76    75    2
    61   108   114    1
    62   107   105    1
    63   102   101    1
    64   104   105    1
    65   104   101    1
    66   113   114    1
    67    26    25    1
    68   105   106    1
    69   101   100    1
    70    95    94    2
    71    25    27    1
    72    25    24    1
    73    94    93    1
    74    96    93    1
    75    96    97    1
    76    24    21    1
    77    93    92    1
    78    99    97   am
    79    20    21    1
    80    97    98    2
    81    21    22    1
    82    92    83   am
    83    41    39    1
    84    81    82    1
    85    83    84    2
    86    83    82    1
    87    22    23    2
    88    33    32    1
    89    82    85    1
    90    40    39    1
    91    40    42    1
    92    39    36    1
    93    32    34    1
    94    32    29    1
    95    85    86    1
    96    35    36    1
    97    35    30   am
    98    36    37    1
    99    29    30    1
   100    29    28    1
   101    30    31    2
   102    48    47    1
   103    47    44    1
   104    86    87    1
   105    91    89    1
   106    89    88    2
   107    89    90    1
   108    88    87    1
   109    37    38    2
   110    44    45    1
   111    44    43    1
   112    46    45    2
