@<TRIPOS>MOLECULE
tmp/6c26A05.pdb
 108 101 0 0 0
SMALL
GASTEIGER

@<TRIPOS>ATOM
      1  N        157.9360  157.3850  128.1850 N.3   216  LEU216     -0.1245
      2  CA       159.3760  157.3830  128.3810 C.3   216  LEU216      0.1561
      3  C        160.0890  156.8690  127.1370 C.2   216  LEU216      0.2260
      4  O        161.1990  157.3220  126.8340 O.2   216  LEU216     -0.2867
      5  CB       159.7080  156.5560  129.6220 C.3   216  LEU216      0.0270
      6  CG       161.0530  156.5420  130.3400 C.3   216  LEU216      0.0019
      7  CD1      162.0260  155.5790  129.7170 C.3   216  LEU216      0.0001
      8  CD2      161.6270  157.9250  130.3350 C.3   216  LEU216      0.0001
      9  N        159.7700  159.8820  124.6490 N.3   219  PHE219     -0.1227
     10  CA       160.5600  161.0090  125.1220 C.3   219  PHE219      0.1736
     11  C        162.0550  160.7380  125.0410 C.2   219  PHE219      0.2595
     12  O        162.8280  161.6620  124.7890 O.2   219  PHE219     -0.2718
     13  CB       160.1550  161.3520  126.5460 C.3   219  PHE219      0.0547
     14  CG       160.8750  162.5260  127.1100 C.ar  219  PHE219     -0.0202
     15  CD1      160.5490  163.8040  126.7070 C.ar  219  PHE219     -0.0042
     16  CD2      161.8670  162.3560  128.0560 C.ar  219  PHE219     -0.0042
     17  CE1      161.2050  164.8940  127.2330 C.ar  219  PHE219     -0.0003
     18  CE2      162.5240  163.4390  128.5820 C.ar  219  PHE219     -0.0003
     19  CZ       162.1920  164.7090  128.1720 C.ar  219  PHE219     -0.0000
     20  N        162.4920  159.4910  125.2340 N.am  220  LEU220     -0.1980
     21  CA       163.8820  159.1800  124.9110 C.3   220  LEU220      0.1596
     22  C        164.1090  159.0740  123.4170 C.2   220  LEU220      0.2287
     23  O        165.2580  159.1090  122.9760 O.2   220  LEU220     -0.2864
     24  CB       164.3300  157.8740  125.5500 C.3   220  LEU220      0.0297
     25  CG       164.4560  157.8630  127.0590 C.3   220  LEU220      0.0022
     26  CD1      164.9120  156.4950  127.4920 C.3   220  LEU220      0.0001
     27  CD2      165.4250  158.9230  127.4920 C.3   220  LEU220      0.0001
     28  N        164.9090  162.9410  122.0490 N.3   223  LEU223     -0.1231
     29  CA       166.1550  163.5750  122.4640 C.3   223  LEU223      0.1693
     30  C        167.3700  163.0480  121.7120 C.2   223  LEU223      0.2591
     31  O        168.3860  163.7410  121.6470 O.2   223  LEU223     -0.2718
     32  CB       166.3450  163.3910  123.9640 C.3   223  LEU223      0.0284
     33  CG       165.4230  164.3000  124.7750 C.3   223  LEU223      0.0019
     34  CD1      165.5590  164.0360  126.2530 C.3   223  LEU223      0.0001
     35  CD2      165.7100  165.7460  124.4820 C.3   223  LEU223      0.0001
     36  N        167.2960  161.8450  121.1470 N.am  224  MET224     -0.1979
     37  CA       168.3310  161.4060  120.2210 C.3   224  MET224      0.1605
     38  C        168.1770  162.0730  118.8660 C.2   224  MET224      0.2287
     39  O        169.1370  162.1340  118.0930 O.2   224  MET224     -0.2864
     40  CB       168.2770  159.8980  120.0280 C.3   224  MET224      0.0413
     41  CG       168.5490  159.0790  121.2470 C.3   224  MET224      0.0598
     42  SD       168.4350  157.3540  120.7830 S.3   224  MET224     -0.1393
     43  CE       168.6190  156.5930  122.3760 C.3   224  MET224      0.0692
     44  N        165.6350  161.0480  116.5890 N.3   226  ARG226     -0.1245
     45  CA       165.0410  160.1320  115.6190 C.3   226  ARG226      0.1563
     46  C        163.5480  160.3720  115.4570 C.2   226  ARG226      0.2260
     47  O        162.7570  159.4360  115.4370 O.2   226  ARG226     -0.2867
     48  CB       165.3110  158.6960  116.0420 C.3   226  ARG226      0.0307
     49  CG       166.7580  158.3300  115.9800 C.3   226  ARG226      0.0489
     50  CD       167.0010  156.8950  116.3410 C.3   226  ARG226      0.2205
     51  NE       168.4190  156.6050  116.2160 N.pl3 226  ARG226     -0.0865
     52  CZ       168.9710  155.4260  116.4560 C.cat 226  ARG226      0.5346
     53  NH1      170.2750  155.2680  116.3040 N.pl3 226  ARG226      0.1354
     54  NH2      168.2250  154.4040  116.8400 N.pl3 226  ARG226      0.1354
     55  N        172.7620  146.8750  123.0460 N.3   321  PHE321     -0.1241
     56  CA       173.0180  148.3040  123.1250 C.3   321  PHE321      0.1605
     57  C        174.0000  148.7870  122.0710 C.2   321  PHE321      0.2264
     58  O        174.0440  149.9810  121.7770 O.2   321  PHE321     -0.2867
     59  CB       173.5660  148.6350  124.5140 C.3   321  PHE321      0.0534
     60  CG       173.5520  150.0810  124.8560 C.ar  321  PHE321     -0.0203
     61  CD1      172.4150  150.6650  125.3470 C.ar  321  PHE321     -0.0042
     62  CD2      174.6720  150.8470  124.7030 C.ar  321  PHE321     -0.0042
     63  CE1      172.3890  151.9900  125.6760 C.ar  321  PHE321     -0.0003
     64  CE2      174.6600  152.1750  125.0280 C.ar  321  PHE321     -0.0003
     65  CZ       173.5150  152.7450  125.5190 C.ar  321  PHE321     -0.0000
     66  N        171.1980  149.8990  118.3830 N.3   324  LEU324     -0.1245
     67  CA       170.2920  151.0560  118.3340 C.3   324  LEU324      0.1561
     68  C        169.4800  151.1120  117.0380 C.2   324  LEU324      0.2260
     69  O        169.5690  152.0580  116.2590 O.2   324  LEU324     -0.2867
     70  CB       171.0540  152.3650  118.5410 C.3   324  LEU324      0.0270
     71  CG       171.1380  153.0070  119.9180 C.3   324  LEU324      0.0019
     72  CD1      169.7840  153.4970  120.2680 C.3   324  LEU324      0.0001
     73  CD2      171.6200  152.0560  120.9620 C.3   324  LEU324      0.0001
     74  N        165.5650  150.6330  122.1140 N.3   329  VAL329     -0.1245
     75  CA       165.4320  151.5840  123.2150 C.3   329  VAL329      0.1561
     76  C        164.2510  151.2170  124.1020 C.2   329  VAL329      0.2260
     77  O        164.2270  151.5700  125.2870 O.2   329  VAL329     -0.2867
     78  CB       165.3030  153.0120  122.6430 C.3   329  VAL329      0.0252
     79  CG1      165.3150  154.0740  123.7150 C.3   329  VAL329      0.0019
     80  CG2      166.4100  153.2670  121.6900 C.3   329  VAL329      0.0019
     81  N        165.8840  148.4500  126.4000 N.3   332  ILE332     -0.1231
     82  CA       166.8960  149.0800  127.2480 C.3   332  ILE332      0.1692
     83  C        166.2600  150.0390  128.2550 C.2   332  ILE332      0.2591
     84  O        166.7140  150.1420  129.3980 O.2   332  ILE332     -0.2718
     85  CB       167.9340  149.7610  126.3420 C.3   332  ILE332      0.0266
     86  CG1      168.6610  148.6920  125.5460 C.3   332  ILE332      0.0019
     87  CG2      168.9460  150.5350  127.1280 C.3   332  ILE332      0.0020
     88  CD1      169.3680  149.2040  124.3520 C.3   332  ILE332      0.0001
     89  N        165.1650  150.6950  127.8850 N.am  333  ALA333     -0.1980
     90  CA       164.4770  151.5710  128.8240 C.3   333  ALA333      0.1597
     91  C        163.5970  150.8050  129.7980 C.2   333  ALA333      0.2287
     92  O        163.3790  151.2700  130.9170 O.2   333  ALA333     -0.2864
     93  CB       163.6330  152.5920  128.0690 C.3   333  ALA333      0.0319
     94  N        166.2100  148.9460  132.8670 N.3   336  VAL336     -0.1231
     95  CA       166.7460  149.7290  133.9760 C.3   336  VAL336      0.1692
     96  C        165.6300  150.1590  134.9210 C.2   336  VAL336      0.2591
     97  O        165.7370  150.0160  136.1480 O.2   336  VAL336     -0.2718
     98  CB       167.5180  150.9390  133.4290 C.3   336  VAL336      0.0266
     99  CG1      167.9820  151.8130  134.5440 C.3   336  VAL336      0.0020
    100  CG2      168.6860  150.4740  132.6000 C.3   336  VAL336      0.0020
    101  N        164.5360  150.6660  134.3510 N.am  337  LEU337     -0.1980
    102  CA       163.4160  151.1690  135.1370 C.3   337  LEU337      0.1596
    103  C        162.7470  150.0650  135.9410 C.2   337  LEU337      0.2287
    104  O        162.4020  150.2650  137.1090 O.2   337  LEU337     -0.2864
    105  CB       162.4010  151.8310  134.2130 C.3   337  LEU337      0.0297
    106  CG       161.1820  152.4310  134.8910 C.3   337  LEU337      0.0022
    107  CD1      161.6180  153.5760  135.7690 C.3   337  LEU337      0.0001
    108  CD2      160.1820  152.8860  133.8590 C.3   337  LEU337      0.0001
@<TRIPOS>BOND
     1    47    46    2
     2    46    45    1
     3    45    48    1
     4    45    44    1
     5    49    48    1
     6    49    50    1
     7    51    50    1
     8    51    52    2
     9    69    68    2
    10    53    52    1
    11    52    54    1
    12    68    67    1
    13    39    38    2
    14    67    66    1
    15    67    70    1
    16    70    71    1
    17    38    37    1
    18    71    72    1
    19    71    73    1
    20    40    37    1
    21    40    41    1
    22    37    36    1
    23    42    41    1
    24    42    43    1
    25    36    30   am
    26    31    30    2
    27    80    78    1
    28    30    29    1
    29    58    57    2
    30    28    29    1
    31    57    56    1
    32    74    75    1
    33    29    32    1
    34    78    75    1
    35    78    79    1
    36    23    22    2
    37    55    56    1
    38    56    59    1
    39    75    76    1
    40    22    21    1
    41    32    33    1
    42    76    77    2
    43    88    86    1
    44    35    33    1
    45    59    60    1
    46     9    10    1
    47    62    60   ar
    48    62    64   ar
    49    33    34    1
    50    12    11    2
    51    60    61   ar
    52    21    20    1
    53    21    24    1
    54    64    65   ar
    55    11    10    1
    56    11    20   am
    57    10    13    1
    58    61    63   ar
    59    65    63   ar
    60    86    85    1
    61    24    25    1
    62    85    87    1
    63    85    82    1
    64    81    82    1
    65    13    14    1
    66    15    14   ar
    67    15    17   ar
    68     4     3    2
    69    25    27    1
    70    25    26    1
    71    14    16   ar
    72     3     2    1
    73    17    19   ar
    74    82    83    1
    75    89    83   am
    76    89    90    1
    77    16    18   ar
    78    93    90    1
    79    19    18   ar
    80     1     2    1
    81    83    84    2
    82     2     5    1
    83    90    91    1
    84     5     6    1
    85     7     6    1
    86    91    92    2
    87     8     6    1
    88   100    98    1
    89    94    95    1
    90    98    95    1
    91    98    99    1
    92   108   106    1
    93    95    96    1
    94   105   106    1
    95   105   102    1
    96   101    96   am
    97   101   102    1
    98   106   107    1
    99    96    97    2
   100   102   103    1
   101   103   104    2
