@<TRIPOS>MOLECULE
tmp/6c26G00.pdb
 74 69 0 0 0
SMALL
GASTEIGER

@<TRIPOS>ATOM
      1  N        128.5140  150.1220   99.6210 N.3   199  PHE199     -0.1241
      2  CA       129.4850  150.7500  100.5040 C.3   199  PHE199      0.1605
      3  C        128.8910  151.8530  101.3670 C.2   199  PHE199      0.2264
      4  O        129.3490  152.0420  102.4970 O.2   199  PHE199     -0.2867
      5  CB       130.6560  151.3130   99.6940 C.3   199  PHE199      0.0534
      6  CG       131.6990  151.9970  100.5250 C.ar  199  PHE199     -0.0203
      7  CD1      132.5640  151.2660  101.3100 C.ar  199  PHE199     -0.0042
      8  CD2      131.8180  153.3730  100.5110 C.ar  199  PHE199     -0.0042
      9  CE1      133.5230  151.8980  102.0750 C.ar  199  PHE199     -0.0003
     10  CE2      132.7710  154.0030  101.2680 C.ar  199  PHE199     -0.0003
     11  CZ       133.6240  153.2670  102.0500 C.ar  199  PHE199     -0.0000
     12  N        126.5630  150.2130  104.5130 N.3   202  THR202     -0.1203
     13  CA       127.1370  149.5870  105.6950 C.3   202  THR202      0.1994
     14  C        127.6530  150.6140  106.6850 C.2   202  THR202      0.2617
     15  O        127.6670  150.3490  107.8820 O.2   202  THR202     -0.2717
     16  CB       128.2610  148.6480  105.3030 C.3   202  THR202      0.1784
     17  OG1      129.3770  149.4100  104.8560 O.3   202  THR202     -0.2211
     18  CG2      127.7860  147.7920  104.1760 C.3   202  THR202      0.0376
     19  N        128.0680  151.7890  106.2180 N.am  203  ILE203     -0.1979
     20  CA       128.4900  152.8250  107.1540 C.3   203  ILE203      0.1595
     21  C        127.2830  153.4820  107.8050 C.2   203  ILE203      0.2287
     22  O        127.2710  153.7190  109.0260 O.2   203  ILE203     -0.2864
     23  CB       129.3810  153.8450  106.4360 C.3   203  ILE203      0.0276
     24  CG1      130.5360  153.1220  105.7650 C.3   203  ILE203      0.0022
     25  CG2      129.9320  154.8410  107.4150 C.3   203  ILE203      0.0022
     26  CD1      131.3830  152.3290  106.7290 C.3   203  ILE203      0.0001
     27  N        126.2150  151.1390  110.2280 N.3   206  PHE206     -0.1241
     28  CA       126.9730  151.1930  111.4700 C.3   206  PHE206      0.1605
     29  C        126.7740  152.4800  112.2380 C.2   206  PHE206      0.2264
     30  O        127.4010  152.6480  113.2820 O.2   206  PHE206     -0.2867
     31  CB       128.4690  150.9970  111.2440 C.3   206  PHE206      0.0534
     32  CG       128.9000  149.5720  111.2460 C.ar  206  PHE206     -0.0203
     33  CD1      128.9130  148.8570  112.4220 C.ar  206  PHE206     -0.0042
     34  CD2      129.3790  148.9670  110.1060 C.ar  206  PHE206     -0.0042
     35  CE1      129.3370  147.5500  112.4460 C.ar  206  PHE206     -0.0003
     36  CE2      129.7950  147.6580  110.1180 C.ar  206  PHE206     -0.0003
     37  CZ       129.7760  146.9510  111.2890 C.ar  206  PHE206     -0.0000
     38  N        127.8900  142.9750  110.0020 N.3   230  GLY230     -0.1225
     39  CA       129.3190  143.2290  109.9670 C.3   230  GLY230      0.1811
     40  C        130.0590  142.4660  108.8870 C.2   230  GLY230      0.2280
     41  O        130.9650  143.0120  108.2560 O.2   230  GLY230     -0.2866
     42  N        129.2500  143.4640  104.7530 N.3   233  GLY233     -0.1210
     43  CA       129.7910  144.7800  104.4830 C.3   233  GLY233      0.1956
     44  C        131.3010  144.8010  104.4620 C.2   233  GLY233      0.2611
     45  O        131.9030  145.6430  103.7880 O.2   233  GLY233     -0.2717
     46  N        131.9300  143.8830  105.1930 N.am  234  LEU234     -0.1979
     47  CA       133.3780  143.7510  105.1340 C.3   234  LEU234      0.1596
     48  C        133.8110  143.2440  103.7700 C.2   234  LEU234      0.2287
     49  O        134.6960  143.8350  103.1290 O.2   234  LEU234     -0.2864
     50  CB       133.8510  142.8180  106.2440 C.3   234  LEU234      0.0297
     51  CG       135.3290  142.6790  106.5740 C.3   234  LEU234      0.0022
     52  CD1      135.4420  142.4730  108.0610 C.3   234  LEU234      0.0001
     53  CD2      135.9370  141.5000  105.8650 C.3   234  LEU234      0.0001
     54  N        132.6810  145.9720  100.9780 N.3   237  SER237     -0.1202
     55  CA       133.4350  147.2200  101.0360 C.3   237  SER237      0.2020
     56  C        134.8900  147.0150  100.6430 C.2   237  SER237      0.2619
     57  O        135.4860  147.8830   99.9860 O.2   237  SER237     -0.2717
     58  CB       133.3390  147.8220  102.4320 C.3   237  SER237      0.2103
     59  OG       132.0040  148.1780  102.7290 O.3   237  SER237     -0.2182
     60  N        135.4690  145.8700  101.0230 N.am  238  THR238     -0.1952
     61  CA       136.8240  145.5450  100.5890 C.3   238  THR238      0.1897
     62  C        136.9000  145.4120   99.0760 C.2   238  THR238      0.2313
     63  O        137.8200  145.9470   98.4430 O.2   238  THR238     -0.2863
     64  CB       137.2830  144.2600  101.2660 C.3   238  THR238      0.1794
     65  OG1      137.3160  144.4590  102.6810 O.3   238  THR238     -0.2208
     66  CG2      138.6550  143.8600  100.8010 C.3   238  THR238      0.0378
     67  N        136.7190  149.0360   97.4890 N.3   241  LEU241     -0.1245
     68  CA       137.9730  149.7900   97.5620 C.3   241  LEU241      0.1561
     69  C        139.0510  149.1740   96.6850 C.2   241  LEU241      0.2260
     70  O        139.9280  149.8880   96.1950 O.2   241  LEU241     -0.2867
     71  CB       138.4840  149.8920   98.9970 C.3   241  LEU241      0.0270
     72  CG       138.0910  151.0840   99.8660 C.3   241  LEU241      0.0019
     73  CD1      138.5370  152.3580   99.1960 C.3   241  LEU241      0.0001
     74  CD2      136.6180  151.1260  100.1600 C.3   241  LEU241      0.0001
@<TRIPOS>BOND
     1    70    69    2
     2    69    68    1
     3    67    68    1
     4    68    71    1
     5    63    62    2
     6    71    72    1
     7    62    61    1
     8    73    72    1
     9     1     2    1
    10     5     2    1
    11     5     6    1
    12    72    74    1
    13    57    56    2
    14     2     3    1
    15     8     6   ar
    16     8    10   ar
    17     6     7   ar
    18    61    60    1
    19    61    64    1
    20    56    60   am
    21    56    55    1
    22    66    64    1
    23    54    55    1
    24    55    58    1
    25    64    65    1
    26    10    11   ar
    27     7     9   ar
    28     3     4    2
    29    11     9   ar
    30    58    59    1
    31    49    48    2
    32    48    47    1
    33    45    44    2
    34    18    16    1
    35    44    43    1
    36    44    46   am
    37    43    42    1
    38    12    13    1
    39    17    16    1
    40    47    46    1
    41    47    50    1
    42    16    13    1
    43    13    14    1
    44    24    23    1
    45    24    26    1
    46    53    51    1
    47    19    14   am
    48    19    20    1
    49    50    51    1
    50    23    20    1
    51    23    25    1
    52    51    52    1
    53    14    15    2
    54    20    21    1
    55    21    22    2
    56    41    40    2
    57    40    39    1
    58    39    38    1
    59    34    36   ar
    60    34    32   ar
    61    36    37   ar
    62    27    28    1
    63    31    32    1
    64    31    28    1
    65    32    33   ar
    66    37    35   ar
    67    28    29    1
    68    29    30    2
    69    33    35   ar
