@<TRIPOS>MOLECULE
tmp/6c26A06.pdb
 133 130 0 0 0
SMALL
GASTEIGER

@<TRIPOS>ATOM
      1  N        124.1730  138.5780  133.9320 N.3    59  PHE59      -0.1227
      2  CA       125.2850  139.5210  133.9420 C.3    59  PHE59       0.1736
      3  C        124.8400  140.9250  134.3200 C.2    59  PHE59       0.2595
      4  O        125.6610  141.7280  134.7630 O.2    59  PHE59      -0.2718
      5  CB       125.9640  139.5220  132.5670 C.3    59  PHE59       0.0547
      6  CG       127.1100  140.4940  132.4230 C.ar   59  PHE59      -0.0202
      7  CD1      128.3340  140.2480  132.9940 C.ar   59  PHE59      -0.0042
      8  CD2      126.9630  141.6380  131.6710 C.ar   59  PHE59      -0.0042
      9  CE1      129.3810  141.1430  132.8400 C.ar   59  PHE59      -0.0003
     10  CE2      128.0070  142.5280  131.5180 C.ar   59  PHE59      -0.0003
     11  CZ       129.2120  142.2770  132.1010 C.ar   59  PHE59      -0.0000
     12  N        123.5530  141.2350  134.1840 N.am   60  TYR60      -0.1976
     13  CA       123.0760  142.5420  134.6130 C.3    60  TYR60       0.1639
     14  C        123.0100  142.6470  136.1250 C.2    60  TYR60       0.2290
     15  O        123.1530  143.7430  136.6680 O.2    60  TYR60      -0.2864
     16  CB       121.7070  142.8310  134.0060 C.3    60  TYR60       0.0560
     17  CG       121.1500  144.1810  134.3880 C.ar   60  TYR60      -0.0198
     18  CD1      121.6630  145.3440  133.8360 C.ar   60  TYR60      -0.0009
     19  CD2      120.1120  144.2920  135.3040 C.ar   60  TYR60      -0.0009
     20  CE1      121.1580  146.5800  134.1810 C.ar   60  TYR60       0.0417
     21  CE2      119.6050  145.5240  135.6580 C.ar   60  TYR60       0.0417
     22  CZ       120.1310  146.6600  135.0900 C.ar   60  TYR60       0.1957
     23  OH       119.6260  147.8860  135.4360 O.3    60  TYR60      -0.2866
     24  N        126.9980  143.6090  137.6730 N.3    63  LEU63      -0.1245
     25  CA       127.7140  144.8760  137.5770 C.3    63  LEU63       0.1561
     26  C        127.3290  145.8360  138.6890 C.2    63  LEU63       0.2260
     27  O        128.1240  146.7070  139.0520 O.2    63  LEU63      -0.2867
     28  CB       127.4520  145.5270  136.2280 C.3    63  LEU63       0.0270
     29  CG       127.9790  144.7740  135.0200 C.3    63  LEU63       0.0019
     30  CD1      127.4480  145.4390  133.7800 C.3    63  LEU63       0.0001
     31  CD2      129.4840  144.7640  135.0250 C.3    63  LEU63       0.0001
     32  N        136.5290  143.7140  137.3100 N.3    84  PRO84      -0.2102
     33  CA       135.9680  142.6160  136.5250 C.3    84  PRO84       0.1504
     34  C        136.8310  142.3140  135.3200 C.2    84  PRO84       0.2576
     35  O        137.4240  143.1990  134.7080 O.2    84  PRO84      -0.2718
     36  CB       134.6090  143.1590  136.0930 C.3    84  PRO84       0.0282
     37  CG       134.8230  144.6030  136.0080 C.3    84  PRO84       0.0208
     38  CD       135.8080  144.9700  137.0750 C.3    84  PRO84       0.0893
     39  N        136.8780  141.0520  134.9520 N.am   85  GLY85      -0.1957
     40  CA       137.7400  140.6930  133.8550 C.3    85  GLY85       0.1869
     41  C        138.4060  139.3800  134.1290 C.2    85  GLY85       0.2309
     42  O        138.6790  138.6130  133.2100 O.2    85  GLY85      -0.2863
     43  N        134.7450  137.4220  134.2180 N.3    88  THR88      -0.1203
     44  CA       133.8720  137.3750  133.0630 C.3    88  THR88       0.1994
     45  C        134.4660  136.5980  131.8980 C.2    88  THR88       0.2618
     46  O        133.7090  135.9930  131.1280 O.2    88  THR88      -0.2717
     47  CB       133.4830  138.7960  132.6670 C.3    88  THR88       0.1784
     48  OG1      132.5860  138.7480  131.5660 O.3    88  THR88      -0.2211
     49  CG2      134.6510  139.5890  132.2930 C.3    88  THR88       0.0376
     50  N        135.7930  136.5160  131.7830 N.am   89  THR89      -0.1952
     51  CA       136.3490  135.5440  130.8550 C.3    89  THR89       0.1897
     52  C        136.1830  134.1200  131.3670 C.2    89  THR89       0.2313
     53  O        136.1190  133.1910  130.5580 O.2    89  THR89      -0.2863
     54  CB       137.8170  135.8400  130.5570 C.3    89  THR89       0.1794
     55  OG1      138.2810  134.9260  129.5630 O.3    89  THR89      -0.2208
     56  CG2      138.6690  135.6820  131.7650 C.3    89  THR89       0.0378
     57  N        132.7570  133.2030  130.5330 N.3    92  PHE92      -0.1241
     58  CA       132.7240  132.9800  129.0930 C.3    92  PHE92       0.1605
     59  C        133.2350  131.5940  128.7110 C.2    92  PHE92       0.2264
     60  O        132.6470  130.9380  127.8450 O.2    92  PHE92      -0.2867
     61  CB       133.5210  134.0660  128.3940 C.3    92  PHE92       0.0534
     62  CG       133.5910  133.9030  126.9260 C.ar   92  PHE92      -0.0203
     63  CD1      132.4540  133.9930  126.1600 C.ar   92  PHE92      -0.0042
     64  CD2      134.8030  133.7200  126.3000 C.ar   92  PHE92      -0.0042
     65  CE1      132.5150  133.8580  124.8010 C.ar   92  PHE92      -0.0003
     66  CE2      134.8720  133.5900  124.9380 C.ar   92  PHE92      -0.0003
     67  CZ       133.7250  133.6610  124.1880 C.ar   92  PHE92      -0.0000
     68  N        142.8880  148.4020  122.3810 N.3   195  LEU195     -0.1245
     69  CA       141.8440  147.5170  122.8910 C.3   195  LEU195      0.1561
     70  C        142.3870  146.4690  123.8580 C.2   195  LEU195      0.2260
     71  O        141.7150  146.1380  124.8410 O.2   195  LEU195     -0.2867
     72  CB       141.1040  146.8460  121.7440 C.3   195  LEU195      0.0270
     73  CG       140.3100  147.8150  120.8770 C.3   195  LEU195      0.0019
     74  CD1      139.6030  147.0550  119.7800 C.3   195  LEU195      0.0001
     75  CD2      139.3300  148.6020  121.7090 C.3   195  LEU195      0.0001
     76  N        142.7380  148.2130  127.0330 N.3   198  PHE198     -0.1227
     77  CA       141.4660  148.2370  127.7560 C.3   198  PHE198      0.1736
     78  C        141.1720  146.9080  128.4240 C.2   198  PHE198      0.2595
     79  O        140.5690  146.8650  129.4970 O.2   198  PHE198     -0.2718
     80  CB       140.3340  148.6030  126.8070 C.3   198  PHE198      0.0547
     81  CG       138.9660  148.3750  127.3710 C.ar  198  PHE198     -0.0202
     82  CD1      138.4620  149.1960  128.3480 C.ar  198  PHE198     -0.0042
     83  CD2      138.1800  147.3460  126.9070 C.ar  198  PHE198     -0.0042
     84  CE1      137.2010  148.9970  128.8550 C.ar  198  PHE198     -0.0003
     85  CE2      136.9240  147.1400  127.4140 C.ar  198  PHE198     -0.0003
     86  CZ       136.4370  147.9690  128.3900 C.ar  198  PHE198     -0.0000
     87  N        141.5530  145.8090  127.8020 N.am  199  TYR199     -0.1976
     88  CA       141.2970  144.5260  128.4320 C.3   199  TYR199      0.1639
     89  C        142.3250  144.1940  129.5010 C.2   199  TYR199      0.2290
     90  O        142.1180  143.2550  130.2690 O.2   199  TYR199     -0.2864
     91  CB       141.2150  143.4620  127.3380 C.3   199  TYR199      0.0560
     92  CG       140.8870  142.0690  127.7840 C.ar  199  TYR199     -0.0198
     93  CD1      139.7510  141.8110  128.5190 C.ar  199  TYR199     -0.0009
     94  CD2      141.6530  141.0000  127.3690 C.ar  199  TYR199     -0.0009
     95  CE1      139.4370  140.5350  128.9070 C.ar  199  TYR199      0.0417
     96  CE2      141.3430  139.7210  127.7410 C.ar  199  TYR199      0.0417
     97  CZ       140.2330  139.4950  128.5080 C.ar  199  TYR199      0.1957
     98  OH       139.9140  138.2170  128.8840 O.3   199  TYR199     -0.2866
     99  N        141.3320  146.4440  133.0810 N.3   202  SER202     -0.1217
    100  CA       140.1860  146.0090  133.8550 C.3   202  SER202      0.1889
    101  C        140.4480  144.7560  134.6660 C.2   202  SER202      0.2288
    102  O        139.7300  144.5150  135.6280 O.2   202  SER202     -0.2866
    103  CB       138.9870  145.7700  132.9430 C.3   202  SER202      0.2089
    104  OG       139.2000  144.6410  132.1410 O.3   202  SER202     -0.2183
    105  N        138.8090  154.7130  126.5920 N.3   245  ALA245     -0.1245
    106  CA       138.4730  153.3500  126.9740 C.3   245  ALA245      0.1562
    107  C        138.8420  153.0670  128.4260 C.2   245  ALA245      0.2260
    108  O        138.1750  152.2620  129.0760 O.2   245  ALA245     -0.2867
    109  CB       139.1600  152.3560  126.0480 C.3   245  ALA245      0.0290
    110  N        136.0310  154.0920  131.1450 N.3   248  GLN248     -0.1231
    111  CA       134.7250  153.4420  131.1620 C.3   248  GLN248      0.1698
    112  C        134.5650  152.5340  132.3630 C.2   248  GLN248      0.2592
    113  O        133.4470  152.3380  132.8410 O.2   248  GLN248     -0.2718
    114  CB       134.5270  152.6280  129.8940 C.3   248  GLN248      0.0381
    115  CG       134.6700  153.4400  128.6520 C.3   248  GLN248      0.0905
    116  CD       133.5990  154.4680  128.5290 C.2   248  GLN248      0.2608
    117  OE1      132.4330  154.1880  128.7680 O.2   248  GLN248     -0.2717
    118  NE2      133.9830  155.6800  128.1840 N.am  248  GLN248     -0.0878
    119  N        135.6580  151.9610  132.8420 N.am  249  ILE249     -0.1966
    120  CA       135.6550  151.0680  133.9920 C.3   249  ILE249      0.1712
    121  C        135.4280  151.9180  135.2340 C.2   249  ILE249      0.2458
    122  O        136.2270  152.8220  135.4920 O.2   249  ILE249     -0.2730
    123  CB       136.9810  150.3000  134.0750 C.3   249  ILE249      0.0289
    124  CG1      137.2580  149.5910  132.7640 C.3   249  ILE249      0.0022
    125  CG2      136.9530  149.2960  135.1790 C.3   249  ILE249      0.0023
    126  CD1      136.2270  148.5950  132.4020 C.3   249  ILE249      0.0001
    127  N        134.3730  151.7080  136.0170 N.am  250  PRO250     -0.2727
    128  CA       134.3180  152.3440  137.3320 C.3   250  PRO250      0.1402
    129  C        135.3200  151.6620  138.2380 C.2   250  PRO250      0.2269
    130  O        135.7360  150.5360  137.9630 O.2   250  PRO250     -0.2865
    131  CB       132.8840  152.0960  137.7900 C.3   250  PRO250      0.0296
    132  CG       132.5230  150.8590  137.1230 C.3   250  PRO250      0.0237
    133  CD       133.1950  150.8620  135.7880 C.3   250  PRO250      0.0939
@<TRIPOS>BOND
     1    74    73    1
     2    73    75    1
     3    73    72    1
     4    72    69    1
     5    68    69    1
     6    69    70    1
     7    70    71    2
     8    67    65   ar
     9    67    66   ar
    10    65    63   ar
    11    66    64   ar
    12   109   106    1
    13    63    62   ar
    14    64    62   ar
    15   105   106    1
    16    80    81    1
    17    80    77    1
    18    83    81   ar
    19    83    85   ar
    20    62    61    1
    21   106   107    1
    22    76    77    1
    23    91    92    1
    24    91    88    1
    25    94    96   ar
    26    94    92   ar
    27    81    82   ar
    28    85    86   ar
    29    96    97   ar
    30    77    78    1
    31    92    93   ar
    32    87    78   am
    33    87    88    1
    34    60    59    2
    35   118   116   am
    36    82    84   ar
    37    86    84   ar
    38    61    58    1
    39    78    79    2
    40   107   108    2
    41    88    89    1
    42    97    98    1
    43    97    95   ar
    44    93    95   ar
    45   116   115    1
    46   116   117    2
    47   115   114    1
    48    59    58    1
    49    58    57    1
    50    89    90    2
    51    55    54    1
    52   114   111    1
    53    54    51    1
    54    54    56    1
    55    53    52    2
    56    51    52    1
    57    51    50    1
    58    46    45    2
    59   110   111    1
    60   111   112    1
    61    10     8   ar
    62    10    11   ar
    63    48    47    1
    64     8     6   ar
    65    50    45   am
    66    45    44    1
    67    11     9   ar
    68   104   103    1
    69    49    47    1
    70   112   113    2
    71   112   119   am
    72   126   124    1
    73     6     5    1
    74     6     7   ar
    75     5     2    1
    76    47    44    1
    77   124   123    1
    78     9     7   ar
    79   119   120    1
    80   103   100    1
    81    44    43    1
    82    99   100    1
    83    42    41    2
    84    30    29    1
    85    18    20   ar
    86    18    17   ar
    87    40    41    1
    88    40    39    1
    89   100   101    1
    90     1     2    1
    91     2     3    1
    92   120   123    1
    93   120   121    1
    94    16    17    1
    95    16    13    1
    96   123   125    1
    97    20    22   ar
    98    12     3   am
    99    12    13    1
   100     3     4    2
   101    17    19   ar
   102    13    14    1
   103   101   102    2
   104    35    34    2
   105    39    34   am
   106    29    31    1
   107    29    28    1
   108    22    23    1
   109    22    21   ar
   110   121   122    2
   111   121   127   am
   112    19    21   ar
   113    34    33    1
   114   133   127    1
   115   133   132    1
   116    37    36    1
   117    37    38    1
   118   127   128    1
   119    36    33    1
   120    14    15    2
   121    28    25    1
   122    33    32    1
   123    38    32    1
   124   132   131    1
   125   128   131    1
   126   128   129    1
   127    25    24    1
   128    25    26    1
   129   130   129    2
   130    26    27    2
