@<TRIPOS>MOLECULE
tmp/6c28A00.pdb
 156 154 0 0 0
SMALL
GASTEIGER

@<TRIPOS>ATOM
      1  N        116.5100   16.6980  153.6880 N.3    22  VAL22      -0.1231
      2  CA       115.6740   16.4360  154.8620 C.3    22  VAL22       0.1692
      3  C        116.0850   15.0850  155.5250 C.2    22  VAL22       0.2592
      4  O        116.2030   14.9880  156.7550 O.2    22  VAL22      -0.2718
      5  CB       114.2060   16.5020  154.4580 C.3    22  VAL22       0.0266
      6  CG1      113.3010   16.0180  155.5690 C.3    22  VAL22       0.0020
      7  CG2      113.8410   17.9380  154.0400 C.3    22  VAL22       0.0020
      8  N        116.3390   14.0590  154.7060 N.am   23  PHE23      -0.1976
      9  CA       116.8330   12.7860  155.2200 C.3    23  PHE23       0.1639
     10  C        118.1650   12.9420  155.9710 C.2    23  PHE23       0.2290
     11  O        118.3120   12.4840  157.1020 O.2    23  PHE23      -0.2864
     12  CB       116.9590   11.7400  154.1120 C.3    23  PHE23       0.0560
     13  CG       115.6880   10.9680  153.8490 C.ar   23  PHE23      -0.0200
     14  CD1      114.4480   11.5970  153.8020 C.ar   23  PHE23      -0.0042
     15  CD2      115.7420    9.6010  153.5750 C.ar   23  PHE23      -0.0042
     16  CE1      113.2890   10.8820  153.5090 C.ar   23  PHE23      -0.0003
     17  CE2      114.5770    8.8830  153.3090 C.ar   23  PHE23      -0.0003
     18  CZ       113.3470    9.5390  153.2990 C.ar   23  PHE23      -0.0000
     19  N        117.5060   14.5730  159.1970 N.3    26  PHE26      -0.1241
     20  CA       116.8560   13.5500  160.0300 C.3    26  PHE26       0.1605
     21  C        117.8870   12.6420  160.6610 C.2    26  PHE26       0.2264
     22  O        117.8510   12.4260  161.8530 O.2    26  PHE26      -0.2867
     23  CB       115.8780   12.7210  159.2180 C.3    26  PHE26       0.0534
     24  CG       115.0630   11.7380  160.0410 C.ar   26  PHE26      -0.0203
     25  CD1      115.6500   10.5680  160.5720 C.ar   26  PHE26      -0.0042
     26  CD2      113.7570   11.9820  160.2930 C.ar   26  PHE26      -0.0042
     27  CE1      114.9080    9.6920  161.2680 C.ar   26  PHE26      -0.0003
     28  CE2      112.9960   11.0950  161.0300 C.ar   26  PHE26      -0.0003
     29  CZ       113.5780    9.9610  161.5360 C.ar   26  PHE26      -0.0000
     30  N        117.0720    5.4270  160.9530 N.3    36  THR36      -0.1204
     31  CA       116.8380    6.0630  159.6590 C.3    36  THR36       0.1979
     32  C        115.3870    6.4940  159.5780 C.2    36  THR36       0.2460
     33  O        114.5590    6.0160  160.3610 O.2    36  THR36      -0.2732
     34  CB       117.0930    5.0940  158.4820 C.3    36  THR36       0.1783
     35  OG1      116.1160    4.0380  158.5110 O.3    36  THR36      -0.2211
     36  CG2      118.4710    4.5190  158.5690 C.3    36  THR36       0.0376
     37  N        115.0460    7.3220  158.5970 N.am   37  PRO37      -0.2717
     38  CA       113.6340    7.6720  158.4410 C.3    37  PRO37       0.1535
     39  C        112.6880    6.4700  158.2310 C.2    37  PRO37       0.2598
     40  O        111.5740    6.4440  158.8000 O.2    37  PRO37      -0.2715
     41  CB       113.6210    8.6160  157.2580 C.3    37  PRO37       0.0310
     42  CG       115.0010    9.2000  157.2280 C.3    37  PRO37       0.0237
     43  CD       115.9390    8.2280  157.8720 C.3    37  PRO37       0.0939
     44  N        113.1100    5.5020  157.4280 N.am   38  ALA38      -0.1964
     45  CA       112.2890    4.3070  157.2340 C.3    38  ALA38       0.1728
     46  C        112.1830    3.4490  158.5020 C.2    38  ALA38       0.2616
     47  O        111.1380    2.9680  158.8120 O.2    38  ALA38      -0.2715
     48  CB       112.7410    3.4950  156.0310 C.3    38  ALA38       0.0334
     49  N        113.2360    3.3350  159.2520 N.am   39  GLN39      -0.1963
     50  CA       113.2470    2.5690  160.4930 C.3    39  GLN39       0.1733
     51  C        112.2740    3.1800  161.4790 C.2    39  GLN39       0.2616
     52  O        111.4790    2.4700  162.0870 O.2    39  GLN39      -0.2715
     53  CB       114.6650    2.5480  161.1110 C.3    39  GLN39       0.0408
     54  CG       115.5610    1.5290  160.4530 C.3    39  GLN39       0.0908
     55  CD       116.9870    1.5860  160.8750 C.2    39  GLN39       0.2608
     56  OE1      117.4580    2.4990  161.5770 O.2    39  GLN39      -0.2717
     57  NE2      117.6910    0.5340  160.5310 N.am   39  GLN39      -0.0878
     58  N        112.3760    4.5020  161.6380 N.am   40  PHE40      -0.1960
     59  CA       111.4240    5.2830  162.4350 C.3    40  PHE40       0.1771
     60  C        109.9760    5.0690  161.9920 C.2    40  PHE40       0.2620
     61  O        109.0880    4.8560  162.8390 O.2    40  PHE40      -0.2715
     62  CB       111.8370    6.7660  162.4140 C.3    40  PHE40       0.0574
     63  CG       110.8480    7.6810  163.0360 C.ar   40  PHE40      -0.0200
     64  CD1      110.7810    7.8210  164.4200 C.ar   40  PHE40      -0.0042
     65  CD2      109.9900    8.4200  162.2580 C.ar   40  PHE40      -0.0042
     66  CE1      109.8560    8.6980  165.0070 C.ar   40  PHE40      -0.0003
     67  CE2      109.0830    9.2990  162.8270 C.ar   40  PHE40      -0.0003
     68  CZ       109.0070    9.4420  164.2150 C.ar   40  PHE40      -0.0000
     69  N        109.7320    5.0760  160.6760 N.am   41  SER41      -0.1950
     70  CA       108.4150    4.9210  160.1750 C.3    41  SER41       0.1924
     71  C        107.8730    3.5140  160.4770 C.2    41  SER41       0.2314
     72  O        106.7050    3.3620  160.8400 O.2    41  SER41      -0.2863
     73  CB       108.3640    5.2400  158.6840 C.3    41  SER41       0.2116
     74  OG       108.9090    6.5150  158.4430 O.3    41  SER41      -0.2180
     75  N        104.0890    1.4280  153.5080 N.3    61  LEU61      -0.1231
     76  CA       105.2220    2.3010  153.3720 C.3    61  LEU61       0.1693
     77  C        105.9000    2.3140  151.9750 C.2    61  LEU61       0.2593
     78  O        106.8460    3.0500  151.8270 O.2    61  LEU61      -0.2718
     79  CB       106.2720    1.9980  154.4590 C.3    61  LEU61       0.0284
     80  CG       105.8350    2.3220  155.8680 C.3    61  LEU61       0.0019
     81  CD1      106.8990    1.7850  156.8250 C.3    61  LEU61       0.0001
     82  CD2      105.5930    3.8230  156.0830 C.3    61  LEU61       0.0001
     83  N        105.4180    1.5530  150.9860 N.am   62  GLY62      -0.1942
     84  CA       106.0180    1.5070  149.6540 C.3    62  GLY62       0.2014
     85  C        107.4110    0.8850  149.6540 C.2    62  GLY62       0.2639
     86  O        108.3290    1.3760  149.0550 O.2    62  GLY62      -0.2714
     87  N        107.5790   -0.1850  150.3800 N.am   63  ILE63      -0.1963
     88  CA       108.8500   -0.8490  150.4390 C.3    63  ILE63       0.1727
     89  C        108.6170   -2.1950  149.8000 C.2    63  ILE63       0.2616
     90  O        107.6510   -2.8850  150.1550 O.2    63  ILE63      -0.2715
     91  CB       109.2600   -1.0400  151.8920 C.3    63  ILE63       0.0290
     92  CG1      109.3840    0.2960  152.6140 C.3    63  ILE63       0.0022
     93  CG2      110.5360   -1.8440  151.9530 C.3    63  ILE63       0.0023
     94  CD1      109.6570    0.1390  154.1380 C.3    63  ILE63       0.0001
     95  N        109.4990   -2.5990  148.9000 N.am   64  LEU64      -0.1977
     96  CA       109.4280   -3.9490  148.3250 C.3    64  LEU64       0.1596
     97  C        109.8520   -5.0110  149.3560 C.2    64  LEU64       0.2287
     98  O        110.5850   -4.7610  150.3130 O.2    64  LEU64      -0.2864
     99  CB       110.3280   -4.0400  147.0860 C.3    64  LEU64       0.0297
    100  CG       109.9450   -3.0400  145.9870 C.3    64  LEU64       0.0022
    101  CD1      111.1290   -2.8450  145.0430 C.3    64  LEU64       0.0001
    102  CD2      108.6940   -3.5590  145.2680 C.3    64  LEU64       0.0001
    103  N        111.7940   -7.9330  149.4560 N.3    66  PRO66      -0.2102
    104  CA       113.1580   -8.2990  149.8930 C.3    66  PRO66       0.1504
    105  C        113.8710   -7.1730  150.7360 C.2    66  PRO66       0.2575
    106  O        114.5400   -7.4310  151.7340 O.2    66  PRO66      -0.2718
    107  CB       113.8960   -8.5530  148.5770 C.3    66  PRO66       0.0282
    108  CG       112.8460   -8.5910  147.5080 C.3    66  PRO66       0.0208
    109  CD       111.6790   -7.8490  147.9850 C.3    66  PRO66       0.0893
    110  N        113.6190   -5.9390  150.3870 N.am   67  ASN67      -0.1975
    111  CA       114.1790   -4.7850  151.1350 C.3    67  ASN67       0.1688
    112  C        113.5720   -4.7700  152.5530 C.2    67  ASN67       0.2292
    113  O        114.2140   -4.4320  153.5580 O.2    67  ASN67      -0.2864
    114  CB       113.8010   -3.4800  150.4020 C.3    67  ASN67       0.1181
    115  CG       114.1960   -3.4650  148.8830 C.2    67  ASN67       0.2629
    116  OD1      114.8020   -2.5290  148.4310 O.2    67  ASN67      -0.2716
    117  ND2      113.7720   -4.4410  148.1150 N.am   67  ASN67      -0.0877
    118  N        115.1170   -7.3570  154.7730 N.3    70  ALA70      -0.1231
    119  CA       116.4380   -6.9900  155.2860 C.3    70  ALA70       0.1694
    120  C        116.3120   -5.9630  156.4240 C.2    70  ALA70       0.2591
    121  O        117.0150   -6.0450  157.4290 O.2    70  ALA70      -0.2718
    122  CB       117.3600   -6.4430  154.1950 C.3    70  ALA70       0.0304
    123  N        115.4220   -5.0080  156.2650 N.am   71  MET71      -0.1979
    124  CA       115.2370   -4.0440  157.3170 C.3    71  MET71       0.1605
    125  C        114.6330   -4.6830  158.5730 C.2    71  MET71       0.2287
    126  O        115.0460   -4.3190  159.6670 O.2    71  MET71      -0.2864
    127  CB       114.5070   -2.7970  156.7850 C.3    71  MET71       0.0413
    128  CG       113.0750   -2.5520  157.1670 C.3    71  MET71       0.0598
    129  SD       112.6050   -0.9340  156.4820 S.3    71  MET71      -0.1393
    130  CE       113.2750    0.1360  157.7490 C.3    71  MET71       0.0692
    131  N        112.4840   14.0260  166.5520 N.3   108  VAL108     -0.1245
    132  CA       111.9880   14.4360  165.2180 C.3   108  VAL108      0.1561
    133  C        111.2380   15.7800  165.3700 C.2   108  VAL108      0.2260
    134  O        111.5800   16.7350  164.6930 O.2   108  VAL108     -0.2867
    135  CB       111.1180   13.3480  164.5540 C.3   108  VAL108      0.0252
    136  CG1      110.4250   13.8400  163.2870 C.3   108  VAL108      0.0019
    137  CG2      111.9680   12.1070  164.2600 C.3   108  VAL108      0.0019
    138  N        113.9330   18.4460  164.5030 N.3   112  HIS112     -0.1226
    139  CA       113.9510   18.2740  163.0210 C.3   112  HIS112      0.1752
    140  C        112.8090   19.0580  162.4000 C.2   112  HIS112      0.2595
    141  O        113.0320   20.0590  161.7330 O.2   112  HIS112     -0.2718
    142  CB       113.9270   16.7750  162.6250 C.3   112  HIS112      0.0759
    143  CG       113.8580   16.5210  161.1540 C.ar  112  HIS112      0.0818
    144  ND1      114.9030   16.7930  160.3020 N.ar  112  HIS112     -0.2268
    145  CD2      112.8600   16.0280  160.3850 C.ar  112  HIS112      0.1154
    146  CE1      114.5590   16.4310  159.0700 C.ar  112  HIS112      0.1986
    147  NE2      113.3220   15.9750  159.0900 N.ar  112  HIS112     -0.2212
    148  N        111.5970   18.6040  162.6450 N.am  113  GLU113     -0.1979
    149  CA       110.4110   19.2090  162.0570 C.3   113  GLU113      0.1602
    150  C        110.2140   20.6940  162.3770 C.2   113  GLU113      0.2287
    151  O        109.9170   21.4840  161.5070 O.2   113  GLU113     -0.2864
    152  CB       109.1660   18.4680  162.5370 C.3   113  GLU113      0.0415
    153  CG       108.0020   18.5970  161.5650 C.3   113  GLU113      0.1163
    154  CD       108.2280   17.8940  160.2040 C.2   113  GLU113      0.3649
    155  OE1      107.3260   18.0590  159.3540 O.co2 113  GLU113     -0.2457
    156  OE2      109.2440   17.1890  159.9860 O.co2 113  GLU113     -0.2457
@<TRIPOS>BOND
     1   101   100    1
     2   102   100    1
     3   100    99    1
     4    99    96    1
     5   108   109    1
     6   108   107    1
     7   109   103    1
     8   117   115   am
     9    96    95    1
    10    96    97    1
    11   116   115    2
    12   107   104    1
    13   115   114    1
    14    95    89   am
    15    86    85    2
    16    97    98    2
    17   103   104    1
    18    84    85    1
    19    84    83    1
    20    85    87   am
    21    89    90    2
    22    89    88    1
    23   104   105    1
    24    87    88    1
    25   110   105   am
    26   110   111    1
    27   114   111    1
    28    88    91    1
    29   105   106    2
    30    83    77   am
    31   111   112    1
    32    78    77    2
    33    91    93    1
    34    91    92    1
    35    77    76    1
    36   112   113    2
    37    92    94    1
    38    18    17   ar
    39    18    16   ar
    40    17    15   ar
    41    76    75    1
    42    76    79    1
    43    16    14   ar
    44    15    13   ar
    45     1     2    1
    46    14    13   ar
    47    13    12    1
    48     7     5    1
    49    12     9    1
    50   122   119    1
    51     5     2    1
    52     5     6    1
    53    79    80    1
    54     8     9    1
    55     8     3   am
    56   118   119    1
    57     2     3    1
    58     9    10    1
    59   119   120    1
    60     3     4    2
    61    80    82    1
    62    80    81    1
    63    10    11    2
    64    48    45    1
    65   123   120   am
    66   123   124    1
    67   120   121    2
    68   129   128    1
    69   129   130    1
    70   127   128    1
    71   127   124    1
    72    42    41    1
    73    42    43    1
    74    45    44    1
    75    45    46    1
    76    41    38    1
    77   124   125    1
    78    44    39   am
    79    43    37    1
    80    39    38    1
    81    39    40    2
    82    38    37    1
    83    74    73    1
    84    34    35    1
    85    34    36    1
    86    34    31    1
    87    46    47    2
    88    46    49   am
    89   125   126    2
    90    37    32   am
    91    73    70    1
    92   146   147   ar
    93   146   144   ar
    94   147   145   ar
    95    19    20    1
    96    23    20    1
    97    23    24    1
    98    49    50    1
    99   155   154   ar
   100    32    31    1
   101    32    33    2
   102    31    30    1
   103   156   154   ar
   104    20    21    1
   105    24    26   ar
   106    24    25   ar
   107    70    71    1
   108    70    69    1
   109   154   153    1
   110    26    28   ar
   111   144   143   ar
   112   145   143   ar
   113    54    55    1
   114    54    53    1
   115    71    72    2
   116    50    53    1
   117    50    51    1
   118    57    55   am
   119    25    27   ar
   120    21    22    2
   121    69    60   am
   122    55    56    2
   123    28    29   ar
   124   143   142    1
   125    27    29   ar
   126    51    58   am
   127    51    52    2
   128   151   150    2
   129   153   152    1
   130    58    59    1
   131   141   140    2
   132    60    59    1
   133    60    61    2
   134   149   150    1
   135   149   152    1
   136   149   148    1
   137    65    67   ar
   138    65    63   ar
   139   140   148   am
   140   140   139    1
   141    62    59    1
   142    62    63    1
   143   142   139    1
   144    67    68   ar
   145   139   138    1
   146    63    64   ar
   147   136   135    1
   148    68    66   ar
   149   137   135    1
   150    64    66   ar
   151   135   132    1
   152   134   133    2
   153   132   133    1
   154   132   131    1
