@<TRIPOS>MOLECULE
tmp/6c28A01.pdb
 83 78 0 0 0
SMALL
GASTEIGER

@<TRIPOS>ATOM
      1  N        117.8210   20.8350  134.4320 N.3     7  LEU7       -0.1245
      2  CA       117.6950   20.2680  135.8300 C.3     7  LEU7        0.1561
      3  C        117.1100   21.2630  136.8160 C.2     7  LEU7        0.2260
      4  O        116.2350   20.8930  137.5580 O.2     7  LEU7       -0.2867
      5  CB       119.0320   19.7520  136.3370 C.3     7  LEU7        0.0270
      6  CG       119.4150   18.2860  136.4510 C.3     7  LEU7        0.0019
      7  CD1      118.5000   17.2780  135.7850 C.3     7  LEU7        0.0001
      8  CD2      120.8510   18.1000  136.0330 C.3     7  LEU7        0.0001
      9  N        113.3030   21.2750  136.5080 N.3    10  LEU10      -0.1245
     10  CA       112.5730   19.9850  136.6890 C.3    10  LEU10       0.1561
     11  C        112.1620   19.7580  138.1550 C.2    10  LEU10       0.2260
     12  O        112.9850   19.7940  139.0760 O.2    10  LEU10      -0.2867
     13  CB       113.3840   18.7880  136.1870 C.3    10  LEU10       0.0270
     14  CG       113.8060   18.9990  134.7260 C.3    10  LEU10       0.0019
     15  CD1      114.8280   17.9800  134.3050 C.3    10  LEU10       0.0001
     16  CD2      112.6330   19.0100  133.7700 C.3    10  LEU10       0.0001
     17  N        110.9890   17.0950  139.5750 N.3    12  GLY12      -0.1210
     18  CA       111.5190   15.9030  140.1920 C.3    12  GLY12       0.1956
     19  C        112.9350   16.0380  140.7280 C.2    12  GLY12       0.2611
     20  O        113.3280   15.4010  141.7270 O.2    12  GLY12      -0.2717
     21  N        113.7320   16.8640  140.0720 N.am   13  TYR13      -0.1976
     22  CA       115.0710   17.0590  140.5350 C.3    13  TYR13       0.1639
     23  C        115.0960   17.8020  141.8780 C.2    13  TYR13       0.2290
     24  O        115.8150   17.4020  142.8270 O.2    13  TYR13      -0.2864
     25  CB       115.8610   17.8450  139.5330 C.3    13  TYR13       0.0560
     26  CG       117.2160   18.1290  140.0360 C.ar   13  TYR13      -0.0198
     27  CD1      118.1400   17.1130  140.1440 C.ar   13  TYR13      -0.0009
     28  CD2      117.5880   19.4090  140.3990 C.ar   13  TYR13      -0.0009
     29  CE1      119.4480   17.3640  140.5600 C.ar   13  TYR13       0.0417
     30  CE2      118.8880   19.6610  140.8720 C.ar   13  TYR13       0.0417
     31  CZ       119.7960   18.6480  140.9490 C.ar   13  TYR13       0.1957
     32  OH       121.0660   18.8680  141.4210 O.3    13  TYR13      -0.2866
     33  N        113.8670   15.6900  144.5870 N.3    16  LYS16      -0.1231
     34  CA       114.9310   14.7810  145.0690 C.3    16  LYS16       0.1693
     35  C        115.9960   15.4680  145.9080 C.2    16  LYS16       0.2591
     36  O        116.4250   14.9210  146.9210 O.2    16  LYS16      -0.2718
     37  CB       115.5490   13.9950  143.9250 C.3    16  LYS16       0.0285
     38  CG       116.6210   12.9860  144.2880 C.3    16  LYS16       0.0035
     39  CD       116.1060   11.8830  145.2260 C.3    16  LYS16       0.0206
     40  CE       117.1280   10.7620  145.4990 C.3    16  LYS16       0.1093
     41  NZ       116.6550    9.8960  146.6030 N.3    16  LYS16      -0.1314
     42  N        116.4130   16.6620  145.5590 N.am   17  ARG17      -0.1980
     43  CA       117.4130   17.3240  146.3710 C.3    17  ARG17       0.1597
     44  C        116.8870   17.7930  147.7210 C.2    17  ARG17       0.2287
     45  O        117.6000   17.8070  148.6850 O.2    17  ARG17      -0.2864
     46  CB       118.0980   18.4050  145.5950 C.3    17  ARG17       0.0334
     47  CG       118.9810   17.7970  144.5610 C.3    17  ARG17       0.0492
     48  CD       120.0860   17.0090  145.2350 C.3    17  ARG17       0.2205
     49  NE       121.2930   17.2890  144.5270 N.pl3  17  ARG17      -0.0865
     50  CZ       122.4780   17.5110  145.0360 C.cat  17  ARG17       0.5346
     51  NH1      122.7150   17.4600  146.3070 N.pl3  17  ARG17       0.1354
     52  NH2      123.4470   17.7670  144.2120 N.pl3  17  ARG17       0.1354
     53  N        116.6350   14.4680  149.8840 N.3    20  LEU20      -0.1245
     54  CA       117.9480   14.1110  150.3080 C.3    20  LEU20       0.1561
     55  C        118.3930   14.9370  151.5120 C.2    20  LEU20       0.2260
     56  O        118.9110   14.4130  152.4640 O.2    20  LEU20      -0.2867
     57  CB       118.9210   14.3200  149.1680 C.3    20  LEU20       0.0270
     58  CG       119.4960   13.1280  148.4250 C.3    20  LEU20       0.0019
     59  CD1      118.9750   11.7760  148.8480 C.3    20  LEU20       0.0001
     60  CD2      119.4680   13.3000  146.9340 C.3    20  LEU20       0.0001
     61  N        109.4990   -2.5990  148.9000 N.3    64  LEU64      -0.1245
     62  CA       109.4280   -3.9490  148.3250 C.3    64  LEU64       0.1561
     63  C        109.8520   -5.0110  149.3560 C.2    64  LEU64       0.2260
     64  O        110.5850   -4.7610  150.3130 O.2    64  LEU64      -0.2867
     65  CB       110.3280   -4.0400  147.0860 C.3    64  LEU64       0.0270
     66  CG       109.9450   -3.0400  145.9870 C.3    64  LEU64       0.0019
     67  CD1      111.1290   -2.8450  145.0430 C.3    64  LEU64       0.0001
     68  CD2      108.6940   -3.5590  145.2680 C.3    64  LEU64       0.0001
     69  N        111.7940   -7.9330  149.4560 N.3    66  PRO66      -0.2102
     70  CA       113.1580   -8.2990  149.8930 C.3    66  PRO66       0.1504
     71  C        113.8710   -7.1730  150.7360 C.2    66  PRO66       0.2575
     72  O        114.5400   -7.4310  151.7340 O.2    66  PRO66      -0.2718
     73  CB       113.8960   -8.5530  148.5770 C.3    66  PRO66       0.0282
     74  CG       112.8460   -8.5910  147.5080 C.3    66  PRO66       0.0208
     75  CD       111.6790   -7.8490  147.9850 C.3    66  PRO66       0.0893
     76  N        113.6190   -5.9390  150.3870 N.am   67  ASN67      -0.1975
     77  CA       114.1790   -4.7850  151.1350 C.3    67  ASN67       0.1688
     78  C        113.5720   -4.7700  152.5530 C.2    67  ASN67       0.2292
     79  O        114.2140   -4.4320  153.5580 O.2    67  ASN67      -0.2864
     80  CB       113.8010   -3.4800  150.4020 C.3    67  ASN67       0.1181
     81  CG       114.1960   -3.4650  148.8830 C.2    67  ASN67       0.2629
     82  OD1      114.8020   -2.5290  148.4310 O.2    67  ASN67      -0.2716
     83  ND2      113.7720   -4.4410  148.1150 N.am   67  ASN67      -0.0877
@<TRIPOS>BOND
     1    16    14    1
     2    15    14    1
     3     1     2    1
     4    14    13    1
     5     7     6    1
     6     2     5    1
     7     2     3    1
     8     8     6    1
     9    13    10    1
    10     5     6    1
    11     9    10    1
    12    10    11    1
    13     3     4    2
    14    11    12    2
    15    25    26    1
    16    25    22    1
    17    17    18    1
    18    26    27   ar
    19    26    28   ar
    20    21    22    1
    21    21    19   am
    22    27    29   ar
    23    18    19    1
    24    28    30   ar
    25    22    23    1
    26    29    31   ar
    27    19    20    2
    28    30    31   ar
    29    31    32    1
    30    23    24    2
    31    37    38    1
    32    37    34    1
    33    52    50    1
    34    38    39    1
    35    49    50    2
    36    49    48    1
    37    47    48    1
    38    47    46    1
    39    33    34    1
    40    50    51    1
    41    67    66    1
    42    34    35    1
    43    39    40    1
    44    68    66    1
    45    40    41    1
    46    42    35   am
    47    42    43    1
    48    46    43    1
    49    35    36    2
    50    66    65    1
    51    43    44    1
    52    60    58    1
    53    65    62    1
    54    74    75    1
    55    74    73    1
    56    44    45    2
    57    75    69    1
    58    83    81   am
    59    62    61    1
    60    62    63    1
    61    58    59    1
    62    58    57    1
    63    82    81    2
    64    73    70    1
    65    81    80    1
    66    57    54    1
    67    63    64    2
    68    69    70    1
    69    53    54    1
    70    70    71    1
    71    54    55    1
    72    76    71   am
    73    76    77    1
    74    80    77    1
    75    71    72    2
    76    77    78    1
    77    55    56    2
    78    78    79    2
