@<TRIPOS>MOLECULE
tmp/6c2dA01.pdb
 135 125 0 0 0
SMALL
GASTEIGER

@<TRIPOS>ATOM
      1  N         -0.9750    5.9220   25.6750 N.3    64  VAL64      -0.1245
      2  CA        -1.1340    4.4750   25.8570 C.3    64  VAL64       0.1561
      3  C         -0.0770    3.9440   26.8240 C.2    64  VAL64       0.2260
      4  O          0.0850    2.7170   27.0260 O.2    64  VAL64      -0.2867
      5  CB        -1.1080    3.7350   24.5130 C.3    64  VAL64       0.0252
      6  CG1       -2.2400    4.2440   23.6490 C.3    64  VAL64       0.0019
      7  CG2        0.2530    3.8630   23.7790 C.3    64  VAL64       0.0019
      8  N          7.6470   13.2560   24.7560 N.3    76  ARG76      -0.1245
      9  CA         7.9390   13.7780   23.4160 C.3    76  ARG76       0.1563
     10  C          6.6030   14.1620   22.7910 C.2    76  ARG76       0.2260
     11  O          5.5630   13.7080   23.2600 O.2    76  ARG76      -0.2867
     12  CB         8.6720   12.7380   22.5480 C.3    76  ARG76       0.0307
     13  CG         7.8400   11.4860   22.3240 C.3    76  ARG76       0.0489
     14  CD         8.4540   10.4350   21.3850 C.3    76  ARG76       0.2205
     15  NE         7.4730    9.3690   21.1790 N.pl3  76  ARG76      -0.0865
     16  CZ         7.5190    8.4660   20.2020 C.cat  76  ARG76       0.5346
     17  NH1        8.5210    8.4570   19.3350 N.pl3  76  ARG76       0.1354
     18  NH2        6.5620    7.5630   20.1020 N.pl3  76  ARG76       0.1354
     19  N          2.4850   11.0490   19.1600 N.3    79  SER79      -0.1217
     20  CA         2.3660   10.4040   17.8870 C.3    79  SER79       0.1889
     21  C          1.0410   10.7940   17.2410 C.2    79  SER79       0.2288
     22  O         -0.0020   10.8720   17.9040 O.2    79  SER79      -0.2866
     23  CB         2.4730    8.8830   18.0590 C.3    79  SER79       0.2089
     24  OG         2.1310    8.2200   16.8780 O.3    79  SER79      -0.2183
     25  N         -0.4540    9.0050   15.1550 N.3    81  ILE81      -0.1231
     26  CA        -1.2410    7.8170   14.8790 C.3    81  ILE81       0.1692
     27  C         -1.4840    6.9970   16.1680 C.2    81  ILE81       0.2591
     28  O         -2.6280    6.7690   16.5090 O.2    81  ILE81      -0.2718
     29  CB        -0.5940    6.9690   13.7520 C.3    81  ILE81       0.0266
     30  CG1       -1.4720    5.7460   13.4550 C.3    81  ILE81       0.0019
     31  CG2        0.8290    6.5880   14.0850 C.3    81  ILE81       0.0020
     32  CD1       -0.9790    4.8530   12.3150 C.3    81  ILE81       0.0001
     33  N         -0.4490    6.6050   16.9070 N.am   82  LEU82      -0.1980
     34  CA        -0.6580    5.7850   18.1040 C.3    82  LEU82       0.1596
     35  C         -1.4430    6.5160   19.1880 C.2    82  LEU82       0.2287
     36  O         -2.2560    5.9170   19.8910 O.2    82  LEU82      -0.2864
     37  CB         0.6880    5.3420   18.6900 C.3    82  LEU82       0.0297
     38  CG         0.6330    4.4640   19.9320 C.3    82  LEU82       0.0022
     39  CD1        0.1490    3.1030   19.5670 C.3    82  LEU82       0.0001
     40  CD2        2.0140    4.4210   20.5860 C.3    82  LEU82       0.0001
     41  N         11.4860    4.4370   23.9420 N.3   165  VAL165     -0.1231
     42  CA        10.0580    4.5700   23.6230 C.3   165  VAL165      0.1692
     43  C          9.2540    3.5580   24.4200 C.2   165  VAL165      0.2592
     44  O          8.2640    3.8780   25.0540 O.2   165  VAL165     -0.2718
     45  CB         9.7830    4.3620   22.1170 C.3   165  VAL165      0.0266
     46  CG1        8.2910    4.2920   21.8460 C.3   165  VAL165      0.0020
     47  CG2       10.3760    5.4810   21.3420 C.3   165  VAL165      0.0020
     48  N          9.7040    2.3200   24.4060 N.am  166  PHE166     -0.1976
     49  CA         8.9400    1.2790   25.0440 C.3   166  PHE166      0.1639
     50  C          9.0620    1.3150   26.5650 C.2   166  PHE166      0.2290
     51  O          8.1030    0.9800   27.2650 O.2   166  PHE166     -0.2864
     52  CB         9.3630   -0.0650   24.4640 C.3   166  PHE166      0.0560
     53  CG         8.7810   -0.3100   23.0890 C.ar  166  PHE166     -0.0200
     54  CD1        7.5150   -0.8500   22.9530 C.ar  166  PHE166     -0.0042
     55  CD2        9.4770    0.0440   21.9490 C.ar  166  PHE166     -0.0042
     56  CE1        6.9680   -1.0730   21.6970 C.ar  166  PHE166     -0.0003
     57  CE2        8.9380   -0.1560   20.6900 C.ar  166  PHE166     -0.0003
     58  CZ         7.6800   -0.7210   20.5660 C.ar  166  PHE166     -0.0000
     59  N          6.4540    3.9650   27.9490 N.3   169  PHE169     -0.1241
     60  CA         5.0400    3.6230   28.1770 C.3   169  PHE169      0.1605
     61  C          4.8070    3.1640   29.6130 C.2   169  PHE169      0.2264
     62  O          3.6770    3.1470   30.0890 O.2   169  PHE169     -0.2867
     63  CB         4.5350    2.5190   27.2680 C.3   169  PHE169      0.0534
     64  CG         4.5460    2.8620   25.7960 C.ar  169  PHE169     -0.0203
     65  CD1        3.8730    3.9790   25.3280 C.ar  169  PHE169     -0.0042
     66  CD2        5.2090    2.0500   24.8960 C.ar  169  PHE169     -0.0042
     67  CE1        3.8850    4.2950   23.9790 C.ar  169  PHE169     -0.0003
     68  CE2        5.2220    2.3520   23.5300 C.ar  169  PHE169     -0.0003
     69  CZ         4.5600    3.4900   23.0810 C.ar  169  PHE169     -0.0000
     70  N          8.7690    9.2650   12.1340 N.3   227  ARG227     -0.1231
     71  CA         9.1370    8.9920   13.5270 C.3   227  ARG227      0.1694
     72  C          8.3970    7.7610   14.0790 C.2   227  ARG227      0.2592
     73  O          8.9850    6.9440   14.7920 O.2   227  ARG227     -0.2718
     74  CB         8.8590   10.2230   14.4040 C.3   227  ARG227      0.0321
     75  CG         9.5530   10.1640   15.7590 C.3   227  ARG227      0.0489
     76  CD         9.0210   11.2370   16.6990 C.3   227  ARG227      0.2205
     77  NE         7.6740   10.8820   17.1530 N.pl3 227  ARG227     -0.0865
     78  CZ         6.9690   11.5520   18.0470 C.cat 227  ARG227      0.5346
     79  NH1        5.7770   11.1020   18.3980 N.pl3 227  ARG227      0.1354
     80  NH2        7.4520   12.6530   18.5930 N.pl3 227  ARG227      0.1354
     81  N          7.1170    7.6250   13.7440 N.am  228  SER228     -0.1952
     82  CA         6.3520    6.4470   14.1520 C.3   228  SER228      0.1924
     83  C          7.0380    5.1440   13.7110 C.2   228  SER228      0.2314
     84  O          7.1700    4.2140   14.5030 O.2   228  SER228     -0.2863
     85  CB         4.9260    6.5050   13.5840 C.3   228  SER228      0.2116
     86  OG         4.1470    7.4930   14.2420 O.3   228  SER228     -0.2180
     87  N         10.2210    4.5070   15.5660 N.3   231  SER231     -0.1202
     88  CA         9.9630    4.0970   16.9460 C.3   231  SER231      0.2020
     89  C          9.4980    2.6450   17.0300 C.2   231  SER231      0.2618
     90  O          9.9320    1.8970   17.8980 O.2   231  SER231     -0.2717
     91  CB         8.8970    4.9840   17.6040 C.3   231  SER231      0.2103
     92  OG         9.1790    6.3580   17.4830 O.3   231  SER231     -0.2182
     93  N          8.5840    2.2760   16.1400 N.am  232  ALA232     -0.1979
     94  CA         7.8240    1.0360   16.2600 C.3   232  ALA232      0.1597
     95  C          8.3860   -0.1090   15.4320 C.2   232  ALA232      0.2287
     96  O          8.0940   -1.2720   15.6780 O.2   232  ALA232     -0.2864
     97  CB         6.3990    1.2830   15.8410 C.3   232  ALA232      0.0319
     98  N         10.4450   -4.0590   17.8590 N.3   236  THR236     -0.1218
     99  CA         9.3400   -5.0220   17.8430 C.3   236  THR236      0.1862
    100  C          9.7470   -6.3040   17.1160 C.2   236  THR236      0.2287
    101  O          9.5980   -7.4110   17.6430 O.2   236  THR236     -0.2866
    102  CB         8.0950   -4.4610   17.1410 C.3   236  THR236      0.1770
    103  OG1        8.4680   -3.9030   15.8720 O.3   236  THR236     -0.2211
    104  CG2        7.4220   -3.4140   17.9910 C.3   236  THR236      0.0375
    105  N          5.1390   -7.5880   22.6530 N.3   279  VAL279     -0.1245
    106  CA         4.5350   -6.4380   23.3060 C.3   279  VAL279      0.1561
    107  C          3.5730   -6.9930   24.3640 C.2   279  VAL279      0.2260
    108  O          2.5670   -7.6100   24.0400 O.2   279  VAL279     -0.2867
    109  CB         3.8180   -5.5210   22.3250 C.3   279  VAL279      0.0252
    110  CG1        3.1230   -4.3860   23.0790 C.3   279  VAL279      0.0019
    111  CG2        4.8170   -4.9350   21.2890 C.3   279  VAL279      0.0019
    112  N         -0.0750   -2.4210   27.3500 N.3   282  PHE282     -0.1241
    113  CA        -0.1670   -0.9620   27.2240 C.3   282  PHE282      0.1605
    114  C         -1.5710   -0.5740   27.6620 C.2   282  PHE282      0.2264
    115  O         -2.3490   -1.4440   28.0920 O.2   282  PHE282     -0.2867
    116  CB         0.1570   -0.4500   25.8280 C.3   282  PHE282      0.0534
    117  CG        -0.5150   -1.2010   24.6990 C.ar  282  PHE282     -0.0203
    118  CD1       -1.8160   -0.9210   24.3290 C.ar  282  PHE282     -0.0042
    119  CD2        0.1890   -2.1590   23.9840 C.ar  282  PHE282     -0.0042
    120  CE1       -2.4270   -1.6000   23.3000 C.ar  282  PHE282     -0.0003
    121  CE2       -0.4020   -2.8400   22.9440 C.ar  282  PHE282     -0.0003
    122  CZ        -1.7140   -2.5610   22.5900 C.ar  282  PHE282     -0.0000
    123  N         -1.8170   -3.2630   14.5340 N.3   342  CYS342     -0.1235
    124  CA        -0.4980   -2.9630   13.9770 C.3   342  CYS342      0.1677
    125  C         -0.5000   -2.6480   12.4890 C.2   342  CYS342      0.2270
    126  O         -0.7960   -3.5160   11.6640 O.2   342  CYS342     -0.2867
    127  CB         0.4390   -4.1390   14.2220 C.3   342  CYS342      0.0956
    128  SG         2.0620   -3.8120   13.5790 S.3   342  CYS342     -0.0801
    129  N          7.6510   -2.5420   28.5420 N.3   379  THR379     -0.1218
    130  CA         6.6330   -2.9620   27.5640 C.3   379  THR379      0.1862
    131  C          7.0250   -4.2190   26.7860 C.2   379  THR379      0.2287
    132  O          6.1800   -5.0710   26.5110 O.2   379  THR379     -0.2866
    133  CB         6.3530   -1.8260   26.5250 C.3   379  THR379      0.1770
    134  OG1        5.9940   -0.6250   27.2070 O.3   379  THR379     -0.2211
    135  CG2        5.2200   -2.2080   25.5980 C.3   379  THR379      0.0375
@<TRIPOS>BOND
     1   126   125    2
     2    70    71    1
     3    32    30    1
     4   125   124    1
     5    30    29    1
     6    71    72    1
     7    71    74    1
     8   128   127    1
     9    85    82    1
    10    85    86    1
    11    83    82    1
    12    83    84    2
    13    81    72   am
    14    81    82    1
    15    29    31    1
    16    29    26    1
    17   124   127    1
    18   124   123    1
    19    72    73    2
    20    74    75    1
    21    26    25    1
    22    26    27    1
    23    95    96    2
    24    95    94    1
    25    87    88    1
    26    75    76    1
    27    97    94    1
    28   103   102    1
    29    93    94    1
    30    93    89   am
    31    27    28    2
    32    27    33   am
    33    76    77    1
    34    24    23    1
    35    33    34    1
    36    88    89    1
    37    88    91    1
    38    89    90    2
    39   100   101    2
    40   100    99    1
    41   102    99    1
    42   102   104    1
    43    77    78    2
    44    21    20    1
    45    21    22    2
    46    92    91    1
    47    99    98    1
    48    20    23    1
    49    20    19    1
    50    78    79    1
    51    78    80    1
    52    34    37    1
    53    34    35    1
    54    37    38    1
    55    35    36    2
    56    17    16    1
    57    39    38    1
    58    38    40    1
    59    18    16    1
    60    16    15    2
    61    58    57   ar
    62    58    56   ar
    63    57    55   ar
    64    15    14    1
    65   111   109    1
    66    47    45    1
    67    14    13    1
    68    56    54   ar
    69    46    45    1
    70    55    53   ar
    71    45    42    1
    72    13    12    1
    73   109   110    1
    74   109   106    1
    75    12     9    1
    76   122   121   ar
    77   122   120   ar
    78   105   106    1
    79    10    11    2
    80    10     9    1
    81   121   119   ar
    82    54    53   ar
    83    69    68   ar
    84    69    67   ar
    85    53    52    1
    86   120   118   ar
    87   106   107    1
    88     9     8    1
    89    68    66   ar
    90    42    41    1
    91    42    43    1
    92     6     5    1
    93     7     5    1
    94    67    65   ar
    95   119   117   ar
    96   108   107    2
    97   118   117   ar
    98    48    43   am
    99    48    49    1
   100    43    44    2
   101    52    49    1
   102     5     2    1
   103   117   116    1
   104    66    64   ar
   105    49    50    1
   106    65    64   ar
   107   135   133    1
   108     1     2    1
   109    64    63    1
   110   116   113    1
   111     2     3    1
   112   132   131    2
   113   133   134    1
   114   133   130    1
   115    50    51    2
   116   131   130    1
   117     3     4    2
   118   113   112    1
   119   113   114    1
   120    63    60    1
   121   130   129    1
   122   114   115    2
   123    59    60    1
   124    60    61    1
   125    61    62    2
