@<TRIPOS>MOLECULE
tmp/6c2iA00.pdb
 174 166 0 0 0
SMALL
GASTEIGER

@<TRIPOS>ATOM
      1  N         76.1430   42.8030   -0.5560 N.3    13  GLY13      -0.1210
      2  CA        75.7630   42.5990    0.8240 C.3    13  GLY13       0.1956
      3  C         75.9380   43.7930    1.7330 C.2    13  GLY13       0.2612
      4  O         75.6300   43.6870    2.9270 O.2    13  GLY13      -0.2717
      5  N         76.4110   44.9260    1.2200 N.am   14  GLN14      -0.1965
      6  CA        76.6470   46.1060    2.0350 C.3    14  GLN14       0.1733
      7  C         75.6490   47.2150    1.7680 C.2    14  GLN14       0.2617
      8  O         75.7270   48.2680    2.4060 O.2    14  GLN14      -0.2715
      9  CB        78.0660   46.6260    1.8040 C.3    14  GLN14       0.0408
     10  CG        79.1320   45.6770    2.2990 C.3    14  GLN14       0.0908
     11  CD        80.4940   46.3260    2.3450 C.2    14  GLN14       0.2608
     12  OE1       80.6950   47.4130    1.7980 O.2    14  GLN14      -0.2717
     13  NE2       81.4380   45.6670    2.9990 N.am   14  GLN14      -0.0878
     14  N         74.7230   47.0140    0.8450 N.am   15  GLY15      -0.1940
     15  CA        73.6650   47.9680    0.6070 C.3    15  GLY15       0.2014
     16  C         73.8980   48.7750   -0.6540 C.2    15  GLY15       0.2638
     17  O         74.9460   48.7150   -1.3000 O.2    15  GLY15      -0.2714
     18  N         72.8710   49.5300   -1.0070 N.am   16  TYR16      -0.1973
     19  CA        72.8890   50.3930   -2.1720 C.3    16  TYR16       0.1639
     20  C         72.7940   51.8300   -1.6930 C.2    16  TYR16       0.2290
     21  O         71.8870   52.1680   -0.9270 O.2    16  TYR16      -0.2864
     22  CB        71.7320   50.0550   -3.1060 C.3    16  TYR16       0.0560
     23  CG        71.8290   48.6850   -3.7290 C.ar   16  TYR16      -0.0198
     24  CD1       71.4560   47.5460   -3.0240 C.ar   16  TYR16      -0.0009
     25  CD2       72.2800   48.5300   -5.0320 C.ar   16  TYR16      -0.0009
     26  CE1       71.5360   46.2890   -3.6070 C.ar   16  TYR16       0.0417
     27  CE2       72.3660   47.2800   -5.6180 C.ar   16  TYR16       0.0417
     28  CZ        71.9980   46.1710   -4.9050 C.ar   16  TYR16       0.1957
     29  OH        72.0830   44.9350   -5.5000 O.3    16  TYR16      -0.2866
     30  N         72.8420   55.2920    2.3550 N.3    32  LEU32      -0.1245
     31  CA        72.1320   54.0590    2.0510 C.3    32  LEU32       0.1561
     32  C         70.6560   54.3290    1.7900 C.2    32  LEU32       0.2260
     33  O         69.9890   55.0170    2.5670 O.2    32  LEU32      -0.2867
     34  CB        72.2710   53.0710    3.2090 C.3    32  LEU32       0.0270
     35  CG        71.4860   51.7640    3.0820 C.3    32  LEU32       0.0019
     36  CD1       72.2610   50.8030    2.2170 C.3    32  LEU32       0.0001
     37  CD2       71.2140   51.1410    4.4430 C.3    32  LEU32       0.0001
     38  N         67.0210   53.1860    1.9260 N.3    34  ASP34      -0.1239
     39  CA        66.3410   52.2490    2.8140 C.3    34  ASP34       0.1674
     40  C         64.8350   52.4980    2.7810 C.2    34  ASP34       0.2266
     41  O         64.3460   53.4050    3.4570 O.2    34  ASP34      -0.2867
     42  CB        66.8980   52.3950    4.2260 C.3    34  ASP34       0.1410
     43  CG        66.3510   51.3710    5.1850 C.2    34  ASP34       0.3668
     44  OD1       65.7320   50.3910    4.7180 O.co2  34  ASP34      -0.2456
     45  OD2       66.5470   51.5440    6.4100 O.co2  34  ASP34      -0.2456
     46  N         62.8420   50.6060    4.1810 N.3    36  GLY36      -0.1210
     47  CA        62.3860   49.9760    5.4010 C.3    36  GLY36       0.1956
     48  C         62.5000   50.8240    6.6470 C.2    36  GLY36       0.2612
     49  O         62.3070   50.2980    7.7480 O.2    36  GLY36      -0.2717
     50  N         62.8010   52.1130    6.5150 N.am   37  SER37      -0.1952
     51  CA        62.8700   53.0310    7.6450 C.3    37  SER37       0.1924
     52  C         62.5200   54.4210    7.1340 C.2    37  SER37       0.2314
     53  O         62.3390   54.6330    5.9310 O.2    37  SER37      -0.2863
     54  CB        64.2570   53.0040    8.3050 C.3    37  SER37       0.2116
     55  OG        65.2270   53.6040    7.4630 O.3    37  SER37      -0.2180
     56  N         67.8940   48.9320   17.2260 N.3    73  TYR73      -0.1241
     57  CA        67.4220   47.8930   16.3270 C.3    73  TYR73       0.1605
     58  C         67.6380   46.5420   17.0050 C.2    73  TYR73       0.2264
     59  O         68.1860   46.4650   18.1080 O.2    73  TYR73      -0.2867
     60  CB        68.1410   47.9940   14.9750 C.3    73  TYR73       0.0534
     61  CG        67.8330   49.2910   14.2490 C.ar   73  TYR73      -0.0201
     62  CD1       66.5350   49.6040   13.8930 C.ar   73  TYR73      -0.0009
     63  CD2       68.8340   50.2050   13.9360 C.ar   73  TYR73      -0.0009
     64  CE1       66.2270   50.7820   13.2400 C.ar   73  TYR73       0.0417
     65  CE2       68.5310   51.4020   13.2680 C.ar   73  TYR73       0.0417
     66  CZ        67.2220   51.6790   12.9330 C.ar   73  TYR73       0.1957
     67  OH        66.8910   52.8460   12.2750 O.3    73  TYR73      -0.2866
     68  N         77.2560   48.6160   15.9100 N.3   109  LYS109     -0.1231
     69  CA        76.8480   47.6570   14.8820 C.3   109  LYS109      0.1693
     70  C         75.9220   48.2840   13.8450 C.2   109  LYS109      0.2592
     71  O         75.0330   47.6240   13.3040 O.2   109  LYS109     -0.2718
     72  CB        76.1880   46.4340   15.5220 C.3   109  LYS109      0.0285
     73  CG        77.1800   45.5520   16.2460 C.3   109  LYS109      0.0035
     74  CD        76.5080   44.4080   16.9720 C.3   109  LYS109      0.0206
     75  CE        77.5490   43.4550   17.5330 C.3   109  LYS109      0.1093
     76  NZ        77.4140   43.2960   19.0050 N.3   109  LYS109     -0.1314
     77  N         76.1180   49.5650   13.5540 N.am  110  PHE110     -0.1976
     78  CA        75.3190   50.2630   12.5570 C.3   110  PHE110      0.1639
     79  C         76.1210   50.5150   11.2880 C.2   110  PHE110      0.2290
     80  O         75.7740   49.9930   10.2270 O.2   110  PHE110     -0.2864
     81  CB        74.7930   51.5770   13.1420 C.3   110  PHE110      0.0560
     82  CG        74.0160   52.4040   12.1750 C.ar  110  PHE110     -0.0200
     83  CD1       72.7730   51.9890   11.7290 C.ar  110  PHE110     -0.0042
     84  CD2       74.5170   53.6140   11.7270 C.ar  110  PHE110     -0.0042
     85  CE1       72.0520   52.7550   10.8500 C.ar  110  PHE110     -0.0003
     86  CE2       73.7990   54.3900   10.8520 C.ar  110  PHE110     -0.0003
     87  CZ        72.5620   53.9610   10.4070 C.ar  110  PHE110     -0.0000
     88  N         79.1440   49.8960    8.7250 N.3   112  ILE112     -0.1245
     89  CA        79.7880   48.6540    8.3140 C.3   112  ILE112      0.1561
     90  C         81.2700   48.9250    8.0890 C.2   112  ILE112      0.2260
     91  O         81.6390   49.7780    7.2720 O.2   112  ILE112     -0.2867
     92  CB        79.1410   48.0810    7.0440 C.3   112  ILE112      0.0252
     93  CG1       77.6570   47.7810    7.2690 C.3   112  ILE112      0.0019
     94  CG2       79.8820   46.8220    6.5880 C.3   112  ILE112      0.0019
     95  CD1       76.8980   47.4750    5.9700 C.3   112  ILE112      0.0001
     96  N         79.4500   53.9800    2.7340 N.3   117  TRP117     -0.1241
     97  CA        78.3670   54.9000    3.0580 C.3   117  TRP117      0.1605
     98  C         78.4340   55.3630    4.5080 C.2   117  TRP117      0.2264
     99  O         78.9730   54.6810    5.3840 O.2   117  TRP117     -0.2867
    100  CB        76.9830   54.2980    2.7610 C.3   117  TRP117      0.0550
    101  CG        76.6600   52.9650    3.3690 C.ar  117  TRP117      0.0003
    102  CD1       76.8150   51.7370    2.7820 C.ar  117  TRP117      0.0946
    103  CD2       76.0750   52.7220    4.6520 C.ar  117  TRP117      0.0152
    104  NE1       76.3740   50.7500    3.6280 N.ar  117  TRP117     -0.2442
    105  CE2       75.9160   51.3280    4.7820 C.ar  117  TRP117      0.0810
    106  CE3       75.6760   53.5470    5.7070 C.ar  117  TRP117      0.0012
    107  CZ2       75.3800   50.7440    5.9250 C.ar  117  TRP117      0.0191
    108  CZ3       75.1390   52.9630    6.8370 C.ar  117  TRP117      0.0001
    109  CH2       75.0000   51.5760    6.9400 C.ar  117  TRP117      0.0015
    110  N         71.9730   57.0660    6.2320 N.3   120  ILE120     -0.1245
    111  CA        70.8370   56.2770    5.7770 C.3   120  ILE120      0.1561
    112  C         69.6860   57.2100    5.4380 C.2   120  ILE120      0.2260
    113  O         69.4030   58.1660    6.1690 O.2   120  ILE120     -0.2867
    114  CB        70.4220   55.2370    6.8400 C.3   120  ILE120      0.0252
    115  CG1       69.3400   54.3130    6.3000 C.3   120  ILE120      0.0019
    116  CG2       69.9160   55.9210    8.1050 C.3   120  ILE120      0.0019
    117  CD1       69.1910   53.0500    7.1430 C.3   120  ILE120      0.0001
    118  N         61.4910   46.1910    1.2510 N.3   221  ASP221     -0.1225
    119  CA        62.5510   46.7920    2.0690 C.3   221  ASP221      0.1805
    120  C         63.8960   46.7130    1.3530 C.2   221  ASP221      0.2598
    121  O         64.5590   45.6720    1.3850 O.2   221  ASP221     -0.2718
    122  CB        62.6190   46.0960    3.4220 C.3   221  ASP221      0.1424
    123  CG        63.5960   46.7560    4.3600 C.2   221  ASP221      0.3668
    124  OD1       64.1670   47.8020    3.9750 O.co2 221  ASP221     -0.2456
    125  OD2       63.7890   46.2330    5.4800 O.co2 221  ASP221     -0.2456
    126  N         64.3220   47.8330    0.7610 N.am  222  SER222     -0.1938
    127  CA        65.6170   47.9050    0.0950 C.3   222  SER222      0.2055
    128  C         66.7770   47.8710    1.0770 C.2   222  SER222      0.2644
    129  O         67.9260   47.7270    0.6460 O.2   222  SER222     -0.2714
    130  CB        65.7150   49.1760   -0.7510 C.3   222  SER222      0.2130
    131  OG        65.7400   50.3310    0.0720 O.3   222  SER222     -0.2179
    132  N         66.5020   47.9890    2.3720 N.am  223  GLY223     -0.1939
    133  CA        67.5060   47.9550    3.4120 C.3   223  GLY223      0.2014
    134  C         67.6590   46.6190    4.1050 C.2   223  GLY223      0.2640
    135  O         68.3080   46.5600    5.1550 O.2   223  GLY223     -0.2714
    136  N         67.0600   45.5530    3.5670 N.am  224  THR224     -0.1936
    137  CA        67.2480   44.1890    4.0370 C.3   224  THR224      0.2028
    138  C         67.7750   43.3610    2.8720 C.2   224  THR224      0.2642
    139  O         67.3110   43.5090    1.7380 O.2   224  THR224     -0.2714
    140  CB        65.9410   43.5870    4.5700 C.3   224  THR224      0.1808
    141  OG1       65.5420   44.2620    5.7700 O.3   224  THR224     -0.2208
    142  CG2       66.1020   42.0990    4.8680 C.3   224  THR224      0.0379
    143  N         68.7720   42.5180    3.1400 N.am  225  THR225     -0.1950
    144  CA        69.3280   41.6880    2.0740 C.3   225  THR225      0.1897
    145  C         68.3870   40.5440    1.7240 C.2   225  THR225      0.2313
    146  O         68.0690   40.3230    0.5480 O.2   225  THR225     -0.2863
    147  CB        70.6960   41.1390    2.4830 C.3   225  THR225      0.1794
    148  OG1       71.6210   42.2190    2.6230 O.3   225  THR225     -0.2208
    149  CG2       71.2270   40.1470    1.4290 C.3   225  THR225      0.0378
    150  N         73.1240   33.7430   -2.7200 N.3   300  ARG300     -0.1245
    151  CA        73.9440   34.9270   -2.9380 C.3   300  ARG300      0.1563
    152  C         75.4310   34.6110   -2.8030 C.2   300  ARG300      0.2260
    153  O         75.8330   33.8770   -1.8920 O.2   300  ARG300     -0.2867
    154  CB        73.5640   36.0230   -1.9460 C.3   300  ARG300      0.0307
    155  CG        72.1180   36.4730   -2.1340 C.3   300  ARG300      0.0489
    156  CD        71.7280   37.5350   -1.1640 C.3   300  ARG300      0.2205
    157  NE        72.1910   38.8480   -1.5880 N.pl3 300  ARG300     -0.0865
    158  CZ        71.6560   39.5250   -2.5990 C.cat 300  ARG300      0.5346
    159  NH1       70.6510   39.0020   -3.3160 N.pl3 300  ARG300      0.1354
    160  NH2       72.1290   40.7130   -2.9040 N.pl3 300  ARG300      0.1354
    161  N         66.5150   42.6640   -0.7810 N.3   328  ALA328     -0.1245
    162  CA        67.2510   42.7010   -2.0400 C.3   328  ALA328      0.1562
    163  C         67.0620   41.4200   -2.8470 C.2   328  ALA328      0.2260
    164  O         67.1100   41.4570   -4.0820 O.2   328  ALA328     -0.2867
    165  CB        68.7410   42.9440   -1.7710 C.3   328  ALA328      0.0290
    166  N         66.2420   42.7980   -6.3790 N.3   332  GLU332     -0.1245
    167  CA        67.2550   42.6780   -7.4210 C.3   332  GLU332      0.1567
    168  C         66.6980   42.0160   -8.6750 C.2   332  GLU332      0.2260
    169  O         67.2980   42.1300   -9.7490 O.2   332  GLU332     -0.2867
    170  CB        68.4630   41.9170   -6.8760 C.3   332  GLU332      0.0388
    171  CG        69.3250   42.7840   -5.9550 C.3   332  GLU332      0.1160
    172  CD        70.4630   42.0290   -5.2940 C.2   332  GLU332      0.3649
    173  OE1       70.6900   40.8520   -5.6400 O.co2 332  GLU332     -0.2457
    174  OE2       71.1250   42.6170   -4.4120 O.co2 332  GLU332     -0.2457
@<TRIPOS>BOND
     1   169   168    2
     2   168   167    1
     3   167   170    1
     4   167   166    1
     5   170   171    1
     6   171   172    1
     7   173   172   ar
     8    27    25   ar
     9    27    28   ar
    10    29    28    1
    11   172   174   ar
    12    25    23   ar
    13    28    26   ar
    14   164   163    2
    15    23    22    1
    16    23    24   ar
    17    26    24   ar
    18   159   158    1
    19    22    19    1
    20   151   152    1
    21   151   150    1
    22   151   154    1
    23   160   158    1
    24   163   162    1
    25   152   153    2
    26   158   157    2
    27    19    20    1
    28    19    18    1
    29   155   154    1
    30   155   156    1
    31   162   165    1
    32   162   161    1
    33    20    21    2
    34   157   156    1
    35    17    16    2
    36    18    16   am
    37   130   131    1
    38   130   127    1
    39    16    15    1
    40     1     2    1
    41   127   126    1
    42   127   128    1
    43   146   145    2
    44    15    14    1
    45   129   128    2
    46   126   120   am
    47     2     3    1
    48    14     7   am
    49   128   132   am
    50     5     3   am
    51     5     6    1
    52   118   119    1
    53   120   121    2
    54   120   119    1
    55   149   147    1
    56   145   144    1
    57     3     4    2
    58   139   138    2
    59     7     6    1
    60     7     8    2
    61    32    31    1
    62    32    33    2
    63    12    11    2
    64     9     6    1
    65     9    10    1
    66    38    39    1
    67    31    30    1
    68    31    34    1
    69   119   122    1
    70   144   147    1
    71   144   143    1
    72    36    35    1
    73    10    11    1
    74    11    13   am
    75   132   133    1
    76   147   148    1
    77    96    97    1
    78   100    97    1
    79   100   101    1
    80    40    39    1
    81    40    41    2
    82   102   101   ar
    83   102   104   ar
    84    39    42    1
    85   138   143   am
    86   138   137    1
    87    97    98    1
    88    35    34    1
    89    35    37    1
    90   101   103   ar
    91   133   134    1
    92   122   123    1
    93   136   137    1
    94   136   134   am
    95   104   105   ar
    96   124   123   ar
    97   137   140    1
    98   134   135    2
    99    46    47    1
   100    42    43    1
   101   123   125   ar
   102    98    99    2
   103   140   142    1
   104   140   141    1
   105   103   105   ar
   106   103   106   ar
   107    44    43   ar
   108   105   107   ar
   109    43    45   ar
   110    47    48    1
   111   112   111    1
   112   112   113    2
   113   106   108   ar
   114   111   110    1
   115   111   114    1
   116   107   109   ar
   117    53    52    2
   118    95    93    1
   119   115   114    1
   120   115   117    1
   121    50    48   am
   122    50    51    1
   123    94    92    1
   124    48    49    2
   125   108   109   ar
   126   114   116    1
   127    92    93    1
   128    92    89    1
   129    52    51    1
   130    91    90    2
   131    55    54    1
   132    51    54    1
   133    90    89    1
   134    89    88    1
   135    80    79    2
   136    87    85   ar
   137    87    86   ar
   138    85    83   ar
   139    86    84   ar
   140    79    78    1
   141    84    82   ar
   142    83    82   ar
   143    82    81    1
   144    67    66    1
   145    78    81    1
   146    78    77    1
   147    66    64   ar
   148    66    65   ar
   149    64    62   ar
   150    65    63   ar
   151    71    70    2
   152    77    70   am
   153    70    69    1
   154    62    61   ar
   155    63    61   ar
   156    61    60    1
   157    69    72    1
   158    69    68    1
   159    60    57    1
   160    72    73    1
   161    73    74    1
   162    57    58    1
   163    57    56    1
   164    74    75    1
   165    58    59    2
   166    75    76    1
