@<TRIPOS>MOLECULE
tmp/6c2rA00.pdb
 165 155 0 0 0
SMALL
GASTEIGER

@<TRIPOS>ATOM
      1  N        112.9920   -6.1270    5.6460 N.3    10  ARG10      -0.1245
      2  CA       113.2400   -6.8520    6.8910 C.3    10  ARG10       0.1563
      3  C        113.7900   -8.2630    6.6930 C.2    10  ARG10       0.2260
      4  O        113.5170   -8.8480    5.6510 O.2    10  ARG10      -0.2867
      5  CB       111.9560   -6.9030    7.7470 C.3    10  ARG10       0.0307
      6  CG       110.9030   -7.9200    7.2660 C.3    10  ARG10       0.0489
      7  CD       109.5460   -7.6180    7.8390 C.3    10  ARG10       0.2205
      8  NE       108.4630   -8.3600    7.1940 N.pl3  10  ARG10      -0.0865
      9  CZ       108.0490   -9.5700    7.5550 C.cat  10  ARG10       0.5346
     10  NH1      107.0390  -10.1490    6.9200 N.pl3  10  ARG10       0.1354
     11  NH2      108.6580  -10.2230    8.5420 N.pl3  10  ARG10       0.1354
     12  N        113.7420  -12.2520    6.9690 N.3    12  LEU12      -0.1231
     13  CA       112.7110  -13.2830    6.9470 C.3    12  LEU12       0.1693
     14  C        113.2850  -14.6470    7.3660 C.2    12  LEU12       0.2593
     15  O        112.6950  -15.6780    7.0350 O.2    12  LEU12      -0.2718
     16  CB       112.1150  -13.3970    5.5180 C.3    12  LEU12       0.0284
     17  CG       111.3700  -12.2030    4.9210 C.3    12  LEU12       0.0019
     18  CD1      110.9900  -12.4930    3.4670 C.3    12  LEU12       0.0001
     19  CD2      110.1180  -11.8420    5.7350 C.3    12  LEU12       0.0001
     20  N        114.4340  -14.6450    8.0360 N.am   13  GLY13      -0.1942
     21  CA       115.0990  -15.8660    8.4820 C.3    13  GLY13       0.2014
     22  C        116.6080  -15.7710    8.4680 C.2    13  GLY13       0.2638
     23  O        117.1860  -15.2030    7.5340 O.2    13  GLY13      -0.2714
     24  N        117.2500  -16.3380    9.5140 N.am   14  LYS14      -0.1977
     25  CA       118.7100  -16.3670    9.7260 C.3    14  LYS14       0.1596
     26  C        119.1880  -17.8280    9.8090 C.2    14  LYS14       0.2287
     27  O        118.7250  -18.5760   10.6780 O.2    14  LYS14      -0.2864
     28  CB       119.0920  -15.5900   11.0040 C.3    14  LYS14       0.0298
     29  CG       118.8140  -14.0910   10.9360 C.3    14  LYS14       0.0038
     30  CD       119.2600  -13.3660   12.1960 C.3    14  LYS14       0.0206
     31  CE       118.9430  -11.8920   12.1120 C.3    14  LYS14       0.1093
     32  NZ       119.6210  -11.1040   13.1770 N.3    14  LYS14      -0.1314
     33  N        117.8330  -14.6000    4.8960 N.3    20  VAL20      -0.1245
     34  CA       116.7700  -14.3130    3.9410 C.3    20  VAL20       0.1561
     35  C        116.1620  -12.9580    4.2790 C.2    20  VAL20       0.2260
     36  O        115.8900  -12.6970    5.4380 O.2    20  VAL20      -0.2867
     37  CB       115.6760  -15.4080    3.8790 C.3    20  VAL20       0.0252
     38  CG1      114.7720  -15.1740    2.6760 C.3    20  VAL20       0.0019
     39  CG2      116.2850  -16.8040    3.8320 C.3    20  VAL20       0.0019
     40  N        111.8340  -12.2670   -2.2890 N.3    33  ALA33      -0.1245
     41  CA       112.6730  -12.6300   -1.1410 C.3    33  ALA33       0.1562
     42  C        114.0700  -12.9520   -1.6240 C.2    33  ALA33       0.2260
     43  O        114.2180  -13.6080   -2.6410 O.2    33  ALA33      -0.2867
     44  CB       112.0710  -13.8230   -0.3850 C.3    33  ALA33       0.0290
     45  N        117.7240  -14.6770   -0.6670 N.3    35  LYS35      -0.1245
     46  CA       118.4580  -15.5450    0.2650 C.3    35  LYS35       0.1561
     47  C        119.9240  -15.4740   -0.1060 C.2    35  LYS35       0.2260
     48  O        120.2760  -15.6350   -1.2770 O.2    35  LYS35      -0.2867
     49  CB       117.9390  -16.9900    0.2260 C.3    35  LYS35       0.0271
     50  CG       118.7460  -17.9550    1.1030 C.3    35  LYS35       0.0035
     51  CD       118.1680  -19.3520    1.0310 C.3    35  LYS35       0.0206
     52  CE       119.0540  -20.3910    1.6960 C.3    35  LYS35       0.1093
     53  NZ       118.9240  -20.3880    3.1790 N.3    35  LYS35      -0.1314
     54  N        107.4920  -22.9830   -4.2120 N.3    67  LEU67      -0.1245
     55  CA       108.0230  -21.6350   -4.0860 C.3    67  LEU67       0.1561
     56  C        108.9630  -21.3450   -5.2480 C.2    67  LEU67       0.2260
     57  O        109.8820  -22.1090   -5.5020 O.2    67  LEU67      -0.2867
     58  CB       108.6590  -21.3930   -2.7200 C.3    67  LEU67       0.0270
     59  CG       108.8590  -19.9120   -2.3780 C.3    67  LEU67       0.0019
     60  CD1      107.5590  -19.2840   -1.8750 C.3    67  LEU67       0.0001
     61  CD2      109.9830  -19.7290   -1.3630 C.3    67  LEU67       0.0001
     62  N        113.8250  -15.3850   -4.7260 N.3    83  LEU83      -0.1231
     63  CA       112.7000  -16.2690   -4.4740 C.3    83  LEU83       0.1693
     64  C        111.4000  -15.5220   -4.4030 C.2    83  LEU83       0.2592
     65  O        111.3700  -14.3290   -4.1100 O.2    83  LEU83      -0.2718
     66  CB       112.9230  -16.9790   -3.1240 C.3    83  LEU83       0.0284
     67  CG       114.2000  -17.8060   -2.9720 C.3    83  LEU83       0.0019
     68  CD1      114.4710  -18.0990   -1.5010 C.3    83  LEU83       0.0001
     69  CD2      114.0950  -19.1190   -3.7560 C.3    83  LEU83       0.0001
     70  N        110.3140  -16.2540   -4.6050 N.am   84  GLU84      -0.1966
     71  CA       108.9590  -15.7550   -4.4700 C.3    84  GLU84       0.1733
     72  C        108.7460  -15.3920   -3.0010 C.2    84  GLU84       0.2616
     73  O        109.2430  -16.0920   -2.1270 O.2    84  GLU84      -0.2715
     74  CB       107.9950  -16.9020   -4.8480 C.3    84  GLU84       0.0429
     75  CG       106.5200  -16.5660   -4.8040 C.3    84  GLU84       0.1163
     76  CD       105.6300  -17.7480   -5.1820 C.2    84  GLU84       0.3649
     77  OE1      106.1550  -18.7940   -5.6240 O.co2  84  GLU84      -0.2457
     78  OE2      104.4000  -17.6260   -5.0300 O.co2  84  GLU84      -0.2457
     79  N        108.0220  -14.3130   -2.7420 N.am   85  TYR85      -0.1960
     80  CA       107.6330  -13.9580   -1.3770 C.3    85  TYR85       0.1771
     81  C        106.2240  -14.5180   -1.1550 C.2    85  TYR85       0.2619
     82  O        105.3320  -14.2420   -1.9630 O.2    85  TYR85      -0.2715
     83  CB       107.6090  -12.4190   -1.1770 C.3    85  TYR85       0.0574
     84  CG       107.1260  -11.9830    0.1940 C.ar   85  TYR85      -0.0198
     85  CD1      107.7780  -12.4050    1.3500 C.ar   85  TYR85      -0.0009
     86  CD2      106.1000  -11.0490    0.3290 C.ar   85  TYR85      -0.0009
     87  CE1      107.3670  -11.9740    2.6120 C.ar   85  TYR85       0.0417
     88  CE2      105.6940  -10.5940    1.5850 C.ar   85  TYR85       0.0417
     89  CZ       106.3140  -11.0860    2.7250 C.ar   85  TYR85       0.1957
     90  OH       105.9260  -10.6700    3.9670 O.3    85  TYR85      -0.2866
     91  N        106.0280  -15.2960   -0.0770 N.am   86  ALA86      -0.1964
     92  CA       104.7410  -15.8960    0.3060 C.3    86  ALA86       0.1713
     93  C        104.2930  -15.0910    1.5050 C.2    86  ALA86       0.2458
     94  O        104.8640  -15.2560    2.5880 O.2    86  ALA86      -0.2730
     95  CB       104.9280  -17.3600    0.6640 C.3    86  ALA86       0.0333
     96  N        103.3610  -14.1170    1.3130 N.am   87  PRO87      -0.2727
     97  CA       103.0730  -13.1500    2.3960 C.3    87  PRO87       0.1402
     98  C        102.5670  -13.7120    3.7130 C.2    87  PRO87       0.2269
     99  O        102.8490  -13.1140    4.7550 O.2    87  PRO87      -0.2865
    100  CB       102.0440  -12.2050    1.7720 C.3    87  PRO87       0.0296
    101  CG       102.2340  -12.3380    0.3100 C.3    87  PRO87       0.0237
    102  CD       102.6370  -13.7560    0.0740 C.3    87  PRO87       0.0939
    103  N        103.4920  -16.3720    5.3280 N.3    89  GLY89      -0.1210
    104  CA       104.5280  -17.1480    5.9930 C.3    89  GLY89       0.1956
    105  C        104.3060  -18.6480    6.0930 C.2    89  GLY89       0.2612
    106  O        103.5530  -19.2280    5.3150 O.2    89  GLY89      -0.2717
    107  N        104.9660  -19.2870    7.0650 N.am   90  THR90      -0.1952
    108  CA       104.9380  -20.7260    7.2290 C.3    90  THR90       0.1897
    109  C        103.6020  -21.2640    7.7670 C.2    90  THR90       0.2313
    110  O        102.9720  -20.6530    8.6330 O.2    90  THR90      -0.2863
    111  CB       106.1490  -21.2410    8.0510 C.3    90  THR90       0.1794
    112  OG1      106.0250  -22.6520    8.1660 O.3    90  THR90      -0.2208
    113  CG2      106.2430  -20.6440    9.4460 C.3    90  THR90       0.0378
    114  N        103.2260  -21.7050   11.6300 N.3    93  ARG93      -0.1245
    115  CA       102.7250  -20.5930   12.4380 C.3    93  ARG93       0.1563
    116  C        101.2000  -20.5880   12.4220 C.2    93  ARG93       0.2260
    117  O        100.5610  -20.3210   13.4480 O.2    93  ARG93      -0.2867
    118  CB       103.2850  -19.2430   11.9620 C.3    93  ARG93       0.0307
    119  CG       104.6080  -18.8560   12.6130 C.3    93  ARG93       0.0489
    120  CD       104.8790  -17.3370   12.5850 C.3    93  ARG93       0.2205
    121  NE       104.9750  -16.7950   11.2230 N.pl3  93  ARG93      -0.0865
    122  CZ       104.0440  -16.0500   10.6310 C.cat  93  ARG93       0.5346
    123  NH1      104.2190  -15.6250    9.3910 N.pl3  93  ARG93       0.1354
    124  NH2      102.9360  -15.7140   11.2840 N.pl3  93  ARG93       0.1354
    125  N        107.8160  -26.2420    8.5840 N.3   133  GLU133     -0.1231
    126  CA       108.5910  -24.9880    8.5790 C.3   133  GLU133      0.1699
    127  C        109.0210  -24.6150    7.1330 C.2   133  GLU133      0.2592
    128  O        109.2190  -23.4420    6.8430 O.2   133  GLU133     -0.2718
    129  CB       109.7870  -25.0170    9.5650 C.3   133  GLU133      0.0402
    130  CG       110.9560  -25.8970    9.1140 C.3   133  GLU133      0.1161
    131  CD       112.2930  -25.7840    9.8420 C.2   133  GLU133      0.3649
    132  OE1      112.5300  -24.7680   10.5370 O.co2 133  GLU133     -0.2457
    133  OE2      113.1270  -26.7060    9.6780 O.co2 133  GLU133     -0.2457
    134  N        109.0600  -25.6170    6.2320 N.am  134  ASN134     -0.1974
    135  CA       109.4230  -25.4660    4.8310 C.3   134  ASN134      0.1688
    136  C        108.2240  -25.3640    3.8940 C.2   134  ASN134      0.2292
    137  O        108.3750  -25.5260    2.6770 O.2   134  ASN134     -0.2864
    138  CB       110.3750  -26.5930    4.4140 C.3   134  ASN134      0.1181
    139  CG       111.7010  -26.5250    5.1400 C.2   134  ASN134      0.2629
    140  OD1      112.1110  -25.4770    5.6190 O.2   134  ASN134     -0.2716
    141  ND2      112.3740  -27.6410    5.2740 N.am  134  ASN134     -0.0877
    142  N        105.2560  -22.6780    2.8990 N.3   136  LEU136     -0.1245
    143  CA       104.8610  -21.2620    2.9940 C.3   136  LEU136      0.1561
    144  C        103.5050  -21.0350    2.3820 C.2   136  LEU136      0.2260
    145  O        103.0430  -21.8660    1.5950 O.2   136  LEU136     -0.2867
    146  CB       105.9370  -20.3390    2.3510 C.3   136  LEU136      0.0270
    147  CG       107.3960  -20.5590    2.8420 C.3   136  LEU136      0.0019
    148  CD1      108.3530  -19.5040    2.2590 C.3   136  LEU136      0.0001
    149  CD2      107.5040  -20.5740    4.3750 C.3   136  LEU136      0.0001
    150  N        108.9040  -25.0210   -0.0270 N.3   146  ALA146     -0.1245
    151  CA       109.9990  -24.0720    0.0300 C.3   146  ALA146      0.1562
    152  C        111.2200  -24.6830    0.7390 C.2   146  ALA146      0.2260
    153  O        111.5100  -24.3630    1.8970 O.2   146  ALA146     -0.2867
    154  CB       109.5460  -22.8330    0.7710 C.3   146  ALA146      0.0290
    155  N        115.2710  -26.8860   -0.2360 N.3   148  PHE148     -0.1241
    156  CA       116.2620  -27.0980   -1.2810 C.3   148  PHE148      0.1605
    157  C        116.5320  -28.6060   -1.4210 C.2   148  PHE148      0.2264
    158  O        117.6780  -29.0450   -1.5860 O.2   148  PHE148     -0.2867
    159  CB       117.5080  -26.2060   -0.9880 C.3   148  PHE148      0.0534
    160  CG       117.1090  -24.7510   -0.7980 C.ar  148  PHE148     -0.0203
    161  CD1      116.8960  -23.9220   -1.8960 C.ar  148  PHE148     -0.0042
    162  CD2      116.8280  -24.2470    0.4710 C.ar  148  PHE148     -0.0042
    163  CE1      116.4370  -22.6050   -1.7250 C.ar  148  PHE148     -0.0003
    164  CE2      116.3740  -22.9300    0.6400 C.ar  148  PHE148     -0.0003
    165  CZ       116.1920  -22.1150   -0.4580 C.ar  148  PHE148     -0.0000
@<TRIPOS>BOND
     1    77    76   ar
     2    57    56    2
     3    56    55    1
     4    76    78   ar
     5    76    75    1
     6    74    75    1
     7    74    71    1
     8    62    63    1
     9    70    71    1
    10    70    64   am
    11    63    64    1
    12    63    66    1
    13    71    72    1
    14    64    65    2
    15    54    55    1
    16    55    58    1
    17    69    67    1
    18    66    67    1
    19    72    79   am
    20    72    73    2
    21    67    68    1
    22    79    80    1
    23    58    59    1
    24    43    42    2
    25    59    60    1
    26    59    61    1
    27    40    41    1
    28    82    81    2
    29   161   163   ar
    30   161   160   ar
    31   163   165   ar
    32    42    41    1
    33   158   157    2
    34   157   156    1
    35    80    83    1
    36    80    81    1
    37   156   159    1
    38   156   155    1
    39    48    47    2
    40    83    84    1
    41    81    91   am
    42    41    44    1
    43   159   160    1
    44   160   162   ar
    45    45    46    1
    46   165   164   ar
    47    47    46    1
    48    91    92    1
    49   150   151    1
    50   151   152    1
    51   151   154    1
    52   102   101    1
    53   102    96    1
    54    84    86   ar
    55    84    85   ar
    56    49    46    1
    57    49    50    1
    58    92    95    1
    59    92    93    1
    60   101   100    1
    61    86    88   ar
    62   162   164   ar
    63   152   153    2
    64    51    50    1
    65    51    52    1
    66    96    93   am
    67    96    97    1
    68    85    87   ar
    69    93    94    2
    70    88    89   ar
    71   145   144    2
    72    52    53    1
    73   100    97    1
    74   148   147    1
    75   146   147    1
    76   146   143    1
    77   144   143    1
    78    97    98    1
    79    87    89   ar
    80    38    37    1
    81   137   136    2
    82    89    90    1
    83   147   149    1
    84   142   143    1
    85    18    17    1
    86    98    99    2
    87    39    37    1
    88    37    34    1
    89   136   135    1
    90    34    35    1
    91    34    33    1
    92    35    36    2
    93   138   135    1
    94   138   139    1
    95   135   134    1
    96    17    16    1
    97    17    19    1
    98   139   141   am
    99   139   140    2
   100   106   105    2
   101   103   104    1
   102    16    13    1
   103     1     2    1
   104     4     3    2
   105   104   105    1
   106   105   107   am
   107   134   127   am
   108     3     2    1
   109   128   127    2
   110     2     5    1
   111    10     9    1
   112    13    12    1
   113    13    14    1
   114    15    14    2
   115   107   108    1
   116   127   126    1
   117     8     9    2
   118     8     7    1
   119   108   109    1
   120   108   111    1
   121     6     5    1
   122     6     7    1
   123    14    20   am
   124    23    22    2
   125     9    11    1
   126   109   110    2
   127    20    21    1
   128   111   112    1
   129   111   113    1
   130    22    21    1
   131    22    24   am
   132   126   125    1
   133   126   129    1
   134   130   129    1
   135   130   131    1
   136   123   122    1
   137    24    25    1
   138   133   131   ar
   139    25    26    1
   140    25    28    1
   141    26    27    2
   142   131   132   ar
   143   122   121    2
   144   122   124    1
   145    29    28    1
   146    29    30    1
   147   121   120    1
   148   114   115    1
   149   118   115    1
   150   118   119    1
   151    31    30    1
   152    31    32    1
   153   116   115    1
   154   116   117    2
   155   120   119    1
