@<TRIPOS>MOLECULE
tmp/6c2tA00.pdb
 181 173 0 0 0
SMALL
GASTEIGER

@<TRIPOS>ATOM
      1  N        112.7110   -6.1540    4.9790 N.3    10  ARG10      -0.1245
      2  CA       112.9150   -6.9000    6.2210 C.3    10  ARG10       0.1563
      3  C        113.5400   -8.2780    6.0220 C.2    10  ARG10       0.2260
      4  O        113.3030   -8.9000    4.9890 O.2    10  ARG10      -0.2867
      5  CB       111.5940   -7.0370    6.9980 C.3    10  ARG10       0.0307
      6  CG       110.7630   -8.2500    6.5820 C.3    10  ARG10       0.0489
      7  CD       109.5820   -8.5430    7.4980 C.3    10  ARG10       0.2205
      8  NE       108.3600   -8.3760    6.7190 N.pl3  10  ARG10      -0.0865
      9  CZ       107.6090   -9.3580    6.2400 C.cat  10  ARG10       0.5346
     10  NH1      106.5620   -9.0840    5.4770 N.pl3  10  ARG10       0.1354
     11  NH2      107.8690  -10.6220    6.5590 N.pl3  10  ARG10       0.1354
     12  N        113.8100  -12.2210    6.3440 N.3    12  LEU12      -0.1231
     13  CA       112.8600  -13.3340    6.3110 C.3    12  LEU12       0.1693
     14  C        113.5850  -14.6320    6.7390 C.2    12  LEU12       0.2593
     15  O        113.3750  -15.6960    6.1490 O.2    12  LEU12      -0.2718
     16  CB       112.2520  -13.4850    4.8940 C.3    12  LEU12       0.0284
     17  CG       111.5380  -12.2760    4.2600 C.3    12  LEU12       0.0019
     18  CD1      111.2030  -12.5590    2.7960 C.3    12  LEU12       0.0001
     19  CD2      110.2540  -11.9510    4.9930 C.3    12  LEU12       0.0001
     20  N        114.4390  -14.5230    7.7550 N.am   13  GLY13      -0.1942
     21  CA       115.1970  -15.6570    8.2710 C.3    13  GLY13       0.2014
     22  C        116.6950  -15.5500    8.0880 C.2    13  GLY13       0.2638
     23  O        117.1760  -15.0370    7.0670 O.2    13  GLY13      -0.2714
     24  N        117.4360  -16.0560    9.0920 N.am   14  LYS14      -0.1977
     25  CA       118.8980  -16.0500    9.1520 C.3    14  LYS14       0.1596
     26  C        119.4410  -17.4300    9.5220 C.2    14  LYS14       0.2287
     27  O        118.9220  -18.0810   10.4300 O.2    14  LYS14      -0.2864
     28  CB       119.3870  -15.0080   10.1720 C.3    14  LYS14       0.0298
     29  CG       119.0230  -13.5580    9.7970 C.3    14  LYS14       0.0038
     30  CD       119.8230  -12.5820   10.6780 C.3    14  LYS14       0.0206
     31  CE       119.5020  -11.1360   10.5120 C.3    14  LYS14       0.1093
     32  NZ       119.7740  -10.6970    9.1170 N.3    14  LYS14      -0.1314
     33  N        117.6450  -14.6160    4.2010 N.3    20  VAL20      -0.1245
     34  CA       116.5950  -14.3180    3.2230 C.3    20  VAL20       0.1561
     35  C        116.0550  -12.9130    3.5340 C.2    20  VAL20       0.2260
     36  O        115.9490  -12.5610    4.6990 O.2    20  VAL20      -0.2867
     37  CB       115.4380  -15.3670    3.2260 C.3    20  VAL20       0.0252
     38  CG1      114.4450  -15.0900    2.0880 C.3    20  VAL20       0.0019
     39  CG2      115.9750  -16.7940    3.1170 C.3    20  VAL20       0.0019
     40  N        111.5430  -12.4200   -2.8320 N.3    33  ALA33      -0.1245
     41  CA       112.3940  -12.7150   -1.6900 C.3    33  ALA33       0.1562
     42  C        113.7520  -13.0450   -2.2410 C.2    33  ALA33       0.2260
     43  O        113.8620  -13.7320   -3.2550 O.2    33  ALA33      -0.2867
     44  CB       111.8500  -13.8980   -0.9100 C.3    33  ALA33       0.0290
     45  N        117.4120  -14.6980   -1.3080 N.3    35  LYS35      -0.1245
     46  CA       118.1800  -15.5470   -0.3790 C.3    35  LYS35       0.1561
     47  C        119.6440  -15.3990   -0.7740 C.2    35  LYS35       0.2260
     48  O        119.9680  -15.5290   -1.9540 O.2    35  LYS35      -0.2867
     49  CB       117.7570  -17.0170   -0.4710 C.3    35  LYS35       0.0271
     50  CG       118.5530  -17.8740    0.5330 C.3    35  LYS35       0.0035
     51  CD       117.8850  -19.2010    0.8410 C.3    35  LYS35       0.0206
     52  CE       118.6880  -19.9590    1.8650 C.3    35  LYS35       0.1093
     53  NZ       117.9530  -21.1610    2.3440 N.3    35  LYS35      -0.1314
     54  N        107.2380  -23.1900   -4.4980 N.3    67  LEU67      -0.1245
     55  CA       107.8060  -21.8300   -4.4610 C.3    67  LEU67       0.1561
     56  C        108.6440  -21.5930   -5.7010 C.2    67  LEU67       0.2260
     57  O        109.5070  -22.3880   -6.0380 O.2    67  LEU67      -0.2867
     58  CB       108.6040  -21.5610   -3.1800 C.3    67  LEU67       0.0270
     59  CG       108.8370  -20.0530   -2.9350 C.3    67  LEU67       0.0019
     60  CD1      107.5660  -19.3640   -2.4360 C.3    67  LEU67       0.0001
     61  CD2      110.0220  -19.8200   -1.9950 C.3    67  LEU67       0.0001
     62  N        113.4950  -15.5010   -5.3930 N.3    83  LEU83      -0.1231
     63  CA       112.3510  -16.3620   -5.1170 C.3    83  LEU83       0.1693
     64  C        111.0420  -15.6310   -5.0600 C.2    83  LEU83       0.2592
     65  O        110.9590  -14.4380   -4.7030 O.2    83  LEU83      -0.2718
     66  CB       112.5290  -17.0090   -3.7080 C.3    83  LEU83       0.0284
     67  CG       113.8490  -17.7240   -3.4400 C.3    83  LEU83       0.0019
     68  CD1      114.0390  -17.9660   -1.9560 C.3    83  LEU83       0.0001
     69  CD2      113.9430  -19.0020   -4.2360 C.3    83  LEU83       0.0001
     70  N        109.9790  -16.4020   -5.3000 N.am   84  GLU84      -0.1966
     71  CA       108.6320  -15.9360   -5.0720 C.3    84  GLU84       0.1733
     72  C        108.4980  -15.6070   -3.5750 C.2    84  GLU84       0.2616
     73  O        109.0520  -16.3390   -2.7380 O.2    84  GLU84      -0.2715
     74  CB       107.6760  -17.0970   -5.4050 C.3    84  GLU84       0.0429
     75  CG       106.2180  -16.8690   -5.0400 C.3    84  GLU84       0.1163
     76  CD       105.3140  -18.0140   -5.4470 C.2    84  GLU84       0.3649
     77  OE1      105.8530  -19.0700   -5.8400 O.co2  84  GLU84      -0.2457
     78  OE2      104.0830  -17.9100   -5.2340 O.co2  84  GLU84      -0.2457
     79  N        107.7830  -14.5000   -3.2510 N.am   85  TYR85      -0.1960
     80  CA       107.4620  -14.1370   -1.8740 C.3    85  TYR85       0.1771
     81  C        106.0710  -14.6640   -1.5450 C.2    85  TYR85       0.2619
     82  O        105.1080  -14.4010   -2.2860 O.2    85  TYR85      -0.2715
     83  CB       107.5010  -12.5920   -1.6760 C.3    85  TYR85       0.0574
     84  CG       107.1390  -12.2120   -0.2600 C.ar   85  TYR85      -0.0198
     85  CD1      107.9160  -12.6390    0.8170 C.ar   85  TYR85      -0.0009
     86  CD2      106.0220  -11.4310    0.0070 C.ar   85  TYR85      -0.0009
     87  CE1      107.5670  -12.3230    2.1280 C.ar   85  TYR85       0.0417
     88  CE2      105.6700  -11.0950    1.3200 C.ar   85  TYR85       0.0417
     89  CZ       106.4740  -11.5120    2.3700 C.ar   85  TYR85       0.1957
     90  OH       106.1680  -11.1990    3.6690 O.3    85  TYR85      -0.2866
     91  N        105.9570  -15.4470   -0.4480 N.am   86  ALA86      -0.1964
     92  CA       104.6840  -16.0350   -0.0370 C.3    86  ALA86       0.1713
     93  C        104.1980  -15.1950    1.1470 C.2    86  ALA86       0.2458
     94  O        104.7840  -15.3170    2.2330 O.2    86  ALA86      -0.2730
     95  CB       104.8980  -17.4740    0.3860 C.3    86  ALA86       0.0333
     96  N        103.1830  -14.3210    0.9360 N.am   87  PRO87      -0.2716
     97  CA       102.8420  -13.3240    1.9630 C.3    87  PRO87       0.1536
     98  C        102.2420  -13.8110    3.2580 C.2    87  PRO87       0.2598
     99  O        102.3140  -13.0780    4.2550 O.2    87  PRO87      -0.2715
    100  CB       101.8460  -12.3960    1.2430 C.3    87  PRO87       0.0310
    101  CG       102.1060  -12.5740   -0.1910 C.3    87  PRO87       0.0237
    102  CD       102.4720  -14.0260   -0.3300 C.3    87  PRO87       0.0939
    103  N        101.6950  -15.0400    3.2760 N.am   88  LEU88      -0.1964
    104  CA       100.9870  -15.4490    4.4650 C.3    88  LEU88       0.1728
    105  C        101.7800  -16.3420    5.3970 C.2    88  LEU88       0.2617
    106  O        101.1830  -16.9610    6.2610 O.2    88  LEU88      -0.2715
    107  CB        99.6470  -16.0690    4.0650 C.3    88  LEU88       0.0311
    108  CG        98.5990  -15.1590    3.3610 C.3    88  LEU88       0.0022
    109  CD1       97.2760  -15.9020    3.1950 C.3    88  LEU88       0.0001
    110  CD2       98.3470  -13.8490    4.1350 C.3    88  LEU88       0.0001
    111  N        103.1110  -16.3940    5.2320 N.am   89  GLY89      -0.1940
    112  CA       103.9950  -17.1460    6.1230 C.3    89  GLY89       0.2014
    113  C        103.9300  -18.6580    6.0270 C.2    89  GLY89       0.2639
    114  O        103.5480  -19.1920    4.9950 O.2    89  GLY89      -0.2714
    115  N        104.2550  -19.3690    7.1210 N.am   90  THR90      -0.1950
    116  CA       104.3190  -20.8300    7.0280 C.3    90  THR90       0.1897
    117  C        103.0680  -21.5200    7.4790 C.2    90  THR90       0.2313
    118  O        102.2560  -20.9720    8.2460 O.2    90  THR90      -0.2863
    119  CB       105.4960  -21.3960    7.8390 C.3    90  THR90       0.1794
    120  OG1      105.2710  -21.1210    9.2320 O.3    90  THR90      -0.2208
    121  CG2      106.8230  -20.8220    7.4130 C.3    90  THR90       0.0378
    122  N        103.3500  -21.8760   11.2860 N.3    93  ARG93      -0.1245
    123  CA       102.7890  -20.7460   12.0640 C.3    93  ARG93       0.1563
    124  C        101.2470  -20.8000   12.0950 C.2    93  ARG93       0.2260
    125  O        100.6380  -20.5380   13.1360 O.2    93  ARG93      -0.2867
    126  CB       103.3100  -19.3920   11.5250 C.3    93  ARG93       0.0307
    127  CG       102.7420  -18.1600   12.2570 C.3    93  ARG93       0.0489
    128  CD       102.9860  -18.1710   13.7610 C.3    93  ARG93       0.2205
    129  NE       102.2820  -17.0520   14.3960 N.pl3  93  ARG93      -0.0865
    130  CZ       101.2600  -17.1840   15.2350 C.cat  93  ARG93       0.5346
    131  NH1      100.6720  -16.1100   15.7470 N.pl3  93  ARG93       0.1354
    132  NH2      100.8220  -18.3890   15.5750 N.pl3  93  ARG93       0.1354
    133  N        107.4350  -26.2100    8.4770 N.3   133  GLU133     -0.1231
    134  CA       108.1370  -24.9120    8.5240 C.3   133  GLU133      0.1699
    135  C        108.7270  -24.5750    7.1500 C.2   133  GLU133      0.2592
    136  O        109.1510  -23.4390    6.9320 O.2   133  GLU133     -0.2718
    137  CB       109.2150  -24.8480    9.6330 C.3   133  GLU133      0.0402
    138  CG       110.1390  -26.0560    9.6540 C.3   133  GLU133      0.1161
    139  CD       109.7480  -27.0770   10.7110 C.2   133  GLU133      0.3649
    140  OE1      108.6070  -27.6010   10.6670 O.co2 133  GLU133     -0.2457
    141  OE2      110.5970  -27.3520   11.5890 O.co2 133  GLU133     -0.2457
    142  N        108.7400  -25.5580    6.2240 N.am  134  ASN134     -0.1974
    143  CA       109.2340  -25.3000    4.8650 C.3   134  ASN134      0.1688
    144  C        108.0850  -25.2210    3.8650 C.2   134  ASN134      0.2292
    145  O        108.2930  -25.3430    2.6470 O.2   134  ASN134     -0.2864
    146  CB       110.2460  -26.3330    4.4610 C.3   134  ASN134      0.1181
    147  CG       111.4910  -26.2110    5.2940 C.2   134  ASN134      0.2629
    148  OD1      111.9150  -25.1090    5.6470 O.2   134  ASN134     -0.2716
    149  ND2      112.0960  -27.3300    5.6060 N.am  134  ASN134     -0.0877
    150  N        105.2340  -22.7530    2.7170 N.3   136  LEU136     -0.1245
    151  CA       104.8080  -21.3550    2.8080 C.3   136  LEU136      0.1561
    152  C        103.4250  -21.1580    2.2130 C.2   136  LEU136      0.2260
    153  O        102.9500  -22.0310    1.5030 O.2   136  LEU136     -0.2867
    154  CB       105.8230  -20.4500    2.1140 C.3   136  LEU136      0.0270
    155  CG       107.1640  -20.3230    2.8220 C.3   136  LEU136      0.0019
    156  CD1      108.2170  -19.7980    1.8650 C.3   136  LEU136      0.0001
    157  CD2      107.0380  -19.3600    4.0250 C.3   136  LEU136      0.0001
    158  N        108.7970  -25.0990   -0.2970 N.3   146  ALA146     -0.1231
    159  CA       109.8520  -24.0750   -0.3580 C.3   146  ALA146      0.1694
    160  C        111.2310  -24.5350    0.1340 C.2   146  ALA146      0.2592
    161  O        112.1270  -23.7030    0.3110 O.2   146  ALA146     -0.2718
    162  CB       109.3880  -22.8560    0.4600 C.3   146  ALA146      0.0304
    163  N        111.4230  -25.8410    0.3230 N.am  147  ASP147     -0.1960
    164  CA       112.7040  -26.3560    0.8210 C.3   147  ASP147      0.1840
    165  C        113.7380  -26.7150   -0.2350 C.2   147  ASP147      0.2622
    166  O        114.8810  -27.0000    0.1400 O.2   147  ASP147     -0.2715
    167  CB       112.4720  -27.5690    1.7330 C.3   147  ASP147      0.1450
    168  CG       111.6620  -28.6730    1.1020 C.2   147  ASP147      0.3671
    169  OD1      111.5740  -28.7100   -0.1470 O.co2 147  ASP147     -0.2456
    170  OD2      111.0770  -29.4860    1.8540 O.co2 147  ASP147     -0.2456
    171  N        113.3650  -26.7310   -1.5330 N.am  148  PHE148     -0.1974
    172  CA       114.2950  -27.1490   -2.6360 C.3   148  PHE148      0.1639
    173  C        114.7860  -28.6100   -2.4190 C.2   148  PHE148      0.2290
    174  O        115.8260  -28.9750   -2.9580 O.2   148  PHE148     -0.2864
    175  CB       115.5440  -26.2220   -2.7730 C.3   148  PHE148      0.0560
    176  CG       115.3950  -24.8840   -3.4730 C.ar  148  PHE148     -0.0200
    177  CD1      114.2920  -24.0700   -3.2300 C.ar  148  PHE148     -0.0042
    178  CD2      116.4030  -24.3960   -4.2890 C.ar  148  PHE148     -0.0042
    179  CE1      114.1650  -22.8280   -3.8580 C.ar  148  PHE148     -0.0003
    180  CE2      116.2770  -23.1570   -4.9150 C.ar  148  PHE148     -0.0003
    181  CZ       115.1690  -22.3700   -4.6750 C.ar  148  PHE148     -0.0000
@<TRIPOS>BOND
     1    57    56    2
     2    77    76   ar
     3    56    55    1
     4    76    78   ar
     5    76    75    1
     6    74    71    1
     7    74    75    1
     8    62    63    1
     9    70    71    1
    10    70    64   am
    11    63    64    1
    12    63    66    1
    13    71    72    1
    14    64    65    2
    15   180   181   ar
    16   180   178   ar
    17   181   179   ar
    18    54    55    1
    19    55    58    1
    20   178   176   ar
    21    69    67    1
    22   179   177   ar
    23    66    67    1
    24    72    79   am
    25    72    73    2
    26   176   177   ar
    27   176   175    1
    28    67    68    1
    29    43    42    2
    30    79    80    1
    31    58    59    1
    32   174   173    2
    33    59    60    1
    34    59    61    1
    35    40    41    1
    36   175   172    1
    37   172   173    1
    38   172   171    1
    39    82    81    2
    40    42    41    1
    41    48    47    2
    42    80    83    1
    43    80    81    1
    44    41    44    1
    45    83    84    1
    46    81    91   am
    47   171   165   am
    48    45    46    1
    49    47    46    1
    50    49    46    1
    51    49    50    1
    52    91    92    1
    53   159   158    1
    54   159   160    1
    55   159   162    1
    56   102   101    1
    57   102    96    1
    58    84    86   ar
    59    84    85   ar
    60   165   166    2
    61   165   164    1
    62   101   100    1
    63   169   168   ar
    64    92    95    1
    65    92    93    1
    66    86    88   ar
    67   160   161    2
    68   160   163   am
    69   163   164    1
    70    50    51    1
    71    85    87   ar
    72   164   167    1
    73    51    52    1
    74    96    93   am
    75    96    97    1
    76   168   167    1
    77   168   170   ar
    78    93    94    2
    79   100    97    1
    80    88    89   ar
    81   153   152    2
    82   156   155    1
    83    52    53    1
    84    97    98    1
    85    38    37    1
    86   154   151    1
    87   154   155    1
    88    87    89   ar
    89   152   151    1
    90    89    90    1
    91   145   144    2
    92   150   151    1
    93    18    17    1
    94   155   157    1
    95    39    37    1
    96   109   108    1
    97    34    37    1
    98    34    35    1
    99    34    33    1
   100    98   103   am
   101    98    99    2
   102   103   104    1
   103   108   107    1
   104   108   110    1
   105    35    36    2
   106   144   143    1
   107   107   104    1
   108    17    16    1
   109    17    19    1
   110   146   143    1
   111   146   147    1
   112   104   105    1
   113   143   142    1
   114    16    13    1
   115     1     2    1
   116     4     3    2
   117   114   113    2
   118   111   105   am
   119   111   112    1
   120   147   149   am
   121   147   148    2
   122   105   106    2
   123    10     9    1
   124     3     2    1
   125   113   112    1
   126   113   115   am
   127    15    14    2
   128     2     5    1
   129   142   135   am
   130     9    11    1
   131     9     8    2
   132    13    12    1
   133    13    14    1
   134     6     5    1
   135     6     7    1
   136     8     7    1
   137    14    20   am
   138   136   135    2
   139   116   115    1
   140   116   117    1
   141   116   119    1
   142    23    22    2
   143   135   134    1
   144   121   119    1
   145   117   118    2
   146    20    21    1
   147   119   120    1
   148    22    21    1
   149    22    24   am
   150   133   134    1
   151   134   137    1
   152    24    25    1
   153    32    31    1
   154    25    26    1
   155    25    28    1
   156    26    27    2
   157   137   138    1
   158   138   139    1
   159    29    28    1
   160    29    30    1
   161    31    30    1
   162   140   139   ar
   163   139   141   ar
   164   122   123    1
   165   126   123    1
   166   126   127    1
   167   123   124    1
   168   124   125    2
   169   127   128    1
   170   128   129    1
   171   129   130    2
   172   130   132    1
   173   130   131    1
