@<TRIPOS>MOLECULE
tmp/6c3aB01.pdb
 99 91 0 0 0
SMALL
GASTEIGER

@<TRIPOS>ATOM
      1  N          7.0020   49.7700   39.7120 N.3     2  LEU2       -0.1231
      2  CA         8.0030   49.7400   38.6480 C.3     2  LEU2        0.1693
      3  C          7.5410   50.5260   37.4370 C.2     2  LEU2        0.2592
      4  O          8.2530   51.4050   36.9370 O.2     2  LEU2       -0.2718
      5  CB         8.2880   48.3020   38.2250 C.3     2  LEU2        0.0284
      6  CG         9.4870   47.6770   38.9030 C.3     2  LEU2        0.0019
      7  CD1        9.7960   46.2920   38.3610 C.3     2  LEU2        0.0001
      8  CD2       10.6070   48.6080   38.6290 C.3     2  LEU2        0.0001
      9  N          6.3520   50.1890   36.9360 N.am    3  THR3       -0.1953
     10  CA         5.8190   50.8030   35.7290 C.3     3  THR3        0.1897
     11  C          5.8280   52.3230   35.8300 C.2     3  THR3        0.2313
     12  O          6.1500   53.0170   34.8590 O.2     3  THR3       -0.2863
     13  CB         4.4070   50.2640   35.4870 C.3     3  THR3        0.1794
     14  OG1        4.4830   48.8790   35.1230 O.3     3  THR3       -0.2208
     15  CG2        3.7000   51.0370   34.4010 C.3     3  THR3        0.0378
     16  N          9.1550   53.5050   35.3380 N.3     6  GLU6       -0.1245
     17  CA         9.4620   53.3840   33.9190 C.3     6  GLU6        0.1567
     18  C          8.7200   54.4210   33.0800 C.2     6  GLU6        0.2260
     19  O          9.2150   54.8170   32.0180 O.2     6  GLU6       -0.2867
     20  CB         9.1400   51.9690   33.4410 C.3     6  GLU6        0.0388
     21  CG         9.8480   50.9000   34.2570 C.3     6  GLU6        0.1160
     22  CD         9.4650   49.4870   33.8690 C.2     6  GLU6        0.3649
     23  OE1        8.3640   49.2800   33.3160 O.co2   6  GLU6       -0.2457
     24  OE2       10.2770   48.5780   34.1170 O.co2   6  GLU6       -0.2457
     25  N         12.5230   47.3110   30.8210 N.3    19  ALA19      -0.1231
     26  CA        13.2210   46.2970   30.0470 C.3    19  ALA19       0.1694
     27  C         12.6810   46.1620   28.6350 C.2    19  ALA19       0.2592
     28  O         13.2170   45.3530   27.8710 O.2    19  ALA19      -0.2718
     29  CB        13.1490   44.9500   30.7660 C.3    19  ALA19       0.0304
     30  N         11.6550   46.9370   28.2830 N.am   20  HIS20      -0.1976
     31  CA        11.1160   46.9300   26.9330 C.3    20  HIS20       0.1656
     32  C         12.2190   47.2140   25.9190 C.2    20  HIS20       0.2291
     33  O         13.1870   47.9220   26.1970 O.2    20  HIS20      -0.2864
     34  CB         9.9910   47.9650   26.8060 C.3    20  HIS20       0.0771
     35  CG         8.7760   47.6420   27.6250 C.ar   20  HIS20       0.0820
     36  ND1        7.4950   47.9350   27.2050 N.ar   20  HIS20      -0.2267
     37  CD2        8.6490   47.0530   28.8370 C.ar   20  HIS20       0.1154
     38  CE1        6.6300   47.5370   28.1240 C.ar   20  HIS20       0.1986
     39  NE2        7.3050   46.9980   29.1240 N.ar   20  HIS20      -0.2212
     40  N          1.2450   40.1990   30.7790 N.3    81  SER81      -0.1217
     41  CA         0.4360   40.5860   31.9330 C.3    81  SER81       0.1889
     42  C         -1.0230   40.2080   31.7470 C.2    81  SER81       0.2288
     43  O         -1.7130   39.9400   32.7360 O.2    81  SER81      -0.2866
     44  CB         0.5500   42.0830   32.1890 C.3    81  SER81       0.2089
     45  OG         1.8890   42.4540   32.4530 O.3    81  SER81      -0.2183
     46  N         10.2710   40.7710   39.0720 N.3   105  PHE105     -0.1241
     47  CA         9.7010   42.0470   38.6580 C.3   105  PHE105      0.1605
     48  C          8.3560   42.2520   39.3560 C.2   105  PHE105      0.2264
     49  O          7.5170   41.3450   39.3970 O.2   105  PHE105     -0.2867
     50  CB         9.5660   42.0980   37.1330 C.3   105  PHE105      0.0534
     51  CG         8.5980   41.1020   36.5720 C.ar  105  PHE105     -0.0203
     52  CD1        8.8590   39.7430   36.6240 C.ar  105  PHE105     -0.0042
     53  CD2        7.4150   41.5290   35.9920 C.ar  105  PHE105     -0.0042
     54  CE1        7.9530   38.8260   36.1200 C.ar  105  PHE105     -0.0003
     55  CE2        6.5090   40.6140   35.4820 C.ar  105  PHE105     -0.0003
     56  CZ         6.7810   39.2640   35.5520 C.ar  105  PHE105     -0.0000
     57  N          5.6460   43.9020   38.9410 N.3   107  ASN107     -0.1240
     58  CA         4.3170   43.9630   38.3570 C.3   107  ASN107      0.1653
     59  C          3.6310   42.6030   38.3990 C.2   107  ASN107      0.2266
     60  O          2.4010   42.5520   38.4340 O.2   107  ASN107     -0.2867
     61  CB         4.3870   44.5770   36.9450 C.3   107  ASN107      0.1155
     62  CG         4.0050   43.6170   35.8390 C.2   107  ASN107      0.2627
     63  OD1        4.8730   43.0330   35.1990 O.2   107  ASN107     -0.2716
     64  ND2        2.7100   43.5010   35.5600 N.am  107  ASN107     -0.0877
     65  N         -0.0220   42.7030   39.8780 N.3   111  VAL111     -0.1245
     66  CA        -1.2230   42.2590   39.1780 C.3   111  VAL111      0.1561
     67  C         -1.9330   41.1780   39.9690 C.2   111  VAL111      0.2260
     68  O         -3.1560   41.2120   40.0950 O.2   111  VAL111     -0.2867
     69  CB        -0.9340   41.8010   37.7350 C.3   111  VAL111      0.0252
     70  CG1       -0.2240   42.8340   37.0040 C.3   111  VAL111      0.0019
     71  CG2       -0.1490   40.5200   37.6940 C.3   111  VAL111      0.0019
     72  N         13.6670   37.4570   36.1500 N.3   153  ASN153     -0.1240
     73  CA        13.8310   38.8890   35.9920 C.3   153  ASN153      0.1653
     74  C         13.7760   39.4130   37.4120 C.2   153  ASN153      0.2266
     75  O         12.7100   39.3310   38.0360 O.2   153  ASN153     -0.2867
     76  CB        12.6910   39.4560   35.1360 C.3   153  ASN153      0.1155
     77  CG        12.7450   40.9720   34.9640 C.2   153  ASN153      0.2627
     78  OD1       13.5440   41.6710   35.5870 O.2   153  ASN153     -0.2716
     79  ND2       11.8560   41.4920   34.1130 N.am  153  ASN153     -0.0877
     80  N          2.7930   43.2070   20.2820 N.3   228  LYS228     -0.1245
     81  CA         3.3460   41.9310   20.7130 C.3   228  LYS228      0.1561
     82  C          2.2310   40.9230   20.9680 C.2   228  LYS228      0.2260
     83  O          1.0490   41.1750   20.7190 O.2   228  LYS228     -0.2867
     84  CB         4.1900   42.1400   21.9780 C.3   228  LYS228      0.0271
     85  CG         3.3870   42.7530   23.1350 C.3   228  LYS228      0.0035
     86  CD         4.2860   43.2900   24.2510 C.3   228  LYS228      0.0206
     87  CE         3.4830   44.1810   25.1810 C.3   228  LYS228      0.1093
     88  NZ         4.3480   44.7970   26.2250 N.3   228  LYS228     -0.1314
     89  N         18.7750   47.5400   39.0630 N.3   352  ARG352     -0.1245
     90  CA        18.6240   46.9040   37.7530 C.3   352  ARG352      0.1563
     91  C         18.7960   47.9290   36.6330 C.2   352  ARG352      0.2260
     92  O         18.3180   49.0670   36.7340 O.2   352  ARG352     -0.2867
     93  CB        17.2590   46.2110   37.5940 C.3   352  ARG352      0.0307
     94  CG        17.2310   45.2010   36.4190 C.3   352  ARG352      0.0489
     95  CD        15.8170   44.7500   36.0810 C.3   352  ARG352      0.2205
     96  NE        15.1010   45.7920   35.3500 N.pl3 352  ARG352     -0.0865
     97  CZ        13.8920   45.6300   34.8250 C.cat 352  ARG352      0.5346
     98  NH1       13.2490   44.4620   34.9460 N.pl3 352  ARG352      0.1354
     99  NH2       13.3200   46.6410   34.1760 N.pl3 352  ARG352      0.1354
@<TRIPOS>BOND
     1    80    81    1
     2    81    82    1
     3    81    84    1
     4    83    82    2
     5    84    85    1
     6    85    86    1
     7    86    87    1
     8    87    88    1
     9    32    33    2
    10    32    31    1
    11    34    31    1
    12    34    35    1
    13    31    30    1
    14    36    35   ar
    15    36    38   ar
    16    35    37   ar
    17    28    27    2
    18    38    39   ar
    19    30    27   am
    20    27    26    1
    21    37    39   ar
    22    26    29    1
    23    26    25    1
    24    40    41    1
    25    42    41    1
    26    42    43    2
    27    41    44    1
    28    19    18    2
    29    44    45    1
    30    18    17    1
    31    23    22   ar
    32    20    17    1
    33    20    21    1
    34    22    24   ar
    35    22    21    1
    36    17    16    1
    37    79    77   am
    38    99    97    1
    39    15    13    1
    40    97    98    1
    41    97    96    2
    42    12    11    2
    43    77    76    1
    44    77    78    2
    45    14    13    1
    46    76    73    1
    47    63    62    2
    48    96    95    1
    49    55    56   ar
    50    55    53   ar
    51    13    10    1
    52    56    54   ar
    53    64    62   am
    54    10    11    1
    55    10     9    1
    56    62    61    1
    57    53    51   ar
    58    73    72    1
    59    73    74    1
    60    95    94    1
    61    54    52   ar
    62    94    93    1
    63    51    52   ar
    64    51    50    1
    65    91    92    2
    66    91    90    1
    67     9     3   am
    68     4     3    2
    69    61    58    1
    70    70    69    1
    71    50    47    1
    72    74    75    2
    73     3     2    1
    74    93    90    1
    75    71    69    1
    76    69    66    1
    77    90    89    1
    78     5     2    1
    79     5     6    1
    80    58    59    1
    81    58    57    1
    82     7     6    1
    83    59    60    2
    84     8     6    1
    85     2     1    1
    86    47    46    1
    87    47    48    1
    88    66    65    1
    89    66    67    1
    90    48    49    2
    91    67    68    2
