@<TRIPOS>MOLECULE
tmp/6c3bA01.pdb
 80 76 0 0 0
SMALL
GASTEIGER

@<TRIPOS>ATOM
      1  N          1.3910   59.2990   22.8910 N.3    40  GLU40      -0.1245
      2  CA         0.2150   59.2430   23.7520 C.3    40  GLU40       0.1567
      3  C         -0.5740   60.5380   23.6630 C.2    40  GLU40       0.2260
      4  O         -1.8040   60.5270   23.5400 O.2    40  GLU40      -0.2867
      5  CB         0.6310   58.9710   25.2000 C.3    40  GLU40       0.0388
      6  CG         1.2210   57.5790   25.3940 C.3    40  GLU40       0.1160
      7  CD         1.8710   57.3750   26.7540 C.2    40  GLU40       0.3649
      8  OE1        2.0710   58.3690   27.4940 O.co2  40  GLU40      -0.2457
      9  OE2        2.1910   56.2100   27.0710 O.co2  40  GLU40      -0.2457
     10  N         -4.3800   60.9490   22.1240 N.3    44  THR44      -0.1218
     11  CA        -5.4700   61.3530   23.0060 C.3    44  THR44       0.1862
     12  C         -6.0930   62.6610   22.5340 C.2    44  THR44       0.2287
     13  O         -7.3200   62.8100   22.5210 O.2    44  THR44      -0.2866
     14  CB        -4.9500   61.4820   24.4360 C.3    44  THR44       0.1770
     15  OG1       -4.3380   60.2470   24.8290 O.3    44  THR44      -0.2211
     16  CG2       -6.0900   61.7830   25.4070 C.3    44  THR44       0.0375
     17  N         -6.3250   60.7710   31.3630 N.3    62  THR62      -0.1203
     18  CA        -6.8130   59.5500   30.7280 C.3    62  THR62       0.1994
     19  C         -5.6720   58.5600   30.5160 C.2    62  THR62       0.2618
     20  O         -4.5570   58.9450   30.1580 O.2    62  THR62      -0.2717
     21  CB        -7.4710   59.9170   29.3940 C.3    62  THR62       0.1784
     22  OG1       -8.6140   60.7510   29.6560 O.3    62  THR62      -0.2211
     23  CG2       -7.8870   58.6710   28.5950 C.3    62  THR62       0.0376
     24  N         -5.9490   57.2770   30.7420 N.am   63  MET63      -0.1965
     25  CA        -4.9510   56.2200   30.6280 C.3    63  MET63       0.1736
     26  C         -5.2940   55.2900   29.4680 C.2    63  MET63       0.2616
     27  O         -6.4650   54.9850   29.2350 O.2    63  MET63      -0.2715
     28  CB        -4.8560   55.4400   31.9400 C.3    63  MET63       0.0427
     29  CG        -4.3790   56.3180   33.0980 C.3    63  MET63       0.0599
     30  SD        -2.6130   56.7300   32.9850 S.3    63  MET63      -0.1393
     31  CE        -1.8950   55.2290   33.6660 C.3    63  MET63       0.0692
     32  N         -4.2650   54.8220   28.7690 N.am   64  LEU64      -0.1977
     33  CA        -4.4050   54.0430   27.5460 C.3    64  LEU64       0.1596
     34  C         -4.0750   52.5720   27.7870 C.2    64  LEU64       0.2287
     35  O         -3.0810   52.2530   28.4420 O.2    64  LEU64      -0.2864
     36  CB        -3.4580   54.5910   26.4660 C.3    64  LEU64       0.0297
     37  CG        -3.5760   56.0880   26.2040 C.3    64  LEU64       0.0022
     38  CD1       -2.6090   56.4650   25.0810 C.3    64  LEU64       0.0001
     39  CD2       -5.0220   56.4470   25.8500 C.3    64  LEU64       0.0001
     40  N         -3.8590   50.5910   37.0850 N.3   234  HIS234     -0.1241
     41  CA        -3.5930   50.5570   35.6530 C.3   234  HIS234      0.1621
     42  C         -2.1210   50.3060   35.3680 C.2   234  HIS234      0.2264
     43  O         -1.7870   49.5490   34.4500 O.2   234  HIS234     -0.2867
     44  CB        -4.0390   51.8880   35.0480 C.3   234  HIS234      0.0745
     45  CG        -4.3730   51.8390   33.5870 C.ar  234  HIS234      0.0817
     46  ND1       -3.4150   51.9200   32.5930 N.ar  234  HIS234     -0.2268
     47  CD2       -5.5700   51.7790   32.9540 C.ar  234  HIS234      0.1154
     48  CE1       -4.0110   51.8830   31.4110 C.ar  234  HIS234      0.1986
     49  NE2       -5.3190   51.8080   31.6010 N.ar  234  HIS234     -0.2212
     50  N          0.0200   47.5120   32.5480 N.3   238  LEU238     -0.1231
     51  CA         0.9240   47.8040   31.4440 C.3   238  LEU238      0.1693
     52  C          1.5900   49.1490   31.6870 C.2   238  LEU238      0.2592
     53  O          1.0340   50.0310   32.3540 O.2   238  LEU238     -0.2718
     54  CB         0.2130   47.8100   30.0730 C.3   238  LEU238      0.0284
     55  CG        -0.6360   49.0410   29.7120 C.3   238  LEU238      0.0019
     56  CD1       -0.9450   49.0460   28.1920 C.3   238  LEU238      0.0001
     57  CD2       -1.9150   49.0590   30.5160 C.3   238  LEU238      0.0001
     58  N          2.8040   49.2820   31.1360 N.am  239  LEU239     -0.1966
     59  CA         3.5060   50.5570   31.1690 C.3   239  LEU239      0.1728
     60  C          3.0220   51.4860   30.0620 C.2   239  LEU239      0.2616
     61  O          2.9120   52.7000   30.2720 O.2   239  LEU239     -0.2715
     62  CB         5.0130   50.3260   31.0380 C.3   239  LEU239      0.0311
     63  CG         5.9130   51.5600   30.9230 C.3   239  LEU239      0.0022
     64  CD1        5.9380   52.3260   32.2310 C.3   239  LEU239      0.0001
     65  CD2        7.3240   51.1650   30.5140 C.3   239  LEU239      0.0001
     66  N          2.7370   50.9340   28.8850 N.am  240  ASN240     -0.1958
     67  CA         2.4680   51.7590   27.7150 C.3   240  ASN240      0.1819
     68  C          1.8650   50.9020   26.6170 C.2   240  ASN240      0.2621
     69  O          2.1170   49.6940   26.5410 O.2   240  ASN240     -0.2715
     70  CB         3.7540   52.4190   27.1990 C.3   240  ASN240      0.1195
     71  CG         4.7730   51.3910   26.7050 C.2   240  ASN240      0.2630
     72  OD1        5.3530   50.6510   27.4960 O.2   240  ASN240     -0.2716
     73  ND2        4.9580   51.3170   25.3850 N.am  240  ASN240     -0.0877
     74  N          1.0880   51.5460   25.7720 N.am  241  VAL241     -0.1977
     75  CA         0.6510   50.9870   24.5000 C.3   241  VAL241      0.1596
     76  C          1.7400   51.2730   23.4720 C.2   241  VAL241      0.2287
     77  O          2.4540   52.2820   23.5590 O.2   241  VAL241     -0.2864
     78  CB        -0.7080   51.5940   24.0910 C.3   241  VAL241      0.0276
     79  CG1       -1.1330   51.1290   22.6990 C.3   241  VAL241      0.0022
     80  CG2       -1.7800   51.2330   25.1410 C.3   241  VAL241      0.0022
@<TRIPOS>BOND
     1    10    11    1
     2    13    12    2
     3    12    11    1
     4    79    78    1
     5     1     2    1
     6    11    14    1
     7    76    77    2
     8    76    75    1
     9     4     3    2
    10     3     2    1
    11     2     5    1
    12    78    75    1
    13    78    80    1
    14    14    15    1
    15    14    16    1
    16    75    74    1
    17    38    37    1
    18     5     6    1
    19    73    71   am
    20     6     7    1
    21    74    68   am
    22    39    37    1
    23    37    36    1
    24    36    33    1
    25    69    68    2
    26    68    67    1
    27    71    70    1
    28    71    72    2
    29     7     9   ar
    30     7     8   ar
    31    70    67    1
    32    33    34    1
    33    33    32    1
    34    67    66    1
    35    34    35    2
    36    56    55    1
    37    23    21    1
    38    32    26   am
    39    66    60   am
    40    27    26    2
    41    21    22    1
    42    21    18    1
    43    26    25    1
    44    55    54    1
    45    55    57    1
    46    60    61    2
    47    60    59    1
    48    54    51    1
    49    20    19    2
    50    65    63    1
    51    19    18    1
    52    19    24   am
    53    25    24    1
    54    25    28    1
    55    18    17    1
    56    63    62    1
    57    63    64    1
    58    62    59    1
    59    58    59    1
    60    58    52   am
    61    48    49   ar
    62    48    46   ar
    63    51    52    1
    64    51    50    1
    65    49    47   ar
    66    52    53    2
    67    28    29    1
    68    46    45   ar
    69    47    45   ar
    70    30    29    1
    71    30    31    1
    72    45    44    1
    73    43    42    2
    74    44    41    1
    75    42    41    1
    76    41    40    1
