@<TRIPOS>MOLECULE
tmp/6c3eB00.pdb
 131 119 0 0 0
SMALL
GASTEIGER

@<TRIPOS>ATOM
      1  N         21.3020   13.2390  -59.5870 N.3    29  LYS29      -0.1245
      2  CA        21.4170   12.5440  -60.8580 C.3    29  LYS29       0.1561
      3  C         20.5500   13.2760  -61.8610 C.2    29  LYS29       0.2260
      4  O         19.3310   13.1180  -61.8760 O.2    29  LYS29      -0.2867
      5  CB        20.9660   11.0880  -60.7270 C.3    29  LYS29       0.0271
      6  CG        21.1500   10.2540  -61.9910 C.3    29  LYS29       0.0035
      7  CD        20.7870    8.7940  -61.7420 C.3    29  LYS29       0.0206
      8  CE        20.8900    7.9380  -62.9940 C.3    29  LYS29       0.1093
      9  NZ        22.2890    7.8160  -63.4950 N.3    29  LYS29      -0.1314
     10  N          8.1370    5.4060  -56.7360 N.3    51  MET51      -0.1245
     11  CA         9.3910    5.0530  -56.0600 C.3    51  MET51       0.1570
     12  C          9.6840    5.9360  -54.8360 C.2    51  MET51       0.2261
     13  O         10.6490    5.7000  -54.1120 O.2    51  MET51      -0.2867
     14  CB        10.5520    5.0460  -57.0550 C.3    51  MET51       0.0387
     15  CG        10.3780    3.9800  -58.1400 C.3    51  MET51       0.0595
     16  SD        11.8560    3.5610  -59.1020 S.3    51  MET51      -0.1393
     17  CE        12.3670    5.1890  -59.6710 C.3    51  MET51       0.0692
     18  N          8.6230    3.7480  -51.6240 N.3    54  LEU54      -0.1245
     19  CA         9.6310    2.8720  -51.0270 C.3    54  LEU54       0.1561
     20  C         10.3340    3.6010  -49.8800 C.2    54  LEU54       0.2260
     21  O         11.1550    4.4910  -50.1040 O.2    54  LEU54      -0.2867
     22  CB        10.6510    2.4160  -52.0720 C.3    54  LEU54       0.0270
     23  CG        10.1100    1.5940  -53.2430 C.3    54  LEU54       0.0019
     24  CD1       11.2310    1.3390  -54.2350 C.3    54  LEU54       0.0001
     25  CD2        9.4950    0.2820  -52.7790 C.3    54  LEU54       0.0001
     26  N         16.9980    1.0610  -47.6630 N.3    59  VAL59      -0.1231
     27  CA        16.8040    1.4120  -49.0830 C.3    59  VAL59       0.1692
     28  C         17.0240    2.9140  -49.3030 C.2    59  VAL59       0.2591
     29  O         16.6930    3.7350  -48.4470 O.2    59  VAL59      -0.2718
     30  CB        15.4050    1.0070  -49.6080 C.3    59  VAL59       0.0266
     31  CG1       15.2760    1.3190  -51.0950 C.3    59  VAL59       0.0020
     32  CG2       15.1500   -0.4730  -49.3710 C.3    59  VAL59       0.0020
     33  N         17.6020    3.2550  -50.4530 N.am   60  VAL60      -0.1980
     34  CA        17.8740    4.6450  -50.8090 C.3    60  VAL60       0.1595
     35  C         16.5590    5.3860  -51.0040 C.2    60  VAL60       0.2287
     36  O         15.6650    4.8890  -51.6970 O.2    60  VAL60      -0.2864
     37  CB        18.7050    4.7360  -52.1080 C.3    60  VAL60       0.0276
     38  CG1       18.7090    6.1550  -52.6730 C.3    60  VAL60       0.0022
     39  CG2       20.1230    4.2550  -51.8520 C.3    60  VAL60       0.0022
     40  N         14.2810    8.5790  -52.3450 N.3    62  LEU62      -0.1245
     41  CA        14.1120    9.6970  -53.2510 C.3    62  LEU62       0.1561
     42  C         13.7440   10.9280  -52.4260 C.2    62  LEU62       0.2260
     43  O         12.6420   11.0140  -51.8860 O.2    62  LEU62      -0.2867
     44  CB        13.0090    9.3810  -54.2670 C.3    62  LEU62       0.0270
     45  CG        12.7500   10.4130  -55.3650 C.3    62  LEU62       0.0019
     46  CD1       13.9470   10.5370  -56.2980 C.3    62  LEU62       0.0001
     47  CD2       11.4990   10.0310  -56.1400 C.3    62  LEU62       0.0001
     48  N         16.7930   13.4620  -60.4920 N.3    74  LEU74      -0.1245
     49  CA        16.3600   12.6880  -59.3280 C.3    74  LEU74       0.1561
     50  C         17.3020   13.0020  -58.1620 C.2    74  LEU74       0.2260
     51  O         18.5070   12.7570  -58.2500 O.2    74  LEU74      -0.2867
     52  CB        16.3880   11.1880  -59.6380 C.3    74  LEU74       0.0270
     53  CG        15.3220   10.6660  -60.6090 C.3    74  LEU74       0.0019
     54  CD1       15.7140    9.3070  -61.1670 C.3    74  LEU74       0.0001
     55  CD2       13.9550   10.5920  -59.9460 C.3    74  LEU74       0.0001
     56  N         18.5930   12.2200  -54.5430 N.3    76  MET76      -0.1245
     57  CA        18.6270   11.1760  -53.5150 C.3    76  MET76       0.1570
     58  C         19.5880   11.5580  -52.3880 C.2    76  MET76       0.2261
     59  O         20.3370   12.5310  -52.4930 O.2    76  MET76      -0.2867
     60  CB        19.0160    9.8210  -54.1270 C.3    76  MET76       0.0387
     61  CG        20.5090    9.6340  -54.3430 C.3    76  MET76       0.0595
     62  SD        20.9340    8.3750  -55.5590 S.3    76  MET76      -0.1393
     63  CE        20.7370    9.3220  -57.0680 C.3    76  MET76       0.0692
     64  N         11.8670   -4.8200  -50.3580 N.3   113  LEU113     -0.1245
     65  CA        11.5740   -4.6160  -51.7790 C.3   113  LEU113      0.1561
     66  C         10.6580   -5.7130  -52.3180 C.2   113  LEU113      0.2260
     67  O          9.6620   -5.4290  -52.9830 O.2   113  LEU113     -0.2867
     68  CB        12.8700   -4.5610  -52.5980 C.3   113  LEU113      0.0270
     69  CG        13.7460   -3.3290  -52.3500 C.3   113  LEU113      0.0019
     70  CD1       15.1810   -3.5750  -52.7870 C.3   113  LEU113      0.0001
     71  CD2       13.1750   -2.1000  -53.0430 C.3   113  LEU113      0.0001
     72  N          8.6530   -5.2330  -55.6890 N.3   118  VAL118     -0.1245
     73  CA         9.7310   -4.7120  -56.5200 C.3   118  VAL118      0.1561
     74  C         10.8710   -5.7210  -56.5790 C.2   118  VAL118      0.2260
     75  O         11.6320   -5.8720  -55.6190 O.2   118  VAL118     -0.2867
     76  CB        10.2710   -3.3680  -55.9820 C.3   118  VAL118      0.0252
     77  CG1       11.3860   -2.8360  -56.8780 C.3   118  VAL118      0.0019
     78  CG2        9.1460   -2.3480  -55.8710 C.3   118  VAL118      0.0019
     79  N         14.4280   -6.4850  -57.8690 N.3   120  HIS120     -0.1241
     80  CA        15.6050   -5.7540  -58.2990 C.3   120  HIS120      0.1621
     81  C         16.2260   -6.5360  -59.4560 C.2   120  HIS120      0.2264
     82  O         16.5940   -7.7020  -59.2960 O.2   120  HIS120     -0.2867
     83  CB        16.5920   -5.6280  -57.1350 C.3   120  HIS120      0.0745
     84  CG        17.4840   -4.4310  -57.2240 C.ar  120  HIS120      0.0817
     85  ND1       18.4720   -4.3060  -58.1730 N.ar  120  HIS120     -0.2268
     86  CD2       17.5430   -3.3070  -56.4740 C.ar  120  HIS120      0.1154
     87  CE1       19.0990   -3.1550  -58.0120 C.ar  120  HIS120      0.1986
     88  NE2       18.5540   -2.5290  -56.9850 N.ar  120  HIS120     -0.2212
     89  N         20.3600    0.0730  -50.3860 N.3   138  ILE138     -0.1231
     90  CA        20.2660   -0.4700  -51.7350 C.3   138  ILE138      0.1692
     91  C         19.6680    0.5650  -52.6850 C.2   138  ILE138      0.2592
     92  O         18.6470    1.1800  -52.3780 O.2   138  ILE138     -0.2718
     93  CB        19.3820   -1.7250  -51.7670 C.3   138  ILE138      0.0266
     94  CG1       19.9000   -2.7710  -50.7760 C.3   138  ILE138      0.0019
     95  CG2       19.3330   -2.3050  -53.1780 C.3   138  ILE138      0.0020
     96  CD1       18.8450   -3.7690  -50.3650 C.3   138  ILE138      0.0001
     97  N         20.3070    0.7390  -53.8390 N.am  139  ALA139     -0.1966
     98  CA        19.8170    1.6410  -54.8830 C.3   139  ALA139      0.1728
     99  C         19.4630    0.8850  -56.1600 C.2   139  ALA139      0.2616
    100  O         19.6680   -0.3240  -56.2720 O.2   139  ALA139     -0.2715
    101  CB        20.8640    2.7030  -55.1920 C.3   139  ALA139      0.0334
    102  N         18.9060    1.6210  -57.1120 N.am  140  ASP140     -0.1957
    103  CA        18.7820    1.1680  -58.4900 C.3   140  ASP140      0.1840
    104  C         19.2850    2.3190  -59.3590 C.2   140  ASP140      0.2621
    105  O         18.5020    3.1090  -59.8910 O.2   140  ASP140     -0.2715
    106  CB        17.3330    0.7980  -58.8110 C.3   140  ASP140      0.1450
    107  CG        17.1530    0.2860  -60.2300 C.2   140  ASP140      0.3671
    108  OD1       18.1370   -0.1890  -60.8420 O.co2 140  ASP140     -0.2456
    109  OD2       16.0120    0.3590  -60.7340 O.co2 140  ASP140     -0.2456
    110  N         20.6070    2.4090  -59.4750 N.am  141  LEU141     -0.1977
    111  CA        21.2620    3.5250  -60.1600 C.3   141  LEU141      0.1596
    112  C         21.1220    3.5020  -61.6890 C.2   141  LEU141      0.2287
    113  O         21.3400    4.5180  -62.3350 O.2   141  LEU141     -0.2864
    114  CB        22.7420    3.5870  -59.7680 C.3   141  LEU141      0.0297
    115  CG        23.0100    3.8300  -58.2800 C.3   141  LEU141      0.0022
    116  CD1       24.5030    3.7730  -57.9760 C.3   141  LEU141      0.0001
    117  CD2       22.4190    5.1560  -57.8170 C.3   141  LEU141      0.0001
    118  N         18.1550    2.6280  -63.0720 N.3   143  LEU143     -0.1245
    119  CA        16.7120    2.8570  -63.2690 C.3   143  LEU143      0.1561
    120  C         16.0020    1.7180  -64.0130 C.2   143  LEU143      0.2260
    121  O         15.0870    1.9610  -64.8060 O.2   143  LEU143     -0.2867
    122  CB        16.4680    4.1880  -63.9860 C.3   143  LEU143      0.0270
    123  CG        17.2140    5.4080  -63.4470 C.3   143  LEU143      0.0019
    124  CD1       16.9100    6.6300  -64.3020 C.3   143  LEU143      0.0001
    125  CD2       16.8560    5.6720  -61.9960 C.3   143  LEU143      0.0001
    126  N         13.9620   -0.4250  -62.8670 N.3   145  SER145     -0.1217
    127  CA        12.5690   -0.5530  -62.4410 C.3   145  SER145      0.1889
    128  C         11.7030    0.6170  -62.8990 C.2   145  SER145      0.2288
    129  O         10.4820    0.5340  -62.8190 O.2   145  SER145     -0.2866
    130  CB        12.4850   -0.6780  -60.9150 C.3   145  SER145      0.2089
    131  OG        13.2110    0.3590  -60.2700 O.3   145  SER145     -0.2183
@<TRIPOS>BOND
     1   121   120    2
     2   124   123    1
     3   120   119    1
     4   122   123    1
     5   122   119    1
     6     9     8    1
     7   123   125    1
     8   119   118    1
     9     8     7    1
    10   128   129    2
    11   128   127    1
    12   126   127    1
    13   127   130    1
    14   113   112    2
    15     6     7    1
    16     6     5    1
    17     4     3    2
    18     3     2    1
    19   112   111    1
    20    54    53    1
    21   130   131    1
    22     2     5    1
    23     2     1    1
    24   108   107   ar
    25   109   107   ar
    26    53    55    1
    27    53    52    1
    28    48    49    1
    29   107   106    1
    30   111   114    1
    31   111   110    1
    32   105   104    2
    33   114   115    1
    34    17    16    1
    35    52    49    1
    36   110   104   am
    37    81    82    2
    38    81    80    1
    39   104   103    1
    40    49    50    1
    41    16    15    1
    42   106   103    1
    43   103   102    1
    44    80    79    1
    45    80    83    1
    46   115   116    1
    47   115   117    1
    48    51    50    2
    49    85    87   ar
    50    85    84   ar
    51    15    14    1
    52    87    88   ar
    53    84    83    1
    54    84    86   ar
    55   102    99   am
    56    63    62    1
    57    14    11    1
    58    88    86   ar
    59    77    76    1
    60    10    11    1
    61    74    73    1
    62    74    75    2
    63    73    76    1
    64    73    72    1
    65    46    45    1
    66   100    99    2
    67    99    98    1
    68    47    45    1
    69    11    12    1
    70    76    78    1
    71    62    61    1
    72    45    44    1
    73   101    98    1
    74    98    97    1
    75    12    13    2
    76    56    57    1
    77    61    60    1
    78    44    41    1
    79    24    23    1
    80    60    57    1
    81    97    91   am
    82    57    58    1
    83    41    42    1
    84    41    40    1
    85    23    25    1
    86    23    22    1
    87    95    93    1
    88    71    69    1
    89    67    66    2
    90    70    69    1
    91    91    92    2
    92    91    90    1
    93    38    37    1
    94    68    69    1
    95    68    65    1
    96    59    58    2
    97    42    43    2
    98    66    65    1
    99    37    39    1
   100    37    34    1
   101    22    19    1
   102    65    64    1
   103    93    90    1
   104    93    94    1
   105    90    89    1
   106    36    35    2
   107    18    19    1
   108    31    30    1
   109    19    20    1
   110    35    34    1
   111    34    33    1
   112    94    96    1
   113    33    28   am
   114    21    20    2
   115    30    32    1
   116    30    27    1
   117    28    27    1
   118    28    29    2
   119    27    26    1
