@<TRIPOS>MOLECULE
tmp/6c3hA01.pdb
 136 127 0 0 0
SMALL
GASTEIGER

@<TRIPOS>ATOM
      1  N         -1.1410    5.6490   25.1670 N.3    64  VAL64      -0.1245
      2  CA        -1.3240    4.1940   25.3530 C.3    64  VAL64       0.1561
      3  C         -0.3210    3.6140   26.3410 C.2    64  VAL64       0.2260
      4  O         -0.2250    2.3970   26.5100 O.2    64  VAL64      -0.2867
      5  CB        -1.2460    3.4220   23.9910 C.3    64  VAL64       0.0252
      6  CG1       -2.3650    3.8750   23.0790 C.3    64  VAL64       0.0019
      7  CG2        0.0590    3.6080   23.3120 C.3    64  VAL64       0.0019
      8  N          7.5160   12.8870   24.4340 N.3    76  ARG76      -0.1245
      9  CA         7.8260   13.3640   23.0890 C.3    76  ARG76       0.1563
     10  C          6.5040   13.7620   22.4630 C.2    76  ARG76       0.2260
     11  O          5.4550   13.2880   22.9120 O.2    76  ARG76      -0.2867
     12  CB         8.5130   12.3000   22.2270 C.3    76  ARG76       0.0307
     13  CG         7.6400   11.0990   21.9750 C.3    76  ARG76       0.0489
     14  CD         8.2800   10.0660   21.0860 C.3    76  ARG76       0.2205
     15  NE         7.3560    8.9630   20.8770 N.pl3  76  ARG76      -0.0865
     16  CZ         7.5370    8.0000   19.9850 C.cat  76  ARG76       0.5346
     17  NH1        8.6090    8.0080   19.2040 N.pl3  76  ARG76       0.1354
     18  NH2        6.6300    7.0490   19.8580 N.pl3  76  ARG76       0.1354
     19  N          2.5280   10.6060   18.8440 N.3    79  SER79      -0.1217
     20  CA         2.4170    9.9420   17.5660 C.3    79  SER79       0.1889
     21  C          1.1200   10.3190   16.8740 C.2    79  SER79       0.2288
     22  O          0.0700   10.3930   17.5130 O.2    79  SER79      -0.2866
     23  CB         2.4630    8.4460   17.7640 C.3    79  SER79       0.2089
     24  OG         2.2250    7.7980   16.5460 O.3    79  SER79      -0.2183
     25  N         -0.3850    8.5770   14.7150 N.3    81  ILE81      -0.1231
     26  CA        -1.1760    7.4030   14.3980 C.3    81  ILE81       0.1692
     27  C         -1.4560    6.5660   15.6650 C.2    81  ILE81       0.2591
     28  O         -2.6000    6.3500   15.9870 O.2    81  ILE81      -0.2718
     29  CB        -0.4870    6.5790   13.2790 C.3    81  ILE81       0.0266
     30  CG1       -1.3900    5.4280   12.8430 C.3    81  ILE81       0.0019
     31  CG2        0.9280    6.1560   13.6840 C.3    81  ILE81       0.0020
     32  CD1       -0.7920    4.5450   11.7550 C.3    81  ILE81       0.0001
     33  N         -0.4420    6.1910   16.4260 N.am   82  LEU82      -0.1980
     34  CA        -0.6660    5.3570   17.5980 C.3    82  LEU82       0.1596
     35  C         -1.4300    6.0900   18.6870 C.2    82  LEU82       0.2287
     36  O         -2.2300    5.4870   19.4040 O.2    82  LEU82      -0.2864
     37  CB         0.6650    4.8760   18.1720 C.3    82  LEU82       0.0297
     38  CG         0.5850    3.9990   19.4270 C.3    82  LEU82       0.0022
     39  CD1        0.2120    2.5900   19.0840 C.3    82  LEU82       0.0001
     40  CD2        1.9170    4.0230   20.1080 C.3    82  LEU82       0.0001
     41  N         11.5370    4.1260   23.6810 N.3   165  VAL165     -0.1231
     42  CA        10.1020    4.2740   23.3720 C.3   165  VAL165      0.1692
     43  C          9.2750    3.2680   24.1430 C.2   165  VAL165      0.2592
     44  O          8.2790    3.6120   24.7910 O.2   165  VAL165     -0.2718
     45  CB         9.8370    4.1210   21.8640 C.3   165  VAL165      0.0266
     46  CG1        8.3310    4.0920   21.5610 C.3   165  VAL165      0.0020
     47  CG2       10.5040    5.2730   21.0970 C.3   165  VAL165      0.0020
     48  N          9.6890    2.0080   24.1050 N.am  166  PHE166     -0.1976
     49  CA         8.8860    0.9940   24.7310 C.3   166  PHE166      0.1639
     50  C          8.9190    1.0610   26.2600 C.2   166  PHE166      0.2290
     51  O          7.9110    0.8020   26.9090 O.2   166  PHE166     -0.2864
     52  CB         9.3200   -0.3650   24.1920 C.3   166  PHE166      0.0560
     53  CG         8.7360   -0.6600   22.8320 C.ar  166  PHE166     -0.0200
     54  CD1        7.4070   -1.0040   22.7040 C.ar  166  PHE166     -0.0042
     55  CD2        9.5020   -0.5420   21.6860 C.ar  166  PHE166     -0.0042
     56  CE1        6.8520   -1.2650   21.4570 C.ar  166  PHE166     -0.0003
     57  CE2        8.9560   -0.8000   20.4320 C.ar  166  PHE166     -0.0003
     58  CZ         7.6310   -1.1670   20.3220 C.ar  166  PHE166     -0.0000
     59  N          6.4060    3.8580   27.6350 N.3   169  PHE169     -0.1241
     60  CA         4.9760    3.5610   27.7600 C.3   169  PHE169      0.1605
     61  C          4.6870    3.1170   29.1930 C.2   169  PHE169      0.2264
     62  O          3.5460    3.0770   29.6170 O.2   169  PHE169     -0.2867
     63  CB         4.5240    2.4590   26.7890 C.3   169  PHE169      0.0534
     64  CG         4.5110    2.8620   25.3360 C.ar  169  PHE169     -0.0203
     65  CD1        3.7670    3.9480   24.8880 C.ar  169  PHE169     -0.0042
     66  CD2        5.2200    2.1230   24.4060 C.ar  169  PHE169     -0.0042
     67  CE1        3.7600    4.2890   23.5320 C.ar  169  PHE169     -0.0003
     68  CE2        5.2070    2.4630   23.0660 C.ar  169  PHE169     -0.0003
     69  CZ         4.4780    3.5510   22.6360 C.ar  169  PHE169     -0.0000
     70  N          8.8690    8.9300   11.9970 N.3   227  ARG227     -0.1231
     71  CA         9.2720    8.6450   13.3760 C.3   227  ARG227      0.1694
     72  C          8.5570    7.3980   13.8930 C.2   227  ARG227      0.2592
     73  O          9.1440    6.5830   14.6070 O.2   227  ARG227     -0.2718
     74  CB         8.9790    9.8370   14.3000 C.3   227  ARG227      0.0321
     75  CG         9.6950    9.7200   15.6560 C.3   227  ARG227      0.0489
     76  CD         9.1700   10.7170   16.6970 C.3   227  ARG227      0.2205
     77  NE         7.7820   10.4140   17.0320 N.pl3 227  ARG227     -0.0865
     78  CZ         7.0440   11.1000   17.8820 C.cat 227  ARG227      0.5346
     79  NH1        5.8090   10.7100   18.1200 N.pl3 227  ARG227      0.1354
     80  NH2        7.5300   12.1680   18.4800 N.pl3 227  ARG227      0.1354
     81  N          7.2980    7.2220   13.5030 N.am  228  SER228     -0.1952
     82  CA         6.5740    6.0210   13.9050 C.3   228  SER228      0.1924
     83  C          7.2640    4.7510   13.4180 C.2   228  SER228      0.2314
     84  O          7.4460    3.8240   14.1900 O.2   228  SER228     -0.2863
     85  CB         5.1160    6.0730   13.3980 C.3   228  SER228      0.2116
     86  OG         4.3040    6.9480   14.1640 O.3   228  SER228     -0.2180
     87  N         10.3400    4.0620   15.3040 N.3   231  SER231     -0.1202
     88  CA        10.0580    3.6960   16.6870 C.3   231  SER231      0.2020
     89  C          9.6640    2.2290   16.7560 C.2   231  SER231      0.2618
     90  O         10.1420    1.4700   17.6140 O.2   231  SER231     -0.2717
     91  CB         8.9340    4.5610   17.2730 C.3   231  SER231      0.2103
     92  OG         9.2860    5.9480   17.3180 O.3   231  SER231     -0.2182
     93  N          8.7500    1.8470   15.8650 N.am  232  ALA232     -0.1979
     94  CA         8.0720    0.5560   15.9220 C.3   232  ALA232      0.1597
     95  C          8.6910   -0.5340   15.0560 C.2   232  ALA232      0.2287
     96  O          8.4500   -1.7310   15.2720 O.2   232  ALA232     -0.2864
     97  CB         6.6280    0.7370   15.4980 C.3   232  ALA232      0.0319
     98  N         10.5190   -4.4750   17.5190 N.3   236  THR236     -0.1218
     99  CA         9.4180   -5.4270   17.5130 C.3   236  THR236      0.1862
    100  C          9.7900   -6.7160   16.7770 C.2   236  THR236      0.2287
    101  O          9.6030   -7.8420   17.2790 O.2   236  THR236     -0.2866
    102  CB         8.1830   -4.8090   16.8360 C.3   236  THR236      0.1770
    103  OG1        8.5340   -4.3510   15.5280 O.3   236  THR236     -0.2211
    104  CG2        7.6540   -3.6630   17.6410 C.3   236  THR236      0.0375
    105  N          4.9870   -7.5750   22.1670 N.3   279  VAL279     -0.1245
    106  CA         4.3850   -6.4130   22.8210 C.3   279  VAL279      0.1561
    107  C          3.3960   -6.9890   23.8290 C.2   279  VAL279      0.2260
    108  O          2.3470   -7.4960   23.4550 O.2   279  VAL279     -0.2867
    109  CB         3.6950   -5.4490   21.8230 C.3   279  VAL279      0.0252
    110  CG1        3.0080   -4.3090   22.5640 C.3   279  VAL279      0.0019
    111  CG2        4.7130   -4.8870   20.8330 C.3   279  VAL279      0.0019
    112  N          1.8590   -5.5550   26.8030 N.3   281  THR281     -0.1203
    113  CA         0.8210   -4.7970   27.4530 C.3   281  THR281      0.1994
    114  C          0.7120   -3.4290   26.8200 C.2   281  THR281      0.2617
    115  O          1.7000   -2.9230   26.3020 O.2   281  THR281     -0.2717
    116  CB         1.1060   -4.5790   28.9410 C.3   281  THR281      0.1784
    117  OG1        2.3980   -3.9840   29.0960 O.3   281  THR281     -0.2211
    118  CG2        1.0580   -5.8460   29.6900 C.3   281  THR281      0.0376
    119  N         -0.4960   -2.8710   26.8260 N.am  282  PHE282     -0.1975
    120  CA        -0.6350   -1.4240   26.7430 C.3   282  PHE282      0.1639
    121  C         -1.9820   -0.9230   27.1980 C.2   282  PHE282      0.2290
    122  O         -2.8250   -1.7070   27.5980 O.2   282  PHE282     -0.2864
    123  CB        -0.3450   -0.9520   25.3350 C.3   282  PHE282      0.0560
    124  CG        -1.1570   -1.5960   24.2600 C.ar  282  PHE282     -0.0200
    125  CD1       -2.4780   -1.2650   24.0730 C.ar  282  PHE282     -0.0042
    126  CD2       -0.5760   -2.5230   23.4050 C.ar  282  PHE282     -0.0042
    127  CE1       -3.2180   -1.8420   23.0600 C.ar  282  PHE282     -0.0003
    128  CE2       -1.3070   -3.0980   22.3890 C.ar  282  PHE282     -0.0003
    129  CZ        -2.6380   -2.7670   22.2190 C.ar  282  PHE282     -0.0000
    130  N          7.4950   -2.7280   28.2800 N.3   379  THR379     -0.1218
    131  CA         6.5170   -3.1050   27.2570 C.3   379  THR379      0.1862
    132  C          6.8720   -4.3660   26.4850 C.2   379  THR379      0.2287
    133  O          5.9760   -5.0980   26.0620 O.2   379  THR379     -0.2866
    134  CB         6.3680   -2.0050   26.1670 C.3   379  THR379      0.1770
    135  OG1        6.0460   -0.7560   26.7590 O.3   379  THR379     -0.2211
    136  CG2        5.2870   -2.3740   25.1790 C.3   379  THR379      0.0375
@<TRIPOS>BOND
     1    32    30    1
     2    70    71    1
     3    30    29    1
     4    29    31    1
     5    29    26    1
     6    71    72    1
     7    71    74    1
     8    85    82    1
     9    85    86    1
    10    83    82    1
    11    83    84    2
    12    81    72   am
    13    81    82    1
    14    72    73    2
    15    74    75    1
    16    26    25    1
    17    26    27    1
    18    95    96    2
    19    95    94    1
    20    87    88    1
    21    97    94    1
    22   103   102    1
    23    75    76    1
    24    27    28    2
    25    27    33   am
    26    93    94    1
    27    93    89   am
    28    33    34    1
    29    24    23    1
    30    88    89    1
    31    88    91    1
    32    76    77    1
    33    89    90    2
    34   100   101    2
    35   100    99    1
    36   102    99    1
    37   102   104    1
    38    21    22    2
    39    21    20    1
    40    77    78    2
    41    91    92    1
    42    99    98    1
    43    20    23    1
    44    20    19    1
    45    34    37    1
    46    34    35    1
    47    78    79    1
    48    78    80    1
    49    37    38    1
    50    35    36    2
    51    39    38    1
    52    17    16    1
    53    38    40    1
    54    18    16    1
    55    16    15    2
    56    58    57   ar
    57    58    56   ar
    58    57    55   ar
    59   111   109    1
    60    15    14    1
    61    14    13    1
    62    47    45    1
    63    56    54   ar
    64    46    45    1
    65    55    53   ar
    66   109   110    1
    67   109   106    1
    68    45    42    1
    69    13    12    1
    70   105   106    1
    71   129   128   ar
    72   129   127   ar
    73    12     9    1
    74   128   126   ar
    75    10    11    2
    76    10     9    1
    77    69    68   ar
    78    69    67   ar
    79    54    53   ar
    80   106   107    1
    81    53    52    1
    82   127   125   ar
    83    68    66   ar
    84     6     5    1
    85     9     8    1
    86     7     5    1
    87    42    41    1
    88    42    43    1
    89   126   124   ar
    90   108   107    2
    91    67    65   ar
    92     5     2    1
    93   125   124   ar
    94    48    43   am
    95    48    49    1
    96    43    44    2
    97    52    49    1
    98   124   123    1
    99    66    64   ar
   100    49    50    1
   101    65    64   ar
   102     1     2    1
   103   136   134    1
   104   123   120    1
   105    64    63    1
   106     2     3    1
   107   133   132    2
   108   134   135    1
   109   134   131    1
   110    50    51    2
   111   115   114    2
   112     3     4    2
   113   132   131    1
   114   120   119    1
   115   120   121    1
   116    63    60    1
   117   112   113    1
   118   114   119   am
   119   114   113    1
   120   121   122    2
   121   131   130    1
   122   113   116    1
   123    59    60    1
   124    60    61    1
   125   116   117    1
   126   116   118    1
   127    61    62    2
