@<TRIPOS>MOLECULE
tmp/6c3iA00.pdb
 128 117 0 0 0
SMALL
GASTEIGER

@<TRIPOS>ATOM
      1  N          4.9030  -20.9710   57.2540 N.3    36  ALA36      -0.1245
      2  CA         3.9810  -21.9570   57.8050 C.3    36  ALA36       0.1562
      3  C          3.4560  -22.8840   56.7190 C.2    36  ALA36       0.2260
      4  O          3.3380  -24.0970   56.9330 O.2    36  ALA36      -0.2867
      5  CB         2.8270  -21.2550   58.5190 C.3    36  ALA36       0.0290
      6  N          6.1380  -25.4120   55.9150 N.3    39  LEU39      -0.1231
      7  CA         6.2460  -26.4560   56.9330 C.3    39  LEU39       0.1693
      8  C          5.0970  -27.4570   56.8210 C.2    39  LEU39       0.2591
      9  O          5.3090  -28.6790   56.8800 O.2    39  LEU39      -0.2718
     10  CB         6.2880  -25.8270   58.3260 C.3    39  LEU39       0.0284
     11  CG         7.4850  -24.9220   58.6250 C.3    39  LEU39       0.0019
     12  CD1        7.3890  -24.3410   60.0280 C.3    39  LEU39       0.0001
     13  CD2        8.7910  -25.6800   58.4430 C.3    39  LEU39       0.0001
     14  N          3.8700  -26.9530   56.6580 N.am   40  MET40      -0.1979
     15  CA         2.7260  -27.8410   56.4770 C.3    40  MET40       0.1605
     16  C          2.8870  -28.6950   55.2260 C.2    40  MET40       0.2287
     17  O          2.5250  -29.8760   55.2220 O.2    40  MET40      -0.2864
     18  CB         1.4300  -27.0320   56.4040 C.3    40  MET40       0.0413
     19  CG         1.1510  -26.1760   57.6260 C.3    40  MET40       0.0598
     20  SD        -0.4310  -25.3180   57.5220 S.3    40  MET40      -0.1393
     21  CE        -0.3150  -24.5750   55.8980 C.3    40  MET40       0.0692
     22  N          5.7760  -29.6470   53.8640 N.3    42  MET42      -0.1230
     23  CA         6.7490  -30.6770   54.2150 C.3    42  MET42       0.1702
     24  C          6.0680  -31.8430   54.9190 C.2    42  MET42       0.2592
     25  O          6.2260  -33.0050   54.5220 O.2    42  MET42      -0.2718
     26  CB         7.8480  -30.0910   55.1030 C.3    42  MET42       0.0401
     27  CG         8.8510  -29.2070   54.3850 C.3    42  MET42       0.0596
     28  SD        10.1640  -28.6580   55.4930 S.3    42  MET42      -0.1393
     29  CE        11.2200  -27.7630   54.3590 C.3    42  MET42       0.0692
     30  N          5.2840  -31.5410   55.9580 N.am   43  VAL43      -0.1980
     31  CA         4.6340  -32.5980   56.7340 C.3    43  VAL43       0.1595
     32  C          3.6960  -33.4190   55.8530 C.2    43  VAL43       0.2287
     33  O          3.7090  -34.6570   55.8840 O.2    43  VAL43      -0.2864
     34  CB         3.8890  -31.9990   57.9400 C.3    43  VAL43       0.0276
     35  CG1        3.1500  -33.0890   58.6980 C.3    43  VAL43       0.0022
     36  CG2        4.8610  -31.2840   58.8540 C.3    43  VAL43       0.0022
     37  N          5.4590  -35.5260   53.2060 N.3    46  ASN46      -0.1225
     38  CA         6.0380  -36.6820   53.8790 C.3    46  ASN46       0.1785
     39  C          4.9760  -37.7320   54.1750 C.2    46  ASN46       0.2597
     40  O          5.2040  -38.9280   53.9690 O.2    46  ASN46      -0.2718
     41  CB         6.7390  -36.2470   55.1650 C.3    46  ASN46       0.1169
     42  CG         8.2050  -35.9370   54.9490 C.2    46  ASN46       0.2627
     43  OD1        8.8570  -36.5440   54.1000 O.2    46  ASN46      -0.2716
     44  ND2        8.7300  -34.9860   55.7120 N.am   46  ASN46      -0.0877
     45  N          3.8040  -37.3020   54.6490 N.am   47  LEU47      -0.1980
     46  CA         2.7370  -38.2530   54.9500 C.3    47  LEU47       0.1596
     47  C          2.2730  -38.9870   53.6980 C.2    47  LEU47       0.2287
     48  O          2.0690  -40.2060   53.7260 O.2    47  LEU47      -0.2864
     49  CB         1.5640  -37.5340   55.6140 C.3    47  LEU47       0.0297
     50  CG         1.7850  -37.1010   57.0630 C.3    47  LEU47       0.0022
     51  CD1        0.5120  -36.5080   57.6400 C.3    47  LEU47       0.0001
     52  CD2        2.2660  -38.2740   57.9020 C.3    47  LEU47       0.0001
     53  N          4.9570  -41.4440   52.5770 N.3    50  ASN50      -0.1240
     54  CA         4.9640  -42.6030   53.4620 C.3    50  ASN50       0.1653
     55  C          3.7760  -43.5100   53.1810 C.2    50  ASN50       0.2266
     56  O          3.9100  -44.7380   53.2050 O.2    50  ASN50      -0.2867
     57  CB         4.9650  -42.1530   54.9220 C.3    50  ASN50       0.1155
     58  CG         6.1860  -41.3330   55.2770 C.2    50  ASN50       0.2627
     59  OD1        7.2180  -41.4150   54.6110 O.2    50  ASN50      -0.2716
     60  ND2        6.0730  -40.5280   56.3270 N.am   50  ASN50      -0.0877
     61  N         12.1410  -38.5340   52.8510 N.3   211  ARG211     -0.1245
     62  CA        11.9900  -37.4440   53.8080 C.3   211  ARG211      0.1563
     63  C         13.1030  -36.4220   53.6370 C.2   211  ARG211      0.2260
     64  O         12.8480  -35.2150   53.5440 O.2   211  ARG211     -0.2867
     65  CB        11.9750  -38.0020   55.2310 C.3   211  ARG211      0.0307
     66  CG        11.7840  -36.9600   56.3180 C.3   211  ARG211      0.0489
     67  CD        12.0300  -37.5620   57.6910 C.3   211  ARG211      0.2205
     68  NE        11.1810  -38.7250   57.9320 N.pl3 211  ARG211     -0.0865
     69  CZ        11.3020  -39.5360   58.9780 C.cat 211  ARG211      0.5346
     70  NH1       12.2420  -39.3130   59.8870 N.pl3 211  ARG211      0.1354
     71  NH2       10.4850  -40.5710   59.1160 N.pl3 211  ARG211      0.1354
     72  N         12.4220  -32.6590   52.1950 N.3   215  ILE215     -0.1245
     73  CA        12.6940  -31.5450   53.0940 C.3   215  ILE215      0.1561
     74  C         13.7330  -30.6130   52.4850 C.2   215  ILE215      0.2260
     75  O         13.5810  -29.3890   52.5350 O.2   215  ILE215     -0.2867
     76  CB        13.1140  -32.0540   54.4850 C.3   215  ILE215      0.0252
     77  CG1       11.8950  -32.6310   55.2080 C.3   215  ILE215      0.0019
     78  CG2       13.7530  -30.9350   55.2980 C.3   215  ILE215      0.0019
     79  CD1       12.0480  -32.7310   56.7050 C.3   215  ILE215      0.0001
     80  N          2.0730  -43.7850   61.1090 N.3   357  THR357     -0.1218
     81  CA         2.5710  -42.4670   61.4760 C.3   357  THR357      0.1862
     82  C          2.5730  -42.3070   62.9910 C.2   357  THR357      0.2287
     83  O          1.6560  -42.7600   63.6810 O.2   357  THR357     -0.2866
     84  CB         1.7120  -41.3780   60.8280 C.3   357  THR357      0.1770
     85  OG1        1.7140  -41.5510   59.4050 O.3   357  THR357     -0.2211
     86  CG2        2.2510  -39.9940   61.1630 C.3   357  THR357      0.0375
     87  N          2.9220  -36.7260   65.1210 N.3   361  PHE361     -0.1241
     88  CA         2.8200  -36.1540   63.7830 C.3   361  PHE361      0.1605
     89  C          1.3960  -36.2230   63.2490 C.2   361  PHE361      0.2264
     90  O          0.9740  -35.3320   62.5050 O.2   361  PHE361     -0.2867
     91  CB         3.7870  -36.8600   62.8320 C.3   361  PHE361      0.0534
     92  CG         5.2050  -36.3800   62.9510 C.ar  361  PHE361     -0.0203
     93  CD1        5.5830  -35.1590   62.4170 C.ar  361  PHE361     -0.0042
     94  CD2        6.1590  -37.1470   63.6000 C.ar  361  PHE361     -0.0042
     95  CE1        6.8860  -34.7120   62.5270 C.ar  361  PHE361     -0.0003
     96  CE2        7.4650  -36.7050   63.7120 C.ar  361  PHE361     -0.0003
     97  CZ         7.8280  -35.4870   63.1750 C.ar  361  PHE361     -0.0000
     98  N         -0.2280  -33.2970   64.8090 N.3   364  ILE364     -0.1245
     99  CA         0.2330  -32.0910   64.1220 C.3   364  ILE364      0.1561
    100  C         -0.5030  -31.9200   62.7980 C.2   364  ILE364      0.2260
    101  O         -0.9230  -30.8120   62.4400 O.2   364  ILE364     -0.2867
    102  CB         1.7600  -32.1380   63.9210 C.3   364  ILE364      0.0252
    103  CG1        2.4820  -32.0110   65.2630 C.3   364  ILE364      0.0019
    104  CG2        2.2120  -31.0380   62.9720 C.3   364  ILE364      0.0019
    105  CD1        3.9890  -32.1140   65.1580 C.3   364  ILE364      0.0001
    106  N         -3.9840  -30.7450   63.4540 N.3   367  VAL367     -0.1231
    107  CA        -3.9550  -29.3160   63.7590 C.3   367  VAL367      0.1692
    108  C         -3.8310  -28.5060   62.4760 C.2   367  VAL367      0.2591
    109  O         -4.4920  -27.4740   62.3060 O.2   367  VAL367     -0.2718
    110  CB        -2.8100  -29.0030   64.7420 C.3   367  VAL367      0.0266
    111  CG1       -2.5290  -27.5070   64.7810 C.3   367  VAL367      0.0020
    112  CG2       -3.1470  -29.5190   66.1310 C.3   367  VAL367      0.0020
    113  N         -2.9810  -28.9630   61.5540 N.am  368  ILE368     -0.1980
    114  CA        -2.8480  -28.3100   60.2530 C.3   368  ILE368      0.1595
    115  C         -4.1820  -28.3070   59.5170 C.2   368  ILE368      0.2287
    116  O         -4.5910  -27.2920   58.9380 O.2   368  ILE368     -0.2864
    117  CB        -1.7480  -29.0050   59.4270 C.3   368  ILE368      0.0276
    118  CG1       -0.3720  -28.7490   60.0440 C.3   368  ILE368      0.0022
    119  CG2       -1.7970  -28.5550   57.9750 C.3   368  ILE368      0.0022
    120  CD1        0.7400  -29.5580   59.4130 C.3   368  ILE368      0.0001
    121  N         -6.5440  -25.8280   61.1040 N.3   371  ILE371     -0.1245
    122  CA        -6.1430  -24.4670   60.7560 C.3   371  ILE371      0.1561
    123  C         -6.5970  -24.1250   59.3430 C.2   371  ILE371      0.2260
    124  O         -7.1420  -23.0440   59.0910 O.2   371  ILE371     -0.2867
    125  CB        -4.6210  -24.2970   60.9170 C.3   371  ILE371      0.0252
    126  CG1       -4.2350  -24.3080   62.3970 C.3   371  ILE371      0.0019
    127  CG2       -4.1490  -23.0130   60.2540 C.3   371  ILE371      0.0019
    128  CD1       -2.7420  -24.3060   62.6340 C.3   371  ILE371      0.0001
@<TRIPOS>BOND
     1    72    73    1
     2    74    75    2
     3    74    73    1
     4    53    54    1
     5    61    62    1
     6    73    76    1
     7    55    56    2
     8    55    54    1
     9    37    38    1
    10    54    57    1
    11    64    63    2
    12    63    62    1
    13    47    48    2
    14    47    46    1
    15    62    65    1
    16    22    23    1
    17    38    39    1
    18    38    41    1
    19    40    39    2
    20    43    42    2
    21    39    45   am
    22    23    24    1
    23    23    26    1
    24    29    28    1
    25    27    26    1
    26    27    28    1
    27    76    77    1
    28    76    78    1
    29    25    24    2
    30    59    58    2
    31    45    46    1
    32    24    30   am
    33    57    58    1
    34    42    41    1
    35    42    44   am
    36    46    49    1
    37    77    79    1
    38    17    16    2
    39    16    15    1
    40    65    66    1
    41    58    60   am
    42    49    50    1
    43    32    33    2
    44    32    31    1
    45    21    20    1
    46     6     7    1
    47    30    31    1
    48    66    67    1
    49    18    15    1
    50    18    19    1
    51    15    14    1
    52    14     8   am
    53     3     4    2
    54     3     2    1
    55    31    34    1
    56     8     9    2
    57     8     7    1
    58     7    10    1
    59    50    51    1
    60    50    52    1
    61     1     2    1
    62    20    19    1
    63    67    68    1
    64     2     5    1
    65    68    69    2
    66    34    35    1
    67    34    36    1
    68   119   117    1
    69    10    11    1
    70    13    11    1
    71    11    12    1
    72   116   115    2
    73    69    71    1
    74    69    70    1
    75   124   123    2
    76   123   122    1
    77    85    84    1
    78   120   118    1
    79   117   118    1
    80   117   114    1
    81   115   114    1
    82   114   113    1
    83   127   125    1
    84   122   125    1
    85   122   121    1
    86    84    86    1
    87    84    81    1
    88   125   126    1
    89    80    81    1
    90    81    82    1
    91   113   108   am
    92   109   108    2
    93   126   128    1
    94    93    95   ar
    95    93    92   ar
    96   101   100    2
    97   108   107    1
    98    90    89    2
    99    95    97   ar
   100   100    99    1
   101    91    92    1
   102    91    88    1
   103    92    94   ar
   104   104   102    1
   105    82    83    2
   106    97    96   ar
   107    89    88    1
   108   106   107    1
   109    94    96   ar
   110   107   110    1
   111    88    87    1
   112   102    99    1
   113   102   103    1
   114    99    98    1
   115   110   111    1
   116   110   112    1
   117   105   103    1
