@<TRIPOS>MOLECULE
tmp/6c3iA03.pdb
 108 100 0 0 0
SMALL
GASTEIGER

@<TRIPOS>ATOM
      1  N          5.4060  -13.2680   55.0060 N.3    31  LEU31      -0.1245
      2  CA         6.5160  -14.2070   55.1260 C.3    31  LEU31       0.1561
      3  C          6.1750  -15.3340   56.0900 C.2    31  LEU31       0.2260
      4  O          6.5690  -16.4870   55.8750 O.2    31  LEU31      -0.2867
      5  CB         7.7790  -13.4750   55.5770 C.3    31  LEU31       0.0270
      6  CG         8.4470  -12.5650   54.5470 C.3    31  LEU31       0.0019
      7  CD1        9.6050  -11.8080   55.1750 C.3    31  LEU31       0.0001
      8  CD2        8.9240  -13.3790   53.3580 C.3    31  LEU31       0.0001
      9  N         17.4160  -15.2420   45.2460 N.3   141  LEU141     -0.1231
     10  CA        18.1640  -15.3980   46.4900 C.3   141  LEU141      0.1693
     11  C         19.2970  -14.3860   46.5880 C.2   141  LEU141      0.2591
     12  O         19.6280  -13.9270   47.6880 O.2   141  LEU141     -0.2718
     13  CB        18.7220  -16.8180   46.5970 C.3   141  LEU141      0.0284
     14  CG        17.7420  -17.9690   46.8280 C.3   141  LEU141      0.0019
     15  CD1       18.4510  -19.3060   46.6880 C.3   141  LEU141      0.0001
     16  CD2       17.0950  -17.8510   48.1960 C.3   141  LEU141      0.0001
     17  N         19.9010  -14.0310   45.4550 N.am  142  VAL142     -0.1980
     18  CA        20.9470  -13.0110   45.4700 C.3   142  VAL142      0.1595
     19  C         20.3390  -11.6100   45.5140 C.2   142  VAL142      0.2287
     20  O         20.8630  -10.7080   46.1840 O.2   142  VAL142     -0.2864
     21  CB        21.8760  -13.1920   44.2550 C.3   142  VAL142      0.0276
     22  CG1       22.9350  -12.1000   44.2180 C.3   142  VAL142      0.0022
     23  CG2       22.5250  -14.5680   44.2870 C.3   142  VAL142      0.0022
     24  N         17.6360  -10.6110   46.9400 N.3   144  VAL144     -0.1231
     25  CA        17.2070  -10.2520   48.2920 C.3   144  VAL144      0.1692
     26  C         18.3400   -9.5690   49.0460 C.2   144  VAL144      0.2591
     27  O         18.1630   -8.4910   49.6260 O.2   144  VAL144     -0.2718
     28  CB        16.7000  -11.4900   49.0500 C.3   144  VAL144      0.0266
     29  CG1       16.7940  -11.2640   50.5420 C.3   144  VAL144      0.0020
     30  CG2       15.2780  -11.7330   48.6960 C.3   144  VAL144      0.0020
     31  N         19.5200  -10.1890   49.0490 N.am  145  VAL145     -0.1980
     32  CA        20.6650   -9.5940   49.7310 C.3   145  VAL145      0.1595
     33  C         21.0220   -8.2560   49.0990 C.2   145  VAL145      0.2287
     34  O         21.2930   -7.2740   49.8010 O.2   145  VAL145     -0.2864
     35  CB        21.8580  -10.5670   49.7160 C.3   145  VAL145      0.0276
     36  CG1       23.0930   -9.9060   50.3070 C.3   145  VAL145      0.0022
     37  CG2       21.5120  -11.8410   50.4730 C.3   145  VAL145      0.0022
     38  N         18.8810   -4.7820   49.7840 N.3   148  ARG148     -0.1231
     39  CA        18.8990   -4.1790   51.1120 C.3   148  ARG148      0.1679
     40  C         17.4910   -3.9850   51.6600 C.2   148  ARG148      0.2434
     41  O         17.0340   -2.8430   51.7980 O.2   148  ARG148     -0.2733
     42  CB        19.6290   -2.8340   51.0900 C.3   148  ARG148      0.0321
     43  CG        21.1250   -2.9210   50.8740 C.3   148  ARG148      0.0489
     44  CD        21.7370   -1.5320   50.9180 C.3   148  ARG148      0.2205
     45  NE        21.2280   -0.7610   52.0500 N.pl3 148  ARG148     -0.0865
     46  CZ        21.7270   -0.8120   53.2800 C.cat 148  ARG148      0.5346
     47  NH1       22.7570   -1.6030   53.5490 N.pl3 148  ARG148      0.1354
     48  NH2       21.1940   -0.0740   54.2440 N.pl3 148  ARG148      0.1354
     49  N         16.7690   -5.0560   51.9760 N.am  149  PRO149     -0.2729
     50  CA        15.4180   -4.8900   52.5130 C.3   149  PRO149      0.1401
     51  C         15.4660   -4.3370   53.9280 C.2   149  PRO149      0.2269
     52  O         16.4970   -4.3630   54.6040 O.2   149  PRO149     -0.2865
     53  CB        14.8500   -6.3110   52.4870 C.3   149  PRO149      0.0296
     54  CG        16.0500   -7.1780   52.6480 C.3   149  PRO149      0.0237
     55  CD        17.1770   -6.4710   51.9350 C.3   149  PRO149      0.0939
     56  N         15.1740   -4.7310   57.4380 N.3   151  LEU151     -0.1245
     57  CA        15.2140   -5.9010   58.3080 C.3   151  LEU151      0.1561
     58  C         14.1420   -5.8440   59.3870 C.2   151  LEU151      0.2260
     59  O         13.6450   -6.8890   59.8180 O.2   151  LEU151     -0.2867
     60  CB        16.6000   -6.0400   58.9380 C.3   151  LEU151      0.0270
     61  CG        17.7210   -6.4390   57.9770 C.3   151  LEU151      0.0019
     62  CD1       19.0130   -6.6910   58.7320 C.3   151  LEU151      0.0001
     63  CD2       17.3220   -7.6670   57.1750 C.3   151  LEU151      0.0001
     64  N         11.0810   -7.0630   57.7030 N.3   154  VAL154     -0.1245
     65  CA        11.2780   -8.4830   57.4190 C.3   154  VAL154      0.1561
     66  C         11.0160   -9.3140   58.6680 C.2   154  VAL154      0.2260
     67  O         10.2890  -10.3130   58.6310 O.2   154  VAL154     -0.2867
     68  CB        12.6910   -8.7310   56.8630 C.3   154  VAL154      0.0252
     69  CG1       12.9970  -10.2170   56.8540 C.3   154  VAL154      0.0019
     70  CG2       12.8190   -8.1500   55.4650 C.3   154  VAL154      0.0019
     71  N          7.3950  -12.1680   60.1050 N.3   158  PHE158     -0.1241
     72  CA         7.3820  -13.5520   60.5590 C.3   158  PHE158      0.1605
     73  C          6.4210  -13.7910   61.7150 C.2   158  PHE158      0.2264
     74  O          6.2200  -14.9470   62.1040 O.2   158  PHE158     -0.2867
     75  CB         8.7910  -13.9930   60.9700 C.3   158  PHE158      0.0534
     76  CG         9.7270  -14.1870   59.8120 C.ar  158  PHE158     -0.0203
     77  CD1        9.6410  -15.3180   59.0170 C.ar  158  PHE158     -0.0042
     78  CD2       10.6970  -13.2440   59.5220 C.ar  158  PHE158     -0.0042
     79  CE1       10.5020  -15.5010   57.9510 C.ar  158  PHE158     -0.0003
     80  CE2       11.5610  -13.4210   58.4580 C.ar  158  PHE158     -0.0003
     81  CZ        11.4630  -14.5510   57.6720 C.ar  158  PHE158     -0.0000
     82  N         12.7770  -21.0330   50.6380 N.3   223  LEU223     -0.1245
     83  CA        13.7130  -19.9160   50.6340 C.3   223  LEU223      0.1561
     84  C         13.5340  -19.0740   49.3800 C.2   223  LEU223      0.2260
     85  O         13.5030  -17.8400   49.4480 O.2   223  LEU223     -0.2867
     86  CB        15.1510  -20.4270   50.7300 C.3   223  LEU223      0.0270
     87  CG        15.6140  -21.0380   52.0530 C.3   223  LEU223      0.0019
     88  CD1       17.0400  -21.5510   51.9240 C.3   223  LEU223      0.0001
     89  CD2       15.5020  -20.0350   53.1880 C.3   223  LEU223      0.0001
     90  N         10.1210  -17.1020   49.7180 N.3   226  MET226     -0.1230
     91  CA        10.2870  -15.9790   50.6340 C.3   226  MET226      0.1702
     92  C         11.1390  -14.8890   50.0030 C.2   226  MET226      0.2593
     93  O         10.8620  -13.6960   50.1740 O.2   226  MET226     -0.2718
     94  CB        10.9140  -16.4460   51.9490 C.3   226  MET226      0.0401
     95  CG        10.0160  -17.3160   52.8090 C.3   226  MET226      0.0596
     96  SD        10.6520  -17.4950   54.4870 S.3   226  MET226     -0.1393
     97  CE        12.3150  -18.0740   54.1630 C.3   226  MET226      0.0692
     98  N         12.1760  -15.2800   49.2590 N.am  227  SER227     -0.1952
     99  CA        13.0260  -14.2990   48.5990 C.3   227  SER227      0.1924
    100  C         12.2610  -13.5360   47.5280 C.2   227  SER227      0.2314
    101  O         12.4200  -12.3170   47.3890 O.2   227  SER227     -0.2863
    102  CB        14.2460  -14.9960   47.9980 C.3   227  SER227      0.2116
    103  OG        15.0950  -15.4910   49.0190 O.3   227  SER227     -0.2180
    104  N         10.0260  -11.0960   49.2600 N.3   230  ALA230     -0.1245
    105  CA        10.7920   -9.9950   49.8350 C.3   230  ALA230      0.1562
    106  C         11.2400   -9.0100   48.7640 C.2   230  ALA230      0.2260
    107  O         11.1970   -7.7920   48.9760 O.2   230  ALA230     -0.2867
    108  CB        11.9970  -10.5370   50.6020 C.3   230  ALA230      0.0290
@<TRIPOS>BOND
     1    22    21    1
     2    21    23    1
     3    21    18    1
     4     9    10    1
     5    17    18    1
     6    17    11   am
     7    18    19    1
     8    19    20    2
     9    10    11    1
    10    10    13    1
    11    11    12    2
    12    13    14    1
    13    15    14    1
    14    14    16    1
    15    24    25    1
    16   101   100    2
    17   100    99    1
    18   102    99    1
    19   102   103    1
    20    25    26    1
    21    25    28    1
    22    99    98    1
    23    30    28    1
    24   106   107    2
    25   106   105    1
    26    26    31   am
    27    26    27    2
    28    31    32    1
    29    28    29    1
    30    33    32    1
    31    33    34    2
    32    98    92   am
    33   104   105    1
    34    84    85    2
    35    84    83    1
    36    35    32    1
    37    35    36    1
    38    35    37    1
    39    90    91    1
    40    38    39    1
    41   105   108    1
    42    92    93    2
    43    92    91    1
    44    91    94    1
    45    83    82    1
    46    83    86    1
    47    86    87    1
    48    43    44    1
    49    43    42    1
    50    44    45    1
    51    42    39    1
    52    39    40    1
    53    40    41    2
    54    40    49   am
    55    88    87    1
    56    55    49    1
    57    55    54    1
    58    94    95    1
    59    49    50    1
    60    45    46    2
    61    87    89    1
    62    53    50    1
    63    53    54    1
    64    50    51    1
    65    95    96    1
    66    46    47    1
    67    46    48    1
    68     8     6    1
    69    51    52    2
    70    97    96    1
    71     6     7    1
    72     6     5    1
    73     1     2    1
    74     2     5    1
    75     2     3    1
    76    70    68    1
    77     4     3    2
    78    69    68    1
    79    68    65    1
    80    63    61    1
    81    65    64    1
    82    65    66    1
    83    56    57    1
    84    81    79   ar
    85    81    80   ar
    86    79    77   ar
    87    61    62    1
    88    61    60    1
    89    57    60    1
    90    57    58    1
    91    80    78   ar
    92    67    66    2
    93    77    76   ar
    94    58    59    2
    95    78    76   ar
    96    76    75    1
    97    71    72    1
    98    72    75    1
    99    72    73    1
   100    73    74    2
