@<TRIPOS>MOLECULE
tmp/6c3iB01.pdb
 146 145 0 0 0
SMALL
GASTEIGER

@<TRIPOS>ATOM
      1  N        -47.9650   -0.2820    9.4290 N.3    67  ARG67      -0.1231
      2  CA       -48.3690   -0.1390    8.0400 C.3    67  ARG67       0.1694
      3  C        -49.6180   -0.9220    7.6530 C.2    67  ARG67       0.2592
      4  O        -50.2230   -0.5980    6.6250 O.2    67  ARG67      -0.2718
      5  CB       -47.2110   -0.5400    7.1110 C.3    67  ARG67       0.0321
      6  CG       -45.9060    0.1660    7.4730 C.3    67  ARG67       0.0489
      7  CD       -44.7620   -0.1530    6.5260 C.3    67  ARG67       0.2205
      8  NE       -44.8940    0.5510    5.2550 N.pl3  67  ARG67      -0.0865
      9  CZ       -45.4370    0.0350    4.1590 C.cat  67  ARG67       0.5346
     10  NH1      -45.9070   -1.2040    4.1640 N.pl3  67  ARG67       0.1354
     11  NH2      -45.5090    0.7630    3.0540 N.pl3  67  ARG67       0.1354
     12  N        -50.0230   -1.9270    8.4250 N.am   68  TRP68      -0.1963
     13  CA       -51.1390   -2.7820    8.0500 C.3    68  TRP68       0.1756
     14  C        -52.3420   -2.5560    8.9610 C.2    68  TRP68       0.2461
     15  O        -52.2050   -2.0350   10.0730 O.2    68  TRP68      -0.2730
     16  CB       -50.7220   -4.2600    8.0890 C.3    68  TRP68       0.0590
     17  CG       -49.9580   -4.6880    6.8740 C.ar   68  TRP68       0.0006
     18  CD1      -49.5700   -3.8980    5.8310 C.ar   68  TRP68       0.0946
     19  CD2      -49.5130   -6.0130    6.5600 C.ar   68  TRP68       0.0152
     20  NE1      -48.9000   -4.6460    4.8930 N.ar   68  TRP68      -0.2442
     21  CE2      -48.8520   -5.9480    5.3170 C.ar   68  TRP68       0.0810
     22  CE3      -49.6030   -7.2470    7.2110 C.ar   68  TRP68       0.0012
     23  CZ2      -48.2850   -7.0680    4.7130 C.ar   68  TRP68       0.0191
     24  CZ3      -49.0400   -8.3590    6.6090 C.ar   68  TRP68       0.0001
     25  CH2      -48.3910   -8.2610    5.3720 C.ar   68  TRP68       0.0015
     26  N        -53.5460   -2.9210    8.5080 N.am   69  PRO69      -0.2727
     27  CA       -54.7540   -2.6410    9.2940 C.3    69  PRO69       0.1402
     28  C        -54.7410   -3.3080   10.6630 C.2    69  PRO69       0.2269
     29  O        -54.0740   -4.3190   10.8960 O.2    69  PRO69      -0.2865
     30  CB       -55.8820   -3.1960    8.4180 C.3    69  PRO69       0.0296
     31  CG       -55.3470   -3.1120    7.0350 C.3    69  PRO69       0.0237
     32  CD       -53.8790   -3.4080    7.1560 C.3    69  PRO69       0.0939
     33  N        -55.7350   -7.1080   10.9910 N.3    72  LEU72      -0.1245
     34  CA       -54.6660   -7.9380   10.4460 C.3    72  LEU72       0.1561
     35  C        -53.4650   -7.9670   11.3840 C.2    72  LEU72       0.2260
     36  O        -52.8230   -9.0110   11.5470 O.2    72  LEU72      -0.2867
     37  CB       -54.2670   -7.4310    9.0600 C.3    72  LEU72       0.0270
     38  CG       -53.4080   -8.3640    8.2060 C.3    72  LEU72       0.0019
     39  CD1      -54.1100   -9.6950    7.9990 C.3    72  LEU72       0.0001
     40  CD2      -53.0930   -7.7160    6.8690 C.3    72  LEU72       0.0001
     41  N        -54.3930  -10.3600   14.1890 N.3    75  PHE75      -0.1227
     42  CA       -54.2270  -11.7360   13.7340 C.3    75  PHE75       0.1736
     43  C        -52.7560  -12.1300   13.6870 C.2    75  PHE75       0.2595
     44  O        -52.3830  -13.2310   14.1140 O.2    75  PHE75      -0.2718
     45  CB       -54.8790  -11.9100   12.3620 C.3    75  PHE75       0.0547
     46  CG       -54.3740  -13.0980   11.5940 C.ar   75  PHE75      -0.0202
     47  CD1      -54.8480  -14.3700   11.8690 C.ar   75  PHE75      -0.0042
     48  CD2      -53.4350  -12.9410   10.5870 C.ar   75  PHE75      -0.0042
     49  CE1      -54.3870  -15.4640   11.1620 C.ar   75  PHE75      -0.0003
     50  CE2      -52.9700  -14.0310    9.8760 C.ar   75  PHE75      -0.0003
     51  CZ       -53.4470  -15.2930   10.1640 C.ar   75  PHE75      -0.0000
     52  N        -51.9070  -11.2410   13.1670 N.am   76  TYR76      -0.1976
     53  CA       -50.4830  -11.5420   13.0780 C.3    76  TYR76       0.1639
     54  C        -49.8590  -11.6820   14.4590 C.2    76  TYR76       0.2290
     55  O        -49.0130  -12.5560   14.6780 O.2    76  TYR76      -0.2864
     56  CB       -49.7760  -10.4570   12.2700 C.3    76  TYR76       0.0560
     57  CG       -49.4880  -10.8690   10.8480 C.ar   76  TYR76      -0.0198
     58  CD1      -50.5170  -11.0510    9.9340 C.ar   76  TYR76      -0.0009
     59  CD2      -48.1870  -11.0770   10.4200 C.ar   76  TYR76      -0.0009
     60  CE1      -50.2560  -11.4320    8.6320 C.ar   76  TYR76       0.0417
     61  CE2      -47.9160  -11.4500    9.1240 C.ar   76  TYR76       0.0417
     62  CZ       -48.9510  -11.6310    8.2330 C.ar   76  TYR76       0.1957
     63  OH       -48.6770  -12.0090    6.9380 O.3    76  TYR76      -0.2866
     64  N        -45.4550  -24.5490    9.8350 N.3   335  PHE335     -0.1241
     65  CA       -46.7470  -24.0180    9.4090 C.3   335  PHE335      0.1605
     66  C        -46.8290  -22.5090    9.6050 C.2   335  PHE335      0.2264
     67  O        -47.4680  -21.8150    8.8060 O.2   335  PHE335     -0.2867
     68  CB       -47.8800  -24.7170   10.1580 C.3   335  PHE335      0.0534
     69  CG       -48.3340  -25.9920    9.5100 C.ar  335  PHE335     -0.0203
     70  CD1      -49.2580  -25.9630    8.4800 C.ar  335  PHE335     -0.0042
     71  CD2      -47.8390  -27.2150    9.9270 C.ar  335  PHE335     -0.0042
     72  CE1      -49.6800  -27.1310    7.8770 C.ar  335  PHE335     -0.0003
     73  CE2      -48.2580  -28.3870    9.3270 C.ar  335  PHE335     -0.0003
     74  CZ       -49.1800  -28.3440    8.3010 C.ar  335  PHE335     -0.0000
     75  N        -44.9030  -19.3510    6.5670 N.3   338  PRO338     -0.2102
     76  CA       -45.3480  -18.4750    5.4620 C.3   338  PRO338      0.1504
     77  C        -45.9620  -17.1640    5.9230 C.2   338  PRO338      0.2575
     78  O        -45.8070  -16.1360    5.2460 O.2   338  PRO338     -0.2718
     79  CB       -46.3700  -19.3450    4.7140 C.3   338  PRO338      0.0282
     80  CG       -46.0370  -20.7420    5.0940 C.3   338  PRO338      0.0208
     81  CD       -45.5790  -20.6590    6.5150 C.3   338  PRO338      0.0893
     82  N        -46.6850  -17.1760    7.0470 N.am  339  PHE339     -0.1977
     83  CA       -47.2530  -15.9440    7.5800 C.3   339  PHE339      0.1639
     84  C        -46.1780  -14.9330    7.9450 C.2   339  PHE339      0.2290
     85  O        -46.4590  -13.7320    7.9720 O.2   339  PHE339     -0.2864
     86  CB       -48.1270  -16.2430    8.7990 C.3   339  PHE339      0.0560
     87  CG       -49.3320  -17.0810    8.4890 C.ar  339  PHE339     -0.0200
     88  CD1      -50.5330  -16.4850    8.1440 C.ar  339  PHE339     -0.0042
     89  CD2      -49.2660  -18.4640    8.5400 C.ar  339  PHE339     -0.0042
     90  CE1      -51.6460  -17.2510    7.8560 C.ar  339  PHE339     -0.0003
     91  CE2      -50.3760  -19.2360    8.2530 C.ar  339  PHE339     -0.0003
     92  CZ       -51.5680  -18.6280    7.9110 C.ar  339  PHE339     -0.0000
     93  N        -44.4260  -13.8270    4.0280 N.3   342  VAL342     -0.1245
     94  CA       -45.1880  -12.9460    3.1390 C.3   342  VAL342      0.1561
     95  C        -44.9250  -11.4710    3.4460 C.2   342  VAL342      0.2260
     96  O        -44.5150  -10.7320    2.5360 O.2   342  VAL342     -0.2867
     97  CB       -46.6920  -13.2690    3.1880 C.3   342  VAL342      0.0252
     98  CG1      -47.4880  -12.1820    2.4840 C.3   342  VAL342      0.0019
     99  CG2      -46.9590  -14.6210    2.5510 C.3   342  VAL342      0.0019
    100  N        -42.8100   -8.9030    0.9800 N.3   346  LEU346     -0.1231
    101  CA       -43.4550   -7.6940    0.4790 C.3   346  LEU346      0.1693
    102  C        -42.6860   -6.4400    0.8840 C.2   346  LEU346      0.2592
    103  O        -42.4310   -5.5600    0.0540 O.2   346  LEU346     -0.2718
    104  CB       -44.9000   -7.6220    0.9740 C.3   346  LEU346      0.0284
    105  CG       -45.8680   -8.6460    0.3800 C.3   346  LEU346      0.0019
    106  CD1      -47.2390   -8.5220    1.0260 C.3   346  LEU346      0.0001
    107  CD2      -45.9590   -8.4790   -1.1270 C.3   346  LEU346      0.0001
    108  N        -42.2920   -6.3460    2.1580 N.am  347  PHE347     -0.1976
    109  CA       -41.6610   -5.1250    2.6500 C.3   347  PHE347      0.1639
    110  C        -40.2370   -4.9710    2.1280 C.2   347  PHE347      0.2290
    111  O        -39.7960   -3.8510    1.8450 O.2   347  PHE347     -0.2864
    112  CB       -41.6790   -5.1050    4.1780 C.3   347  PHE347      0.0560
    113  CG       -43.0530   -4.9480    4.7660 C.ar  347  PHE347     -0.0200
    114  CD1      -44.1030   -4.4750    3.9950 C.ar  347  PHE347     -0.0042
    115  CD2      -43.2950   -5.2690    6.0910 C.ar  347  PHE347     -0.0042
    116  CE1      -45.3670   -4.3290    4.5340 C.ar  347  PHE347     -0.0003
    117  CE2      -44.5580   -5.1240    6.6360 C.ar  347  PHE347     -0.0003
    118  CZ       -45.5950   -4.6530    5.8560 C.ar  347  PHE347     -0.0000
    119  N        -45.4270  -23.4530    1.3560 N.3   375  ILE375     -0.1245
    120  CA       -46.8860  -23.4950    1.4010 C.3   375  ILE375      0.1561
    121  C        -47.4010  -24.7990    0.8050 C.2   375  ILE375      0.2260
    122  O        -48.3070  -25.4350    1.3560 O.2   375  ILE375     -0.2867
    123  CB       -47.4770  -22.2680    0.6830 C.3   375  ILE375      0.0252
    124  CG1      -47.2300  -21.0010    1.5040 C.3   375  ILE375      0.0019
    125  CG2      -48.9660  -22.4560    0.4270 C.3   375  ILE375      0.0019
    126  CD1      -47.8100  -19.7490    0.8840 C.3   375  ILE375      0.0001
    127  N        -46.6760  -27.6370    3.2740 N.3   378  ASN378     -0.1225
    128  CA       -47.6110  -27.6070    4.3950 C.3   378  ASN378      0.1785
    129  C        -48.9940  -28.0820    3.9670 C.2   378  ASN378      0.2597
    130  O        -49.6690  -28.8030    4.7130 O.2   378  ASN378     -0.2718
    131  CB       -47.6820  -26.1990    4.9820 C.3   378  ASN378      0.1169
    132  CG       -46.3750  -25.7650    5.6160 C.2   378  ASN378      0.2627
    133  OD1      -45.5510  -26.5960    5.9970 O.2   378  ASN378     -0.2716
    134  ND2      -46.1790  -24.4570    5.7320 N.am  378  ASN378     -0.0877
    135  N        -49.4310  -27.6930    2.7680 N.am  379  GLY379     -0.1957
    136  CA       -50.7010  -28.1840    2.2630 C.3   379  GLY379      0.1869
    137  C        -50.6920  -29.6830    2.0390 C.2   379  GLY379      0.2309
    138  O        -51.6830  -30.3640    2.3050 O.2   379  GLY379     -0.2863
    139  N        -50.9760  -31.2920    5.4630 N.3   382  LEU382     -0.1245
    140  CA       -52.3690  -31.2200    5.8950 C.3   382  LEU382      0.1561
    141  C        -53.2240  -32.2300    5.1380 C.2   382  LEU382      0.2260
    142  O        -54.1330  -32.8440    5.7110 O.2   382  LEU382     -0.2867
    143  CB       -52.9010  -29.7980    5.7040 C.3   382  LEU382      0.0270
    144  CG       -54.2920  -29.4500    6.2410 C.3   382  LEU382      0.0019
    145  CD1      -54.3120  -28.0140    6.7370 C.3   382  LEU382      0.0001
    146  CD2      -55.3630  -29.6530    5.1770 C.3   382  LEU382      0.0001
@<TRIPOS>BOND
     1   107   105    1
     2   103   102    2
     3   105   104    1
     4   105   106    1
     5   125   123    1
     6   101   102    1
     7   101   104    1
     8   101   100    1
     9   123   120    1
    10   123   124    1
    11   121   122    2
    12   121   120    1
    13   102   108   am
    14   126   124    1
    15   119   120    1
    16   111   110    2
    17   137   136    1
    18   137   138    2
    19   110   109    1
    20   108   109    1
    21   136   135    1
    22    98    97    1
    23    96    95    2
    24    99    97    1
    25   109   112    1
    26   135   129   am
    27    11     9    1
    28    94    97    1
    29    94    95    1
    30    94    93    1
    31   127   128    1
    32   129   128    1
    33   129   130    2
    34   114   116   ar
    35   114   113   ar
    36     9    10    1
    37     9     8    2
    38   112   113    1
    39   128   131    1
    40   116   118   ar
    41    23    21   ar
    42    23    25   ar
    43    79    80    1
    44    79    76    1
    45   113   115   ar
    46    20    21   ar
    47    20    18   ar
    48   131   132    1
    49    80    81    1
    50   141   142    2
    51   141   140    1
    52   146   144    1
    53    78    77    2
    54     8     7    1
    55    21    19   ar
    56    25    24   ar
    57    76    77    1
    58    76    75    1
    59   139   140    1
    60   132   134   am
    61   132   133    2
    62   143   140    1
    63   143   144    1
    64    18    17   ar
    65   118   117   ar
    66    77    82   am
    67   115   117   ar
    68   144   145    1
    69    81    75    1
    70     7     6    1
    71    19    17   ar
    72    19    22   ar
    73    24    22   ar
    74     4     3    2
    75    40    38    1
    76    17    16    1
    77    63    62    1
    78    31    32    1
    79    31    30    1
    80    82    83    1
    81     5     6    1
    82     5     2    1
    83    32    26    1
    84    83    84    1
    85    83    86    1
    86     3     2    1
    87     3    12   am
    88    90    92   ar
    89    90    88   ar
    90    72    74   ar
    91    72    70   ar
    92    92    91   ar
    93    84    85    2
    94    39    38    1
    95     2     1    1
    96    13    16    1
    97    13    12    1
    98    13    14    1
    99    88    87   ar
   100    38    37    1
   101    62    60   ar
   102    62    61   ar
   103    91    89   ar
   104    74    73   ar
   105    30    27    1
   106    70    69   ar
   107    87    89   ar
   108    87    86    1
   109    26    14   am
   110    26    27    1
   111    60    58   ar
   112    67    66    2
   113    14    15    2
   114    37    34    1
   115    61    59   ar
   116    27    28    1
   117    73    71   ar
   118    65    66    1
   119    65    64    1
   120    65    68    1
   121    69    71   ar
   122    69    68    1
   123    50    51   ar
   124    50    48   ar
   125    58    57   ar
   126    51    49   ar
   127    59    57   ar
   128    34    33    1
   129    34    35    1
   130    48    46   ar
   131    28    29    2
   132    57    56    1
   133    49    47   ar
   134    35    36    2
   135    46    47   ar
   136    46    45    1
   137    56    53    1
   138    45    42    1
   139    53    52    1
   140    53    54    1
   141    52    43   am
   142    43    42    1
   143    43    44    2
   144    42    41    1
   145    54    55    2
