@<TRIPOS>MOLECULE
tmp/6c3iA02.pdb
 112 111 0 0 0
SMALL
GASTEIGER

@<TRIPOS>ATOM
      1  N        -13.5710  -46.8970   50.5470 N.3    67  TRP67      -0.1228
      2  CA       -14.6790  -46.0460   50.9440 C.3    67  TRP67       0.1722
      3  C        -15.9010  -46.2530   50.0560 C.2    67  TRP67       0.2437
      4  O        -15.7910  -46.7660   48.9360 O.2    67  TRP67      -0.2733
      5  CB       -14.2310  -44.5780   50.9230 C.3    67  TRP67       0.0563
      6  CG       -13.4170  -44.2380   52.1390 C.ar   67  TRP67       0.0003
      7  CD1      -13.0430  -45.0960   53.1340 C.ar   67  TRP67       0.0946
      8  CD2      -12.8780  -42.9590   52.4910 C.ar   67  TRP67       0.0152
      9  NE1      -12.3060  -44.4310   54.0820 N.ar   67  TRP67      -0.2442
     10  CE2      -12.1900  -43.1180   53.7120 C.ar   67  TRP67       0.0810
     11  CE3      -12.9090  -41.6950   51.8940 C.ar   67  TRP67       0.0012
     12  CZ2      -11.5410  -42.0640   54.3450 C.ar   67  TRP67       0.0191
     13  CZ3      -12.2640  -40.6490   52.5270 C.ar   67  TRP67       0.0001
     14  CH2      -11.5910  -40.8400   53.7400 C.ar   67  TRP67       0.0015
     15  N        -17.0920  -45.8820   50.5350 N.am   68  PRO68      -0.2729
     16  CA       -18.3180  -46.1510   49.7740 C.3    68  PRO68       0.1401
     17  C        -18.3210  -45.4860   48.4040 C.2    68  PRO68       0.2269
     18  O        -17.6400  -44.4880   48.1560 O.2    68  PRO68      -0.2865
     19  CB       -19.4220  -45.5780   50.6690 C.3    68  PRO68       0.0296
     20  CG       -18.8620  -45.6600   52.0390 C.3    68  PRO68       0.0237
     21  CD       -17.3940  -45.3820   51.8900 C.3    68  PRO68       0.0939
     22  N        -19.2310  -41.6660   48.0820 N.3    71  LEU71      -0.1245
     23  CA       -18.1280  -40.8610   48.5900 C.3    71  LEU71       0.1561
     24  C        -16.9610  -40.8580   47.6100 C.2    71  LEU71       0.2260
     25  O        -16.3020  -39.8290   47.4240 O.2    71  LEU71      -0.2867
     26  CB       -17.6890  -41.3800   49.9590 C.3    71  LEU71       0.0270
     27  CG       -16.7780  -40.4750   50.7870 C.3    71  LEU71       0.0019
     28  CD1      -17.4350  -39.1270   51.0310 C.3    71  LEU71       0.0001
     29  CD2      -16.4340  -41.1470   52.1010 C.3    71  LEU71       0.0001
     30  N        -17.9210  -38.4380   44.8100 N.3    74  PHE74      -0.1227
     31  CA       -17.7070  -37.0640   45.2560 C.3    74  PHE74       0.1736
     32  C        -16.2240  -36.7120   45.2800 C.2    74  PHE74       0.2595
     33  O        -15.8280  -35.6200   44.8480 O.2    74  PHE74      -0.2718
     34  CB       -18.3320  -36.8670   46.6380 C.3    74  PHE74       0.0547
     35  CG       -17.7830  -35.6900   47.3930 C.ar   74  PHE74      -0.0202
     36  CD1      -18.2290  -34.4080   47.1220 C.ar   74  PHE74      -0.0042
     37  CD2      -16.8250  -35.8680   48.3800 C.ar   74  PHE74      -0.0042
     38  CE1      -17.7260  -33.3230   47.8160 C.ar   74  PHE74      -0.0003
     39  CE2      -16.3180  -34.7870   49.0760 C.ar   74  PHE74      -0.0003
     40  CZ       -16.7690  -33.5130   48.7950 C.ar   74  PHE74      -0.0000
     41  N        -15.3910  -37.6210   45.7910 N.am   75  TYR75      -0.1976
     42  CA       -13.9580  -37.3600   45.8640 C.3    75  TYR75       0.1639
     43  C        -13.3430  -37.2400   44.4770 C.2    75  TYR75       0.2290
     44  O        -12.4810  -36.3840   44.2480 O.2    75  TYR75      -0.2864
     45  CB       -13.2710  -38.4620   46.6660 C.3    75  TYR75       0.0560
     46  CG       -12.9520  -38.0580   48.0830 C.ar   75  TYR75      -0.0198
     47  CD1      -13.9620  -37.8500   49.0120 C.ar   75  TYR75      -0.0009
     48  CD2      -11.6390  -37.8830   48.4920 C.ar   75  TYR75      -0.0009
     49  CE1      -13.6720  -37.4770   50.3100 C.ar   75  TYR75       0.0417
     50  CE2      -11.3390  -37.5170   49.7830 C.ar   75  TYR75       0.0417
     51  CZ       -12.3570  -37.3110   50.6900 C.ar   75  TYR75       0.1957
     52  OH       -12.0560  -36.9410   51.9810 O.3    75  TYR75      -0.2866
     53  N         -8.7940  -24.3890   49.0900 N.3   333  PHE333     -0.1241
     54  CA       -10.0980  -24.8950   49.5130 C.3   333  PHE333      0.1605
     55  C        -10.1940  -26.4030   49.3270 C.2   333  PHE333      0.2264
     56  O        -10.8340  -27.0980   50.1250 O.2   333  PHE333     -0.2867
     57  CB       -11.2210  -24.1930   48.7510 C.3   333  PHE333      0.0534
     58  CG       -11.6650  -22.9140   49.3850 C.ar  333  PHE333     -0.0203
     59  CD1      -12.5970  -22.9210   50.4080 C.ar  333  PHE333     -0.0042
     60  CD2      -11.1460  -21.7030   48.9660 C.ar  333  PHE333     -0.0042
     61  CE1      -13.0040  -21.7450   50.9970 C.ar  333  PHE333     -0.0003
     62  CE2      -11.5490  -20.5230   49.5510 C.ar  333  PHE333     -0.0003
     63  CZ       -12.4790  -20.5420   50.5680 C.ar  333  PHE333     -0.0000
     64  N         -8.3140  -29.6110   52.3790 N.3   336  PRO336     -0.2102
     65  CA        -8.7620  -30.4750   53.4910 C.3   336  PRO336      0.1504
     66  C         -9.3970  -31.7810   53.0450 C.2   336  PRO336      0.2575
     67  O         -9.2450  -32.8100   53.7230 O.2   336  PRO336     -0.2718
     68  CB        -9.7710  -29.5900   54.2380 C.3   336  PRO336      0.0282
     69  CG        -9.4270  -28.2010   53.8460 C.3   336  PRO336      0.0208
     70  CD        -8.9760  -28.2940   52.4280 C.3   336  PRO336      0.0893
     71  N        -10.1280  -31.7620   51.9270 N.am  337  PHE337     -0.1977
     72  CA       -10.7380  -32.9860   51.4220 C.3   337  PHE337      0.1639
     73  C         -9.6890  -34.0290   51.0680 C.2   337  PHE337      0.2290
     74  O         -9.9820  -35.2280   51.0760 O.2   337  PHE337     -0.2864
     75  CB       -11.6090  -32.6770   50.2050 C.3   337  PHE337      0.0560
     76  CG       -12.7720  -31.7800   50.5080 C.ar  337  PHE337     -0.0200
     77  CD1      -13.9940  -32.3120   50.8800 C.ar  337  PHE337     -0.0042
     78  CD2      -12.6410  -30.4040   50.4250 C.ar  337  PHE337     -0.0042
     79  CE1      -15.0670  -31.4890   51.1620 C.ar  337  PHE337     -0.0003
     80  CE2      -13.7090  -29.5740   50.7050 C.ar  337  PHE337     -0.0003
     81  CZ       -14.9240  -30.1170   51.0740 C.ar  337  PHE337     -0.0000
     82  N         -7.8660  -35.1220   54.9660 N.3   340  VAL340     -0.1245
     83  CA        -8.6190  -36.0050   55.8630 C.3   340  VAL340      0.1561
     84  C         -8.3500  -37.4790   55.5550 C.2   340  VAL340      0.2260
     85  O         -7.9410  -38.2220   56.4640 O.2   340  VAL340     -0.2867
     86  CB       -10.1250  -35.6900   55.8180 C.3   340  VAL340      0.0252
     87  CG1      -10.9160  -36.7760   56.5280 C.3   340  VAL340      0.0019
     88  CG2      -10.3990  -34.3330   56.4440 C.3   340  VAL340      0.0019
     89  N         -6.3120  -40.1810   57.9870 N.3   344  LEU344     -0.1245
     90  CA        -7.0020  -41.3910   58.4260 C.3   344  LEU344      0.1561
     91  C         -6.2350  -42.6410   58.0130 C.2   344  LEU344      0.2260
     92  O         -6.0560  -43.5660   58.8150 O.2   344  LEU344     -0.2867
     93  CB        -8.4240  -41.4190   57.8680 C.3   344  LEU344      0.0270
     94  CG        -9.3960  -40.3890   58.4430 C.3   344  LEU344      0.0019
     95  CD1      -10.7360  -40.4630   57.7320 C.3   344  LEU344      0.0001
     96  CD2       -9.5670  -40.5980   59.9370 C.3   344  LEU344      0.0001
     97  N         -8.9970  -25.5430   57.5370 N.3   373  ILE373     -0.1245
     98  CA       -10.4550  -25.4880   57.4670 C.3   373  ILE373      0.1561
     99  C        -10.9670  -24.1760   58.0460 C.2   373  ILE373      0.2260
    100  O        -11.8580  -23.5330   57.4770 O.2   373  ILE373     -0.2867
    101  CB       -11.0730  -26.7050   58.1820 C.3   373  ILE373      0.0252
    102  CG1      -10.8270  -27.9820   57.3750 C.3   373  ILE373      0.0019
    103  CG2      -12.5650  -26.5000   58.4100 C.3   373  ILE373      0.0019
    104  CD1      -11.4430  -29.2180   57.9920 C.3   373  ILE373      0.0001
    105  N        -10.1980  -21.3520   55.5740 N.3   376  ASN376     -0.1240
    106  CA       -11.1130  -21.3750   54.4370 C.3   376  ASN376      0.1653
    107  C        -12.5030  -20.8930   54.8370 C.2   376  ASN376      0.2266
    108  O        -13.1490  -20.1510   54.0870 O.2   376  ASN376     -0.2867
    109  CB       -11.1790  -22.7830   53.8460 C.3   376  ASN376      0.1155
    110  CG        -9.8630  -23.2190   53.2300 C.2   376  ASN376      0.2627
    111  OD1       -9.0340  -22.3890   52.8570 O.2   376  ASN376     -0.2716
    112  ND2       -9.6640  -24.5280   53.1220 N.am  376  ASN376     -0.0877
@<TRIPOS>BOND
     1    44    43    2
     2    43    42    1
     3    30    31    1
     4    33    32    2
     5    31    32    1
     6    31    34    1
     7    32    41   am
     8    41    42    1
     9    42    45    1
    10    34    35    1
    11    45    46    1
    12    36    35   ar
    13    36    38   ar
    14    35    37   ar
    15    25    24    2
    16    24    23    1
    17    38    40   ar
    18    22    23    1
    19    46    48   ar
    20    46    47   ar
    21    18    17    2
    22    37    39   ar
    23    17    16    1
    24    48    50   ar
    25    23    26    1
    26    57    58    1
    27    57    54    1
    28    40    39   ar
    29     4     3    2
    30    60    58   ar
    31    60    62   ar
    32    47    49   ar
    33    53    54    1
    34    55    54    1
    35    55    56    2
    36    58    59   ar
    37    62    63   ar
    38    16    15    1
    39    16    19    1
    40    50    51   ar
    41    26    27    1
    42     3    15   am
    43     3     2    1
    44    75    76    1
    45    75    72    1
    46    49    51   ar
    47    59    61   ar
    48    78    76   ar
    49    78    80   ar
    50    76    77   ar
    51    15    21    1
    52     1     2    1
    53    63    61   ar
    54    19    20    1
    55    51    52    1
    56    80    81   ar
    57    27    28    1
    58    27    29    1
    59    77    79   ar
    60     5     2    1
    61     5     6    1
    62    73    74    2
    63    73    72    1
    64    81    79   ar
    65    72    71    1
    66    21    20    1
    67    11     8   ar
    68    11    13   ar
    69    71    66   am
    70     6     8   ar
    71     6     7   ar
    72    64    70    1
    73    64    65    1
    74    70    69    1
    75     8    10   ar
    76    13    14   ar
    77   111   110    2
    78    66    65    1
    79    66    67    2
    80   112   110   am
    81     7     9   ar
    82   110   109    1
    83    65    68    1
    84    10     9   ar
    85    10    12   ar
    86    14    12   ar
    87    69    68    1
    88   109   106    1
    89   108   107    2
    90   106   107    1
    91   106   105    1
    92    82    83    1
    93    84    83    1
    94    84    85    2
    95    86    83    1
    96    86    88    1
    97    86    87    1
    98   102   104    1
    99   102   101    1
   100    98    97    1
   101    98    99    1
   102    98   101    1
   103   100    99    2
   104    95    94    1
   105    93    90    1
   106    93    94    1
   107    89    90    1
   108    91    90    1
   109    91    92    2
   110   101   103    1
   111    94    96    1
