@<TRIPOS>MOLECULE
tmp/6c3jA00.pdb
 135 125 0 0 0
SMALL
GASTEIGER

@<TRIPOS>ATOM
      1  N         -1.0910    5.8240   25.6510 N.3    64  VAL64      -0.1245
      2  CA        -1.2310    4.3770   25.8240 C.3    64  VAL64       0.1561
      3  C         -0.1740    3.8460   26.8020 C.2    64  VAL64       0.2260
      4  O          0.0040    2.6260   26.9550 O.2    64  VAL64      -0.2867
      5  CB        -1.1540    3.6190   24.4670 C.3    64  VAL64       0.0252
      6  CG1       -2.2500    4.1000   23.5430 C.3    64  VAL64       0.0019
      7  CG2        0.2040    3.7810   23.8090 C.3    64  VAL64       0.0019
      8  N          7.5840   13.1900   24.6310 N.3    76  ARG76      -0.1245
      9  CA         7.8640   13.6530   23.2720 C.3    76  ARG76       0.1563
     10  C          6.5370   14.0590   22.6500 C.2    76  ARG76       0.2260
     11  O          5.4910   13.6210   23.1280 O.2    76  ARG76      -0.2867
     12  CB         8.5310   12.5560   22.4260 C.3    76  ARG76       0.0307
     13  CG         7.6650   11.3230   22.2640 C.3    76  ARG76       0.0489
     14  CD         8.2400   10.2820   21.3150 C.3    76  ARG76       0.2205
     15  NE         7.2710    9.2140   21.1220 N.pl3  76  ARG76      -0.0865
     16  CZ         7.3500    8.2870   20.1740 C.cat  76  ARG76       0.5346
     17  NH1        8.3640    8.2840   19.3220 N.pl3  76  ARG76       0.1354
     18  NH2        6.4020    7.3710   20.0750 N.pl3  76  ARG76       0.1354
     19  N          2.4200   10.9250   19.1180 N.3    79  SER79      -0.1217
     20  CA         2.3070   10.2460   17.8430 C.3    79  SER79       0.1889
     21  C          0.9950   10.6120   17.1650 C.2    79  SER79       0.2288
     22  O         -0.0480   10.6410   17.8120 O.2    79  SER79      -0.2866
     23  CB         2.3900    8.7370   18.0560 C.3    79  SER79       0.2089
     24  OG         2.1020    8.0420   16.8660 O.3    79  SER79      -0.2183
     25  N         -0.5380    8.8270   15.1360 N.3    81  ILE81      -0.1231
     26  CA        -1.3120    7.6260   14.8640 C.3    81  ILE81       0.1692
     27  C         -1.5700    6.8340   16.1550 C.2    81  ILE81       0.2591
     28  O         -2.7240    6.6170   16.5070 O.2    81  ILE81      -0.2718
     29  CB        -0.6250    6.7590   13.7520 C.3    81  ILE81       0.0266
     30  CG1       -1.4400    5.4990   13.4830 C.3    81  ILE81       0.0019
     31  CG2        0.8120    6.4240   14.0910 C.3    81  ILE81       0.0020
     32  CD1       -0.9720    4.6910   12.2740 C.3    81  ILE81       0.0001
     33  N         -0.5290    6.4510   16.8850 N.am   82  LEU82      -0.1980
     34  CA        -0.7120    5.6210   18.0800 C.3    82  LEU82       0.1596
     35  C         -1.4820    6.3400   19.1790 C.2    82  LEU82       0.2287
     36  O         -2.2600    5.7270   19.9220 O.2    82  LEU82      -0.2864
     37  CB         0.6480    5.1920   18.6300 C.3    82  LEU82       0.0297
     38  CG         0.6060    4.3620   19.9180 C.3    82  LEU82       0.0022
     39  CD1        0.1270    2.9550   19.6320 C.3    82  LEU82       0.0001
     40  CD2        1.9580    4.3600   20.5890 C.3    82  LEU82       0.0001
     41  N         11.3880    4.3570   23.8290 N.3   165  VAL165     -0.1231
     42  CA         9.9620    4.5240   23.5370 C.3   165  VAL165      0.1692
     43  C          9.1180    3.5260   24.3260 C.2   165  VAL165      0.2592
     44  O          8.1220    3.8950   24.9580 O.2   165  VAL165     -0.2718
     45  CB         9.6720    4.3560   22.0370 C.3   165  VAL165      0.0266
     46  CG1        8.1690    4.2990   21.7540 C.3   165  VAL165      0.0020
     47  CG2       10.3050    5.4910   21.2490 C.3   165  VAL165      0.0020
     48  N          9.5190    2.2620   24.3030 N.am  166  PHE166     -0.1976
     49  CA         8.7010    1.2270   24.9080 C.3   166  PHE166      0.1639
     50  C          8.8500    1.2130   26.4280 C.2   166  PHE166      0.2290
     51  O          7.9020    0.8960   27.1350 O.2   166  PHE166     -0.2864
     52  CB         9.0280   -0.1230   24.2720 C.3   166  PHE166      0.0560
     53  CG         8.3660   -0.3060   22.9310 C.ar  166  PHE166     -0.0200
     54  CD1        7.0650   -0.7780   22.8520 C.ar  166  PHE166     -0.0042
     55  CD2        9.0150    0.0420   21.7580 C.ar  166  PHE166     -0.0042
     56  CE1        6.4390   -0.9310   21.6330 C.ar  166  PHE166     -0.0003
     57  CE2        8.3920   -0.1130   20.5330 C.ar  166  PHE166     -0.0003
     58  CZ         7.0970   -0.5920   20.4730 C.ar  166  PHE166     -0.0000
     59  N          6.3120    3.9020   27.9680 N.3   169  PHE169     -0.1241
     60  CA         4.9080    3.5820   28.2060 C.3   169  PHE169      0.1605
     61  C          4.6870    3.1110   29.6390 C.2   169  PHE169      0.2264
     62  O          3.5630    3.0660   30.1030 O.2   169  PHE169     -0.2867
     63  CB         4.3990    2.4980   27.2540 C.3   169  PHE169      0.0534
     64  CG         4.4470    2.8830   25.8030 C.ar  169  PHE169     -0.0203
     65  CD1        3.7580    3.9940   25.3360 C.ar  169  PHE169     -0.0042
     66  CD2        5.1620    2.1190   24.9010 C.ar  169  PHE169     -0.0042
     67  CE1        3.8020    4.3400   24.0050 C.ar  169  PHE169     -0.0003
     68  CE2        5.2150    2.4730   23.5640 C.ar  169  PHE169     -0.0003
     69  CZ         4.5300    3.5780   23.1210 C.ar  169  PHE169     -0.0000
     70  N          8.7060    9.0970   12.1440 N.3   227  ARG227     -0.1231
     71  CA         9.1010    8.8090   13.5210 C.3   227  ARG227      0.1694
     72  C          8.3700    7.5810   14.0580 C.2   227  ARG227      0.2592
     73  O          8.9600    6.7670   14.7680 O.2   227  ARG227     -0.2718
     74  CB         8.8340   10.0150   14.4260 C.3   227  ARG227      0.0321
     75  CG         9.5120    9.9410   15.7780 C.3   227  ARG227      0.0489
     76  CD         8.9770   11.0260   16.7120 C.3   227  ARG227      0.2205
     77  NE         7.6190   10.6910   17.1350 N.pl3 227  ARG227     -0.0865
     78  CZ         6.9100   11.3600   18.0310 C.cat 227  ARG227      0.5346
     79  NH1        5.6930   10.9360   18.3340 N.pl3 227  ARG227      0.1354
     80  NH2        7.4040   12.4450   18.6180 N.pl3 227  ARG227      0.1354
     81  N          7.0920    7.4360   13.7170 N.am  228  SER228     -0.1952
     82  CA         6.3440    6.2510   14.1360 C.3   228  SER228      0.1924
     83  C          7.0060    4.9530   13.6670 C.2   228  SER228      0.2314
     84  O          7.1040    3.9970   14.4340 O.2   228  SER228     -0.2863
     85  CB         4.9070    6.3010   13.6200 C.3   228  SER228      0.2116
     86  OG         4.1420    7.2420   14.3420 O.3   228  SER228     -0.2180
     87  N         10.0840    4.2510   15.5210 N.3   231  SER231     -0.1202
     88  CA         9.8110    3.9140   16.9200 C.3   231  SER231      0.2020
     89  C          9.3940    2.4540   17.0440 C.2   231  SER231      0.2618
     90  O          9.8910    1.7130   17.8950 O.2   231  SER231     -0.2717
     91  CB         8.7080    4.8090   17.5010 C.3   231  SER231      0.2103
     92  OG         9.0210    6.1920   17.4090 O.3   231  SER231     -0.2182
     93  N          8.4570    2.0590   16.1870 N.am  232  ALA232     -0.1979
     94  CA         7.7550    0.7890   16.3210 C.3   232  ALA232      0.1597
     95  C          8.2430   -0.3130   15.3720 C.2   232  ALA232      0.2287
     96  O          7.8640   -1.4780   15.5280 O.2   232  ALA232     -0.2864
     97  CB         6.2680    1.0190   16.0940 C.3   232  ALA232      0.0319
     98  N         10.4690   -4.2160   17.8880 N.3   236  THR236     -0.1218
     99  CA         9.3800   -5.1670   17.8990 C.3   236  THR236      0.1862
    100  C          9.7420   -6.4370   17.1270 C.2   236  THR236      0.2287
    101  O          9.5850   -7.5540   17.6260 O.2   236  THR236     -0.2866
    102  CB         8.1350   -4.5460   17.2720 C.3   236  THR236      0.1770
    103  OG1        8.4780   -4.0190   15.9820 O.3   236  THR236     -0.2211
    104  CG2        7.5940   -3.4300   18.1320 C.3   236  THR236      0.0375
    105  N          5.0720   -7.5430   22.4880 N.3   279  VAL279     -0.1245
    106  CA         4.4460   -6.4200   23.1630 C.3   279  VAL279      0.1561
    107  C          3.4940   -6.9890   24.2080 C.2   279  VAL279      0.2260
    108  O          2.4600   -7.5710   23.8800 O.2   279  VAL279     -0.2867
    109  CB         3.7160   -5.4930   22.1770 C.3   279  VAL279      0.0252
    110  CG1        3.0140   -4.3780   22.9260 C.3   279  VAL279      0.0019
    111  CG2        4.7200   -4.9030   21.1880 C.3   279  VAL279      0.0019
    112  N         -0.1970   -2.5520   27.1860 N.3   282  PHE282     -0.1241
    113  CA        -0.2980   -1.0940   27.1220 C.3   282  PHE282      0.1605
    114  C         -1.6700   -0.6710   27.6030 C.2   282  PHE282      0.2264
    115  O         -2.4850   -1.5110   27.9980 O.2   282  PHE282     -0.2867
    116  CB        -0.0150   -0.5500   25.7190 C.3   282  PHE282      0.0534
    117  CG        -0.6840   -1.3080   24.6190 C.ar  282  PHE282     -0.0203
    118  CD1       -1.9910   -1.0300   24.2590 C.ar  282  PHE282     -0.0042
    119  CD2        0.0030   -2.2930   23.9310 C.ar  282  PHE282     -0.0042
    120  CE1       -2.6110   -1.7360   23.2380 C.ar  282  PHE282     -0.0003
    121  CE2       -0.6030   -3.0020   22.9140 C.ar  282  PHE282     -0.0003
    122  CZ        -1.9150   -2.7260   22.5640 C.ar  282  PHE282     -0.0000
    123  N         -1.7870   -3.3500   14.5680 N.3   342  CYS342     -0.1235
    124  CA        -0.4800   -3.0510   13.9880 C.3   342  CYS342      0.1677
    125  C         -0.4960   -2.7500   12.4980 C.2   342  CYS342      0.2270
    126  O         -0.7370   -3.6390   11.6900 O.2   342  CYS342     -0.2867
    127  CB         0.4690   -4.2200   14.2090 C.3   342  CYS342      0.0956
    128  SG         2.1160   -3.8540   13.5930 S.3   342  CYS342     -0.0801
    129  N          7.5260   -2.6190   28.4770 N.3   379  THR379     -0.1218
    130  CA         6.4950   -2.9990   27.5160 C.3   379  THR379      0.1862
    131  C          6.8720   -4.2260   26.6900 C.2   379  THR379      0.2287
    132  O          6.0020   -5.0200   26.3350 O.2   379  THR379     -0.2866
    133  CB         6.1970   -1.8400   26.5250 C.3   379  THR379      0.1770
    134  OG1        5.8060   -0.6770   27.2560 O.3   379  THR379     -0.2211
    135  CG2        5.0830   -2.2230   25.5550 C.3   379  THR379      0.0375
@<TRIPOS>BOND
     1   126   125    2
     2    70    71    1
     3    32    30    1
     4   125   124    1
     5    30    29    1
     6    71    72    1
     7    71    74    1
     8   128   127    1
     9    85    82    1
    10    85    86    1
    11    83    82    1
    12    83    84    2
    13    81    72   am
    14    81    82    1
    15    29    31    1
    16    29    26    1
    17   124   127    1
    18   124   123    1
    19    72    73    2
    20    74    75    1
    21    26    25    1
    22    26    27    1
    23    95    96    2
    24    95    94    1
    25    87    88    1
    26    75    76    1
    27   103   102    1
    28    97    94    1
    29    27    28    2
    30    27    33   am
    31    93    94    1
    32    93    89   am
    33    76    77    1
    34    24    23    1
    35    33    34    1
    36    88    89    1
    37    88    91    1
    38    89    90    2
    39   100   101    2
    40   100    99    1
    41    77    78    2
    42    21    22    2
    43    21    20    1
    44   102    99    1
    45   102   104    1
    46    92    91    1
    47    20    23    1
    48    20    19    1
    49    98    99    1
    50    78    79    1
    51    78    80    1
    52    34    37    1
    53    34    35    1
    54    37    38    1
    55    35    36    2
    56    17    16    1
    57    39    38    1
    58    38    40    1
    59    18    16    1
    60    16    15    2
    61    58    57   ar
    62    58    56   ar
    63    57    55   ar
    64    15    14    1
    65   111   109    1
    66    47    45    1
    67    14    13    1
    68    56    54   ar
    69    46    45    1
    70    55    53   ar
    71    45    42    1
    72   109   110    1
    73   109   106    1
    74    13    12    1
    75    12     9    1
    76   105   106    1
    77   122   121   ar
    78   122   120   ar
    79    10    11    2
    80    10     9    1
    81    54    53   ar
    82   121   119   ar
    83    53    52    1
    84    69    68   ar
    85    69    67   ar
    86   106   107    1
    87   120   118   ar
    88     9     8    1
    89    42    41    1
    90    42    43    1
    91     6     5    1
    92    68    66   ar
    93     7     5    1
    94   108   107    2
    95   119   117   ar
    96    67    65   ar
    97   118   117   ar
    98    52    49    1
    99    48    43   am
   100    48    49    1
   101    43    44    2
   102     5     2    1
   103   117   116    1
   104    66    64   ar
   105    49    50    1
   106    65    64   ar
   107   135   133    1
   108     1     2    1
   109   116   113    1
   110    64    63    1
   111     2     3    1
   112   132   131    2
   113    50    51    2
   114   133   134    1
   115   133   130    1
   116   131   130    1
   117     3     4    2
   118   113   112    1
   119   113   114    1
   120    63    60    1
   121   130   129    1
   122   114   115    2
   123    59    60    1
   124    60    61    1
   125    61    62    2
