@<TRIPOS>MOLECULE
tmp/6c3lA00.pdb
 88 87 0 0 0
SMALL
GASTEIGER

@<TRIPOS>ATOM
      1  N        -23.9080   -2.4540   -3.0420 N.3    47  MET47      -0.1230
      2  CA       -22.5480   -2.2820   -2.5400 C.3    47  MET47       0.1702
      3  C        -22.0820   -0.8410   -2.6860 C.2    47  MET47       0.2592
      4  O        -21.4040   -0.3060   -1.8020 O.2    47  MET47      -0.2718
      5  CB       -21.5810   -3.2000   -3.2950 C.3    47  MET47       0.0401
      6  CG       -21.6470   -4.6710   -2.9340 C.3    47  MET47       0.0596
      7  SD       -20.3150   -5.5890   -3.7480 S.3    47  MET47      -0.1393
      8  CE       -18.9390   -5.2460   -2.6570 C.3    47  MET47       0.0692
      9  N        -22.4190   -0.2000   -3.8080 N.am   48  ALA48      -0.1966
     10  CA       -21.9390    1.1550   -4.0540 C.3    48  ALA48       0.1728
     11  C        -22.5630    2.1610   -3.0970 C.2    48  ALA48       0.2616
     12  O        -21.9670    3.2110   -2.8320 O.2    48  ALA48      -0.2715
     13  CB       -22.2060    1.5490   -5.5070 C.3    48  ALA48       0.0334
     14  N        -23.7420    1.8550   -2.5530 N.am   49  CYS49      -0.1954
     15  CA       -24.5130    2.8200   -1.7840 C.3    49  CYS49       0.1843
     16  C        -24.5220    2.5630   -0.2840 C.2    49  CYS49       0.2626
     17  O        -24.8580    3.4800    0.4780 O.2    49  CYS49      -0.2714
     18  CB       -25.9690    2.8330   -2.2690 C.3    49  CYS49       0.0997
     19  SG       -26.1620    3.3760   -3.9720 S.3    49  CYS49      -0.0797
     20  N        -24.1580    1.3620    0.1630 N.am   50  SER50      -0.1936
     21  CA       -24.3920    0.9530    1.5420 C.3    50  SER50       0.2055
     22  C        -23.1570    0.2600    2.0920 C.2    50  SER50       0.2643
     23  O        -22.6440   -0.6840    1.4840 O.2    50  SER50      -0.2714
     24  CB       -25.5980    0.0080    1.6200 C.3    50  SER50       0.2130
     25  OG       -25.5970   -0.7440    2.8230 O.3    50  SER50      -0.2179
     26  N        -22.6930    0.7310    3.2510 N.am   51  GLY51      -0.1954
     27  CA       -21.5690    0.0860    3.9050 C.3    51  GLY51       0.1869
     28  C        -21.9020   -1.2930    4.4310 C.2    51  GLY51       0.2309
     29  O        -21.0230   -2.1560    4.5140 O.2    51  GLY51      -0.2863
     30  N        -21.9210   -3.4370    1.2000 N.3    54  TYR54      -0.1241
     31  CA       -20.5270   -3.5920    0.8030 C.3    54  TYR54       0.1605
     32  C        -19.8420   -4.6570    1.6440 C.2    54  TYR54       0.2264
     33  O        -19.1970   -5.5660    1.1090 O.2    54  TYR54      -0.2867
     34  CB       -19.7670   -2.2690    0.9060 C.3    54  TYR54       0.0534
     35  CG       -18.2850   -2.4520    0.6540 C.ar   54  TYR54      -0.0201
     36  CD1      -17.7740   -2.4400   -0.6380 C.ar   54  TYR54      -0.0009
     37  CD2      -17.3990   -2.6650    1.7070 C.ar   54  TYR54      -0.0009
     38  CE1      -16.4220   -2.6230   -0.8730 C.ar   54  TYR54       0.0417
     39  CE2      -16.0490   -2.8520    1.4810 C.ar   54  TYR54       0.0417
     40  CZ       -15.5680   -2.8290    0.1910 C.ar   54  TYR54       0.1957
     41  OH       -14.2240   -3.0130   -0.0340 O.3    54  TYR54      -0.2866
     42  N        -33.8970    5.6430   -3.0850 N.3    85  PHE85      -0.1241
     43  CA       -32.8600    6.6710   -3.0940 C.3    85  PHE85       0.1605
     44  C        -31.5960    6.1780   -3.7870 C.2    85  PHE85       0.2264
     45  O        -30.9980    6.9000   -4.5950 O.2    85  PHE85      -0.2867
     46  CB       -32.5320    7.1330   -1.6740 C.3    85  PHE85       0.0534
     47  CG       -31.2230    7.8600   -1.5850 C.ar   85  PHE85      -0.0203
     48  CD1      -31.1290    9.1810   -1.9840 C.ar   85  PHE85      -0.0042
     49  CD2      -30.0760    7.2110   -1.1490 C.ar   85  PHE85      -0.0042
     50  CE1      -29.9230    9.8510   -1.9290 C.ar   85  PHE85      -0.0003
     51  CE2      -28.8660    7.8790   -1.0960 C.ar   85  PHE85      -0.0003
     52  CZ       -28.7920    9.2010   -1.4830 C.ar   85  PHE85      -0.0000
     53  N        -25.6390    1.7040    7.0340 N.3   109  GLN109     -0.1231
     54  CA       -24.3570    2.4040    6.9700 C.3   109  GLN109      0.1698
     55  C        -24.2800    3.3080    5.7390 C.2   109  GLN109      0.2592
     56  O        -23.3950    3.1900    4.8910 O.2   109  GLN109     -0.2718
     57  CB       -23.1800    1.4290    7.0550 C.3   109  GLN109      0.0381
     58  CG       -23.2800    0.4650    8.2230 C.3   109  GLN109      0.0905
     59  CD       -22.2250   -0.6220    8.1810 C.2   109  GLN109      0.2608
     60  OE1      -22.4040   -1.7000    8.7500 O.2   109  GLN109     -0.2717
     61  NE2      -21.1160   -0.3430    7.5090 N.am  109  GLN109     -0.0878
     62  N        -25.2490    4.2150    5.6550 N.am  110  MET110     -0.1965
     63  CA       -25.3080    5.2510    4.6290 C.3   110  MET110      0.1736
     64  C        -25.1980    6.5900    5.3580 C.2   110  MET110      0.2616
     65  O        -26.1990    7.2410    5.6620 O.2   110  MET110     -0.2715
     66  CB       -26.6250    5.1200    3.8340 C.3   110  MET110      0.0427
     67  CG       -26.8570    3.7230    3.2520 C.3   110  MET110      0.0599
     68  SD       -28.5200    3.4330    2.6000 S.3   110  MET110     -0.1393
     69  CE       -28.5970    4.6460    1.2860 C.3   110  MET110      0.0692
     70  N        -23.9550    6.9920    5.6490 N.am  111  GLU111     -0.1963
     71  CA       -23.7230    8.1300    6.5380 C.3   111  GLU111      0.1733
     72  C        -24.2790    9.4250    5.9610 C.2   111  GLU111      0.2616
     73  O        -24.8390   10.2480    6.6950 O.2   111  GLU111     -0.2715
     74  CB       -22.2300    8.2790    6.8320 C.3   111  GLU111      0.0429
     75  CG       -21.6030    7.0730    7.4990 C.3   111  GLU111      0.1163
     76  CD       -20.8390    6.2000    6.5250 C.2   111  GLU111      0.3649
     77  OE1      -20.0270    6.7430    5.7470 O.co2 111  GLU111     -0.2457
     78  OE2      -21.0540    4.9700    6.5360 O.co2 111  GLU111     -0.2457
     79  N        -24.1210    9.6310    4.6510 N.am  112  HIS112     -0.1973
     80  CA       -24.6280   10.8480    4.0240 C.3   112  HIS112      0.1656
     81  C        -26.1300   10.9910    4.2370 C.2   112  HIS112      0.2291
     82  O        -26.6230   12.0890    4.5220 O.2   112  HIS112     -0.2864
     83  CB       -24.2910   10.8480    2.5320 C.3   112  HIS112      0.0771
     84  CG       -22.8210   10.8190    2.2430 C.ar  112  HIS112      0.0820
     85  ND1      -21.9990    9.7940    2.6600 N.ar  112  HIS112     -0.2267
     86  CD2      -22.0280   11.6890    1.5760 C.ar  112  HIS112      0.1154
     87  CE1      -20.7620   10.0360    2.2650 C.ar  112  HIS112      0.1986
     88  NE2      -20.7520   11.1790    1.6040 N.ar  112  HIS112     -0.2212
@<TRIPOS>BOND
     1    13    10    1
     2    45    44    2
     3    10     9    1
     4    10    11    1
     5    19    18    1
     6     9     3   am
     7    44    43    1
     8     7     6    1
     9     7     8    1
    10     5     6    1
    11     5     2    1
    12    11    12    2
    13    11    14   am
    14    43    42    1
    15    43    46    1
    16     1     2    1
    17     3     2    1
    18     3     4    2
    19    14    15    1
    20    18    15    1
    21    48    50   ar
    22    48    47   ar
    23    50    52   ar
    24    15    16    1
    25    46    47    1
    26    47    49   ar
    27    52    51   ar
    28    49    51   ar
    29    38    36   ar
    30    38    40   ar
    31    36    35   ar
    32    16    20   am
    33    16    17    2
    34    41    40    1
    35    20    21    1
    36    40    39   ar
    37    35    34    1
    38    35    37   ar
    39    31    34    1
    40    31    30    1
    41    31    32    1
    42    33    32    2
    43    69    68    1
    44    39    37   ar
    45    23    22    2
    46    21    24    1
    47    21    22    1
    48    86    88   ar
    49    86    84   ar
    50    88    87   ar
    51    24    25    1
    52    22    26   am
    53    84    83    1
    54    84    85   ar
    55    87    85   ar
    56    83    80    1
    57    68    67    1
    58    26    27    1
    59    67    66    1
    60    66    63    1
    61    27    28    1
    62    80    81    1
    63    80    79    1
    64    81    82    2
    65    28    29    2
    66    63    64    1
    67    63    62    1
    68    79    72   am
    69    56    55    2
    70    64    70   am
    71    64    65    2
    72    70    71    1
    73    62    55   am
    74    55    54    1
    75    77    76   ar
    76    72    71    1
    77    72    73    2
    78    76    78   ar
    79    76    75    1
    80    71    74    1
    81    74    75    1
    82    54    53    1
    83    54    57    1
    84    57    58    1
    85    61    59   am
    86    59    58    1
    87    59    60    2
