@<TRIPOS>MOLECULE
tmp/6c3pC00.pdb
 111 111 0 0 0
SMALL
GASTEIGER

@<TRIPOS>ATOM
      1  N        203.9660  171.2550  181.7670 N.3     8  LYS8       -0.1245
      2  CA       203.2140  171.8620  182.8540 C.3     8  LYS8        0.1561
      3  C        203.6240  173.3020  183.1230 C.2     8  LYS8        0.2260
      4  O        203.3830  173.8100  184.2210 O.2     8  LYS8       -0.2867
      5  CB       203.3610  171.0220  184.1210 C.3     8  LYS8        0.0271
      6  CG       202.8300  169.6130  183.9530 C.3     8  LYS8        0.0035
      7  CD       201.3320  169.6470  183.6990 C.3     8  LYS8        0.0206
      8  CE       200.7240  168.2550  183.6380 C.3     8  LYS8        0.1093
      9  NZ       201.1040  167.5330  182.3990 N.3     8  LYS8       -0.1314
     10  N        193.8410  173.2400  181.6640 N.3   151  ILE151     -0.1231
     11  CA       194.4800  172.0180  181.1920 C.3   151  ILE151      0.1692
     12  C        194.6250  172.0290  179.6820 C.2   151  ILE151      0.2592
     13  O        193.9200  172.7420  178.9610 O.2   151  ILE151     -0.2718
     14  CB       193.6980  170.7790  181.6590 C.3   151  ILE151      0.0266
     15  CG1      192.2610  170.8490  181.1510 C.3   151  ILE151      0.0019
     16  CG2      193.7720  170.6510  183.1650 C.3   151  ILE151      0.0020
     17  CD1      191.5140  169.5580  181.3050 C.3   151  ILE151      0.0001
     18  N        195.5520  171.2060  179.2020 N.am  152  PHE152     -0.1962
     19  CA       195.8580  171.0860  177.7880 C.3   152  PHE152      0.1771
     20  C        196.1610  169.6310  177.4760 C.2   152  PHE152      0.2620
     21  O        196.9740  169.0030  178.1600 O.2   152  PHE152     -0.2715
     22  CB       197.0590  171.9480  177.4140 C.3   152  PHE152      0.0574
     23  CG       196.8610  173.3950  177.6990 C.ar  152  PHE152     -0.0200
     24  CD1      196.1250  174.1860  176.8430 C.ar  152  PHE152     -0.0042
     25  CD2      197.3980  173.9610  178.8360 C.ar  152  PHE152     -0.0042
     26  CE1      195.9380  175.5180  177.1110 C.ar  152  PHE152     -0.0003
     27  CE2      197.2140  175.2920  179.1110 C.ar  152  PHE152     -0.0003
     28  CZ       196.4820  176.0740  178.2470 C.ar  152  PHE152     -0.0000
     29  N        195.5140  169.1060  176.4420 N.am  153  SER153     -0.1936
     30  CA       195.7380  167.7300  176.0340 C.3   153  SER153      0.2055
     31  C        197.2240  167.4820  175.7950 C.2   153  SER153      0.2643
     32  O        197.9710  168.3630  175.3740 O.2   153  SER153     -0.2714
     33  CB       194.9400  167.4150  174.7730 C.3   153  SER153      0.2130
     34  OG       195.3960  168.1990  173.6850 O.3   153  SER153     -0.2179
     35  N        197.6510  166.2530  176.0740 N.am  154  LYS154     -0.1963
     36  CA       199.0530  165.8930  175.9230 C.3   154  LYS154      0.1728
     37  C        199.4800  165.8540  174.4630 C.2   154  LYS154      0.2616
     38  O        200.6790  165.7730  174.1730 O.2   154  LYS154     -0.2715
     39  CB       199.3120  164.5420  176.6020 C.3   154  LYS154      0.0311
     40  CG       200.7690  164.1110  176.6640 C.3   154  LYS154      0.0038
     41  CD       200.9720  162.9140  177.5750 C.3   154  LYS154      0.0206
     42  CE       200.4340  161.6500  176.9420 C.3   154  LYS154      0.1093
     43  NZ       200.7220  160.4530  177.7680 N.3   154  LYS154     -0.1314
     44  N        198.5300  165.9520  173.5370 N.am  155  HIS155     -0.1973
     45  CA       198.8030  165.8250  172.1120 C.3   155  HIS155      0.1656
     46  C        198.1010  166.9330  171.3490 C.2   155  HIS155      0.2291
     47  O        197.0870  167.4680  171.8090 O.2   155  HIS155     -0.2864
     48  CB       198.3480  164.4650  171.5970 C.3   155  HIS155      0.0771
     49  CG       199.0670  163.3280  172.2340 C.ar  155  HIS155      0.0820
     50  ND1      198.6260  162.7310  173.3940 N.ar  155  HIS155     -0.2267
     51  CD2      200.2110  162.6930  171.8920 C.ar  155  HIS155      0.1154
     52  CE1      199.4610  161.7670  173.7320 C.ar  155  HIS155      0.1986
     53  NE2      200.4330  161.7240  172.8370 N.ar  155  HIS155     -0.2212
     54  N        188.9660  173.7300  183.7830 N.3   174  LEU174     -0.1245
     55  CA       188.2590  172.8430  184.6920 C.3   174  LEU174      0.1561
     56  C        187.4380  173.5690  185.7430 C.2   174  LEU174      0.2260
     57  O        186.4860  172.9850  186.2660 O.2   174  LEU174     -0.2867
     58  CB       189.2450  171.9100  185.3910 C.3   174  LEU174      0.0270
     59  CG       189.9510  170.9260  184.4720 C.3   174  LEU174      0.0019
     60  CD1      190.9440  170.1170  185.2650 C.3   174  LEU174      0.0001
     61  CD2      188.9380  170.0320  183.8190 C.3   174  LEU174      0.0001
     62  N        184.1860  165.5740  180.1520 N.3   299  TYR299     -0.1227
     63  CA       185.5900  165.8120  180.4320 C.3   299  TYR299      0.1736
     64  C        186.4230  164.5470  180.3930 C.2   299  TYR299      0.2596
     65  O        187.6300  164.6300  180.1510 O.2   299  TYR299     -0.2718
     66  CB       185.7330  166.5060  181.7830 C.3   299  TYR299      0.0548
     67  CG       185.6070  168.0000  181.6770 C.ar  299  TYR299     -0.0200
     68  CD1      186.7290  168.7780  181.4430 C.ar  299  TYR299     -0.0009
     69  CD2      184.3720  168.6300  181.7510 C.ar  299  TYR299     -0.0009
     70  CE1      186.6370  170.1360  181.3310 C.ar  299  TYR299      0.0417
     71  CE2      184.2670  169.9980  181.6310 C.ar  299  TYR299      0.0417
     72  CZ       185.4090  170.7540  181.4240 C.ar  299  TYR299      0.1957
     73  OH       185.3250  172.1170  181.3110 O.3   299  TYR299     -0.2866
     74  N        185.8210  163.3870  180.6190 N.am  300  SER300     -0.1938
     75  CA       186.5100  162.1520  180.3080 C.3   300  SER300      0.2055
     76  C        186.8360  162.1210  178.8190 C.2   300  SER300      0.2643
     77  O        186.3240  162.9220  178.0310 O.2   300  SER300     -0.2714
     78  CB       185.6510  160.9520  180.6800 C.3   300  SER300      0.2130
     79  OG       184.5230  160.8840  179.8340 O.3   300  SER300     -0.2179
     80  N        187.7070  161.1850  178.4390 N.am  301  LYS301     -0.1963
     81  CA       188.2700  161.0870  177.0910 C.3   301  LYS301      0.1728
     82  C        188.6360  162.4540  176.5290 C.2   301  LYS301      0.2616
     83  O        188.5140  162.6940  175.3260 O.2   301  LYS301     -0.2715
     84  CB       187.3190  160.3520  176.1270 C.3   301  LYS301      0.0311
     85  CG       186.0310  161.0910  175.7310 C.3   301  LYS301      0.0038
     86  CD       185.2380  160.3060  174.6890 C.3   301  LYS301      0.0206
     87  CE       183.9220  160.9870  174.3310 C.3   301  LYS301      0.1093
     88  NZ       184.1150  162.2930  173.6460 N.3   301  LYS301     -0.1314
     89  N        189.1160  163.3360  177.3980 N.am  302  PHE302     -0.1960
     90  CA       189.3150  164.7420  177.0800 C.3   302  PHE302      0.1771
     91  C        190.1620  164.9500  175.8330 C.2   302  PHE302      0.2620
     92  O        189.7310  165.6110  174.8850 O.2   302  PHE302     -0.2715
     93  CB       189.9650  165.4490  178.2690 C.3   302  PHE302      0.0574
     94  CG       190.2130  166.9110  178.0450 C.ar  302  PHE302     -0.0200
     95  CD1      189.1770  167.8200  178.1100 C.ar  302  PHE302     -0.0042
     96  CD2      191.4890  167.3750  177.7840 C.ar  302  PHE302     -0.0042
     97  CE1      189.4090  169.1630  177.9130 C.ar  302  PHE302     -0.0003
     98  CE2      191.7230  168.7170  177.5840 C.ar  302  PHE302     -0.0003
     99  CZ       190.6810  169.6100  177.6480 C.ar  302  PHE302     -0.0000
    100  N        191.3720  164.4050  175.8350 N.am  303  GLY303     -0.1940
    101  CA       192.2680  164.5750  174.7130 C.3   303  GLY303      0.2014
    102  C        192.2360  163.4010  173.7600 C.2   303  GLY303      0.2638
    103  O        193.0390  163.3390  172.8270 O.2   303  GLY303     -0.2714
    104  N        191.3250  162.4570  173.9910 N.am  304  ASN304     -0.1972
    105  CA       191.1920  161.3210  173.0910 C.3   304  ASN304      0.1688
    106  C        190.8000  161.7900  171.7010 C.2   304  ASN304      0.2292
    107  O        189.8530  162.5600  171.5340 O.2   304  ASN304     -0.2864
    108  CB       190.1770  160.3080  173.6200 C.3   304  ASN304      0.1181
    109  CG       190.7650  159.4010  174.6830 C.2   304  ASN304      0.2629
    110  OD1      190.3650  159.4310  175.8430 O.2   304  ASN304     -0.2716
    111  ND2      191.7220  158.5760  174.2830 N.am  304  ASN304     -0.0877
@<TRIPOS>BOND
     1    46    47    2
     2    46    45    1
     3   107   106    2
     4    48    45    1
     5    48    49    1
     6   106   105    1
     7    51    49   ar
     8    51    53   ar
     9    45    44    1
    10    49    50   ar
    11   103   102    2
    12    53    52   ar
    13   105   108    1
    14   105   104    1
    15    50    52   ar
    16    44    37   am
    17   108   109    1
    18    88    87    1
    19    34    33    1
    20   102   104   am
    21   102   101    1
    22    38    37    2
    23   111   109   am
    24    87    86    1
    25    37    36    1
    26   109   110    2
    27    86    85    1
    28   101   100    1
    29    33    30    1
    30    92    91    2
    31    83    82    2
    32    32    31    2
    33    85    84    1
    34    31    30    1
    35    31    35   am
    36    91   100   am
    37    91    90    1
    38    36    35    1
    39    36    39    1
    40    30    29    1
    41    84    81    1
    42    29    20   am
    43    82    81    1
    44    82    89   am
    45    39    40    1
    46    40    41    1
    47    24    26   ar
    48    24    23   ar
    49    42    41    1
    50    42    43    1
    51    90    89    1
    52    90    93    1
    53    81    80    1
    54    26    28   ar
    55    22    23    1
    56    22    19    1
    57    20    19    1
    58    20    21    2
    59    98    99   ar
    60    98    96   ar
    61    99    97   ar
    62    23    25   ar
    63    96    94   ar
    64    19    18    1
    65    97    95   ar
    66    77    76    2
    67    94    95   ar
    68    94    93    1
    69    28    27   ar
    70    80    76   am
    71    76    75    1
    72    25    27   ar
    73    13    12    2
    74    18    12   am
    75    12    11    1
    76    79    78    1
    77    65    64    2
    78    62    63    1
    79    75    74    1
    80    75    78    1
    81    64    63    1
    82    64    74   am
    83    63    66    1
    84    15    17    1
    85    15    14    1
    86    11    14    1
    87    11    10    1
    88    73    72    1
    89    70    72   ar
    90    70    68   ar
    91    72    71   ar
    92    68    67   ar
    93    71    69   ar
    94    14    16    1
    95    67    69   ar
    96    67    66    1
    97     1     2    1
    98     9     8    1
    99     2     3    1
   100     2     5    1
   101     3     4    2
   102     8     7    1
   103     7     6    1
   104    54    55    1
   105    61    59    1
   106     6     5    1
   107    59    60    1
   108    59    58    1
   109    55    58    1
   110    55    56    1
   111    56    57    2
