@<TRIPOS>MOLECULE
tmp/6c4dB00.pdb
 189 179 0 0 0
SMALL
GASTEIGER

@<TRIPOS>ATOM
      1  N         32.0260   39.2680  -23.6750 N.3    19  VAL19      -0.1245
      2  CA        30.9660   38.3020  -23.4130 C.3    19  VAL19       0.1561
      3  C         29.8950   38.4880  -24.4790 C.2    19  VAL19       0.2260
      4  O         29.5340   39.6170  -24.8150 O.2    19  VAL19      -0.2867
      5  CB        30.3590   38.4670  -22.0050 C.3    19  VAL19       0.0252
      6  CG1       29.1860   37.5160  -21.8060 C.3    19  VAL19       0.0019
      7  CG2       31.4200   38.2130  -20.9440 C.3    19  VAL19       0.0019
      8  N         25.7310   31.6120  -23.4870 N.3    31  ILE31      -0.1231
      9  CA        26.6410   32.7340  -23.2430 C.3    31  ILE31       0.1692
     10  C         28.0550   32.2660  -23.5650 C.2    31  ILE31       0.2592
     11  O         28.4160   31.1210  -23.2790 O.2    31  ILE31      -0.2718
     12  CB        26.6170   33.2070  -21.7690 C.3    31  ILE31       0.0266
     13  CG1       25.2340   33.7480  -21.3800 C.3    31  ILE31       0.0019
     14  CG2       27.6830   34.2720  -21.5200 C.3    31  ILE31       0.0020
     15  CD1       24.8790   35.0930  -21.9890 C.3    31  ILE31       0.0001
     16  N         28.8540   33.1650  -24.1320 N.am   32  MET32      -0.1965
     17  CA        30.2200   32.8540  -24.5380 C.3    32  MET32       0.1736
     18  C         31.1870   33.9130  -24.0240 C.2    32  MET32       0.2616
     19  O         30.8500   35.0910  -23.9670 O.2    32  MET32      -0.2715
     20  CB        30.2930   32.7850  -26.0610 C.3    32  MET32       0.0427
     21  CG        31.6110   32.2610  -26.6020 C.3    32  MET32       0.0599
     22  SD        31.6120   32.1680  -28.4000 S.3    32  MET32      -0.1393
     23  CE        30.4800   30.8090  -28.6760 C.3    32  MET32       0.0692
     24  N         32.3860   33.4780  -23.6510 N.am   33  LYS33      -0.1977
     25  CA        33.4590   34.3760  -23.2330 C.3    33  LYS33       0.1596
     26  C         34.6790   34.0690  -24.0850 C.2    33  LYS33       0.2287
     27  O         35.2900   33.0140  -23.9340 O.2    33  LYS33      -0.2864
     28  CB        33.7760   34.1800  -21.7490 C.3    33  LYS33       0.0298
     29  CG        35.0900   34.7800  -21.2680 C.3    33  LYS33       0.0038
     30  CD        35.1810   36.2740  -21.5170 C.3    33  LYS33       0.0206
     31  CE        36.3920   36.8660  -20.8100 C.3    33  LYS33       0.1093
     32  NZ        36.3130   38.3490  -20.6990 N.3    33  LYS33      -0.1314
     33  N         37.6370   21.0410  -14.6370 N.3    55  MET55      -0.1230
     34  CA        36.5630   21.8220  -14.0250 C.3    55  MET55       0.1702
     35  C         35.1690   21.3430  -14.4350 C.2    55  MET55       0.2592
     36  O         34.1740   21.7070  -13.8040 O.2    55  MET55      -0.2718
     37  CB        36.7320   23.3080  -14.3610 C.3    55  MET55       0.0401
     38  CG        38.0430   23.9130  -13.8760 C.3    55  MET55       0.0596
     39  SD        38.4400   23.5090  -12.1640 S.3    55  MET55      -0.1393
     40  CE        37.0250   24.2080  -11.3230 C.3    55  MET55       0.0692
     41  N         35.0980   20.5260  -15.4800 N.am   56  ASN56      -0.1974
     42  CA        33.8250   19.9810  -15.9410 C.3    56  ASN56       0.1688
     43  C         33.2840   18.8400  -15.0750 C.2    56  ASN56       0.2292
     44  O         32.1100   18.4890  -15.1820 O.2    56  ASN56      -0.2864
     45  CB        33.9550   19.5060  -17.3850 C.3    56  ASN56       0.1181
     46  CG        32.6370   19.0420  -17.9630 C.2    56  ASN56       0.2629
     47  OD1       31.6430   19.7640  -17.9150 O.2    56  ASN56      -0.2716
     48  ND2       32.6180   17.8330  -18.5100 N.am   56  ASN56      -0.0877
     49  N         32.6930   19.0280  -11.9990 N.3    58  LEU58      -0.1245
     50  CA        31.7760   19.6230  -11.0300 C.3    58  LEU58       0.1561
     51  C         30.3760   19.7790  -11.6150 C.2    58  LEU58       0.2260
     52  O         30.0430   20.8050  -12.2130 O.2    58  LEU58      -0.2867
     53  CB        32.3080   20.9670  -10.5340 C.3    58  LEU58       0.0270
     54  CG        33.6320   20.8210   -9.7800 C.3    58  LEU58       0.0019
     55  CD1       34.7660   21.4950  -10.5350 C.3    58  LEU58       0.0001
     56  CD2       33.5250   21.3970   -8.3830 C.3    58  LEU58       0.0001
     57  N         25.0920   24.3600   -9.8350 N.3    63  VAL63      -0.1231
     58  CA        26.4170   24.8280  -10.2490 C.3    63  VAL63       0.1692
     59  C         26.4280   24.9910  -11.7640 C.2    63  VAL63       0.2592
     60  O         25.9410   24.1210  -12.4920 O.2    63  VAL63      -0.2718
     61  CB        27.5310   23.8560   -9.8100 C.3    63  VAL63       0.0266
     62  CG1       28.8850   24.2710  -10.3760 C.3    63  VAL63       0.0020
     63  CG2       27.6000   23.7910   -8.2910 C.3    63  VAL63       0.0020
     64  N         26.9800   26.1080  -12.2320 N.am   64  VAL64      -0.1966
     65  CA        27.0310   26.4040  -13.6630 C.3    64  VAL64       0.1727
     66  C         27.8610   25.3470  -14.3760 C.2    64  VAL64       0.2616
     67  O         28.9630   25.0160  -13.9390 O.2    64  VAL64      -0.2715
     68  CB        27.6230   27.8040  -13.9400 C.3    64  VAL64       0.0290
     69  CG1       27.9380   27.9890  -15.4210 C.3    64  VAL64       0.0023
     70  CG2       26.6590   28.8820  -13.4700 C.3    64  VAL64       0.0023
     71  N         27.3180   24.8200  -15.4700 N.am   65  LYS65      -0.1963
     72  CA        28.0020   23.8020  -16.2590 C.3    65  LYS65       0.1728
     73  C         28.7240   24.4440  -17.4430 C.2    65  LYS65       0.2616
     74  O         28.1390   25.2430  -18.1770 O.2    65  LYS65      -0.2715
     75  CB        27.0050   22.7500  -16.7600 C.3    65  LYS65       0.0311
     76  CG        27.6550   21.4440  -17.1990 C.3    65  LYS65       0.0038
     77  CD        26.7310   20.6190  -18.0870 C.3    65  LYS65       0.0206
     78  CE        27.4500   19.4250  -18.7060 C.3    65  LYS65       0.1093
     79  NZ        27.7650   18.3580  -17.7130 N.3    65  LYS65      -0.1314
     80  N         30.0000   24.1010  -17.6050 N.am   66  LEU66      -0.1977
     81  CA        30.7630   24.4710  -18.7960 C.3    66  LEU66       0.1596
     82  C         30.3030   23.5840  -19.9550 C.2    66  LEU66       0.2287
     83  O         30.6740   22.4130  -20.0310 O.2    66  LEU66      -0.2864
     84  CB        32.2700   24.3010  -18.5430 C.3    66  LEU66       0.0297
     85  CG        33.2440   24.5450  -19.7070 C.3    66  LEU66       0.0022
     86  CD1       33.1860   25.9870  -20.1900 C.3    66  LEU66       0.0001
     87  CD2       34.6660   24.1890  -19.2980 C.3    66  LEU66       0.0001
     88  N         35.2140   30.0540  -23.5970 N.3    78  LEU78      -0.1231
     89  CA        34.4430   29.2050  -22.7040 C.3    78  LEU78       0.1693
     90  C         32.9820   29.4680  -23.0300 C.2    78  LEU78       0.2592
     91  O         32.6100   30.5980  -23.3450 O.2    78  LEU78      -0.2718
     92  CB        34.7220   29.5500  -21.2420 C.3    78  LEU78       0.0284
     93  CG        36.1700   29.4010  -20.7750 C.3    78  LEU78       0.0019
     94  CD1       36.3730   30.0820  -19.4320 C.3    78  LEU78       0.0001
     95  CD2       36.5580   27.9340  -20.7000 C.3    78  LEU78       0.0001
     96  N         32.1600   28.4280  -22.9640 N.am   79  VAL79      -0.1966
     97  CA        30.7440   28.5420  -23.3000 C.3    79  VAL79       0.1727
     98  C         29.9080   27.9060  -22.1990 C.2    79  VAL79       0.2616
     99  O         30.1080   26.7410  -21.8580 O.2    79  VAL79      -0.2715
    100  CB        30.4210   27.8490  -24.6390 C.3    79  VAL79       0.0290
    101  CG1       29.0380   28.2550  -25.1280 C.3    79  VAL79       0.0023
    102  CG2       31.4700   28.1900  -25.6840 C.3    79  VAL79       0.0023
    103  N         28.9710   28.6740  -21.6530 N.am   80  MET80      -0.1977
    104  CA        28.1240   28.2030  -20.5610 C.3    80  MET80       0.1605
    105  C         26.6590   28.4090  -20.8970 C.2    80  MET80       0.2287
    106  O         26.3190   29.1010  -21.8580 O.2    80  MET80      -0.2864
    107  CB        28.4690   28.9270  -19.2530 C.3    80  MET80       0.0413
    108  CG        27.9800   30.3670  -19.1620 C.3    80  MET80       0.0598
    109  SD        28.5720   31.2180  -17.6860 S.3    80  MET80      -0.1393
    110  CE        27.5050   32.6560  -17.6800 C.3    80  MET80       0.0692
    111  N         30.4980   22.0620   -3.9460 N.3   117  LEU117     -0.1245
    112  CA        31.8330   22.5340   -4.3300 C.3   117  LEU117      0.1561
    113  C         32.8920   22.2090   -3.2840 C.2   117  LEU117      0.2260
    114  O         33.9720   21.7190   -3.6140 O.2   117  LEU117     -0.2867
    115  CB        31.8180   24.0430   -4.5960 C.3   117  LEU117      0.0270
    116  CG        31.0560   24.5210   -5.8350 C.3   117  LEU117      0.0019
    117  CD1       31.0720   26.0420   -5.8870 C.3   117  LEU117      0.0001
    118  CD2       31.6310   23.9370   -7.1210 C.3   117  LEU117      0.0001
    119  N         36.7740   22.1480   -3.8230 N.3   122  VAL122     -0.1245
    120  CA        36.8340   23.4400   -4.4920 C.3   122  VAL122      0.1561
    121  C         36.3640   24.5490   -3.5600 C.2   122  VAL122      0.2260
    122  O         35.2070   24.5670   -3.1440 O.2   122  VAL122     -0.2867
    123  CB        35.9580   23.4480   -5.7620 C.3   122  VAL122      0.0252
    124  CG1       36.0240   24.8050   -6.4570 C.3   122  VAL122      0.0019
    125  CG2       36.3990   22.3450   -6.7070 C.3   122  VAL122      0.0019
    126  N         35.5820   28.4440   -3.4200 N.3   124  HIS124     -0.1241
    127  CA        35.2070   29.4560   -4.4160 C.3   124  HIS124      0.1621
    128  C         36.2260   30.5920   -4.4720 C.2   124  HIS124      0.2264
    129  O         36.7600   30.8970   -5.5390 O.2   124  HIS124     -0.2867
    130  CB        33.8150   30.0290   -4.1230 C.3   124  HIS124      0.0745
    131  CG        33.1140   30.5690   -5.3330 C.ar  124  HIS124      0.0817
    132  ND1       33.6500   31.5550   -6.1350 N.ar  124  HIS124     -0.2268
    133  CD2       31.9090   30.2640   -5.8690 C.ar  124  HIS124      0.1154
    134  CE1       32.8100   31.8280   -7.1170 C.ar  124  HIS124      0.1986
    135  NE2       31.7460   31.0580   -6.9780 N.ar  124  HIS124     -0.2212
    136  N         25.6010   28.6180   -9.2470 N.3   142  ILE142     -0.1231
    137  CA        26.7940   29.3320   -8.8080 C.3   142  ILE142      0.1692
    138  C         27.8300   29.3430   -9.9210 C.2   142  ILE142      0.2592
    139  O         28.2230   28.2900  -10.4210 O.2   142  ILE142     -0.2718
    140  CB        27.3930   28.7000   -7.5370 C.3   142  ILE142      0.0266
    141  CG1       26.4310   28.8920   -6.3670 C.3   142  ILE142      0.0019
    142  CG2       28.7410   29.3270   -7.1950 C.3   142  ILE142      0.0020
    143  CD1       26.6480   27.9050   -5.2460 C.3   142  ILE142      0.0001
    144  N         28.2710   30.5460  -10.2770 N.am  143  ALA143     -0.1966
    145  CA        29.2390   30.7660  -11.3430 C.3   143  ALA143      0.1728
    146  C         30.5840   31.2040  -10.7800 C.2   143  ALA143      0.2616
    147  O         30.7060   31.4970   -9.5900 O.2   143  ALA143     -0.2715
    148  CB        28.7180   31.8290  -12.2950 C.3   143  ALA143      0.0334
    149  N         31.5830   31.2440  -11.6580 N.am  144  ASP144     -0.1957
    150  CA        32.9200   31.7380  -11.3360 C.3   144  ASP144      0.1840
    151  C         33.3650   32.6530  -12.4780 C.2   144  ASP144      0.2621
    152  O         34.2910   32.3370  -13.2240 O.2   144  ASP144     -0.2715
    153  CB        33.8930   30.5680  -11.1410 C.3   144  ASP144      0.1450
    154  CG        35.2280   31.0000  -10.5420 C.2   144  ASP144      0.3671
    155  OD1       35.2450   31.5010   -9.3950 O.co2 144  ASP144     -0.2456
    156  OD2       36.2680   30.8200  -11.2130 O.co2 144  ASP144     -0.2456
    157  N         32.6910   33.7940  -12.5960 N.am  145  LEU145     -0.1977
    158  CA        32.8750   34.7110  -13.7310 C.3   145  LEU145      0.1596
    159  C         34.2510   35.3760  -13.7770 C.2   145  LEU145      0.2287
    160  O         34.6910   35.8150  -14.8400 O.2   145  LEU145     -0.2864
    161  CB        31.7900   35.7970  -13.7330 C.3   145  LEU145      0.0297
    162  CG        30.3230   35.3520  -13.7910 C.3   145  LEU145      0.0022
    163  CD1       29.4030   36.5650  -13.7670 C.3   145  LEU145      0.0001
    164  CD2       30.0350   34.4950  -15.0140 C.3   145  LEU145      0.0001
    165  N         36.9930   33.7640  -13.0700 N.3   147  LEU147     -0.1245
    166  CA        37.9420   32.6710  -13.3240 C.3   147  LEU147      0.1561
    167  C         38.9520   32.5010  -12.1870 C.2   147  LEU147      0.2260
    168  O         40.1370   32.2510  -12.4210 O.2   147  LEU147     -0.2867
    169  CB        38.6670   32.8770  -14.6570 C.3   147  LEU147      0.0270
    170  CG        37.8050   32.9660  -15.9170 C.3   147  LEU147      0.0019
    171  CD1       38.6640   33.3650  -17.1090 C.3   147  LEU147      0.0001
    172  CD2       37.0990   31.6450  -16.1820 C.3   147  LEU147      0.0001
    173  N         38.9350   30.0590  -10.0480 N.3   149  SER149     -0.1202
    174  CA        39.2470   28.6240   -9.9720 C.3   149  SER149      0.2020
    175  C         39.8080   28.0360  -11.2830 C.2   149  SER149      0.2618
    176  O         40.0460   26.8290  -11.3650 O.2   149  SER149     -0.2717
    177  CB        37.9980   27.8450   -9.5470 C.3   149  SER149      0.2103
    178  OG        37.5790   28.2190   -8.2440 O.3   149  SER149     -0.2182
    179  N         40.0200   28.8870  -12.2900 N.am  150  PHE150     -0.1975
    180  CA        40.5730   28.4840  -13.5890 C.3   150  PHE150      0.1639
    181  C         41.9310   29.1490  -13.8100 C.2   150  PHE150      0.2290
    182  O         42.0060   30.2390  -14.3750 O.2   150  PHE150     -0.2864
    183  CB        39.6410   28.9240  -14.7220 C.3   150  PHE150      0.0560
    184  CG        38.4020   28.0870  -14.8690 C.ar  150  PHE150     -0.0200
    185  CD1       37.3430   28.2280  -13.9860 C.ar  150  PHE150     -0.0042
    186  CD2       38.2810   27.1850  -15.9250 C.ar  150  PHE150     -0.0042
    187  CE1       36.1950   27.4680  -14.1370 C.ar  150  PHE150     -0.0003
    188  CE2       37.1380   26.4240  -16.0820 C.ar  150  PHE150     -0.0003
    189  CZ        36.0920   26.5640  -15.1870 C.ar  150  PHE150     -0.0000
@<TRIPOS>BOND
     1    23    22    1
     2    22    21    1
     3    21    20    1
     4    20    17    1
     5   102   100    1
     6   101   100    1
     7     4     3    2
     8   100    97    1
     9    17    16    1
    10    17    18    1
    11     3     2    1
    12    16    10   am
    13    26    27    2
    14    26    25    1
    15    18    19    2
    16    18    24   am
    17     1     2    1
    18    24    25    1
    19    88    89    1
    20    10    11    2
    21    10     9    1
    22     8     9    1
    23     2     5    1
    24    91    90    2
    25    97    96    1
    26    97    98    1
    27     9    12    1
    28    25    28    1
    29    90    96   am
    30    90    89    1
    31    89    92    1
    32    98    99    2
    33    98   103   am
    34     5     6    1
    35     5     7    1
    36    15    13    1
    37   106   105    2
    38    12    14    1
    39    12    13    1
    40    28    29    1
    41   103   104    1
    42    30    29    1
    43    30    31    1
    44    92    93    1
    45   105   104    1
    46    31    32    1
    47    93    95    1
    48    93    94    1
    49   104   107    1
    50    86    85    1
    51    83    82    2
    52    82    81    1
    53    85    87    1
    54    85    84    1
    55   107   108    1
    56   108   109    1
    57    81    84    1
    58    81    80    1
    59    78    77    1
    60    78    79    1
    61    48    46   am
    62    74    73    2
    63    77    76    1
    64    46    47    2
    65    46    45    1
    66   109   110    1
    67    80    73   am
    68    73    72    1
    69    45    42    1
    70    76    75    1
    71   171   170    1
    72    75    72    1
    73    72    71    1
    74   172   170    1
    75   188   186   ar
    76   188   189   ar
    77    42    41    1
    78    42    43    1
    79   186   184   ar
    80   170   169    1
    81    41    35   am
    82    71    66   am
    83    69    68    1
    84   189   187   ar
    85    44    43    2
    86   164   162    1
    87   184   183    1
    88   184   185   ar
    89   160   159    2
    90   183   180    1
    91   169   166    1
    92    33    34    1
    93    35    34    1
    94    35    36    2
    95    66    67    2
    96    66    65    1
    97   182   181    2
    98    37    34    1
    99    37    38    1
   100   187   185   ar
   101    68    65    1
   102    68    70    1
   103    38    39    1
   104   181   180    1
   105   162   163    1
   106   162   161    1
   107   159   158    1
   108   161   158    1
   109   158   157    1
   110    65    64    1
   111   180   179    1
   112   166   165    1
   113   166   167    1
   114   152   151    2
   115   157   151   am
   116    60    59    2
   117   151   150    1
   118   168   167    2
   119   148   145    1
   120   179   175   am
   121    64    59   am
   122    52    51    2
   123    39    40    1
   124    49    50    1
   125    59    58    1
   126   149   150    1
   127   149   146   am
   128    51    50    1
   129   176   175    2
   130   145   146    1
   131   145   144    1
   132   150   153    1
   133   175   174    1
   134   156   154   ar
   135   153   154    1
   136    50    53    1
   137   146   147    2
   138   154   155   ar
   139    55    54    1
   140    53    54    1
   141   139   138    2
   142    62    61    1
   143   144   138   am
   144    58    57    1
   145    58    61    1
   146   173   174    1
   147   174   177    1
   148   138   137    1
   149    61    63    1
   150    54    56    1
   151   177   178    1
   152   136   137    1
   153   137   140    1
   154   140   142    1
   155   140   141    1
   156   118   116    1
   157   134   135   ar
   158   134   132   ar
   159   135   133   ar
   160   125   123    1
   161   124   123    1
   162   141   143    1
   163   132   131   ar
   164   117   116    1
   165   133   131   ar
   166   116   115    1
   167   123   120    1
   168   129   128    2
   169   131   130    1
   170   115   112    1
   171   120   119    1
   172   120   121    1
   173   128   127    1
   174   127   130    1
   175   127   126    1
   176   112   111    1
   177   112   113    1
   178   114   113    2
   179   121   122    2
