@<TRIPOS>MOLECULE
tmp/6c4qA00.pdb
 76 72 0 0 0
SMALL
GASTEIGER

@<TRIPOS>ATOM
      1  N        -14.7140   27.6460   19.7660 N.3    36  PRO36      -0.2116
      2  CA       -14.7750   26.1960   19.7100 C.3    36  PRO36       0.1372
      3  C        -15.0490   25.7680   18.2760 C.2    36  PRO36       0.2244
      4  O        -15.9210   26.3490   17.6020 O.2    36  PRO36      -0.2868
      5  CB       -15.9370   25.8500   20.6420 C.3    36  PRO36       0.0268
      6  CG       -16.0580   27.0350   21.5500 C.3    36  PRO36       0.0207
      7  CD       -15.7500   28.1930   20.6500 C.3    36  PRO36       0.0892
      8  N        -16.6130   23.3580   17.1130 N.3    37  VAL37      -0.1245
      9  CA       -18.0130   22.9320   16.8970 C.3    37  VAL37       0.1561
     10  C        -18.9310   24.1180   16.5730 C.2    37  VAL37       0.2260
     11  O        -20.0820   23.9110   16.1870 O.2    37  VAL37      -0.2867
     12  CB       -18.6210   22.1620   18.0890 C.3    37  VAL37       0.0252
     13  CG1      -17.9340   20.8110   18.2700 C.3    37  VAL37       0.0019
     14  CG2      -18.6240   22.9930   19.3810 C.3    37  VAL37       0.0019
     15  N        -19.2130   23.5730   10.6030 N.3    41  LEU41      -0.1245
     16  CA       -18.9110   22.3020    9.9580 C.3    41  LEU41       0.1561
     17  C        -20.0310   21.2990   10.1860 C.2    41  LEU41       0.2260
     18  O        -20.6970   21.2990   11.2320 O.2    41  LEU41      -0.2867
     19  CB       -17.6280   21.7190   10.5640 C.3    41  LEU41       0.0270
     20  CG       -16.4060   22.6250   10.4030 C.3    41  LEU41       0.0019
     21  CD1      -15.2960   22.1280   11.3060 C.3    41  LEU41       0.0001
     22  CD2      -15.9690   22.6920    8.9600 C.3    41  LEU41       0.0001
     23  N        -16.4070   17.0270    9.8540 N.3    46  ALA46      -0.1245
     24  CA       -15.5040   16.6640   10.9520 C.3    46  ALA46       0.1562
     25  C        -14.7710   15.3490   10.6550 C.2    46  ALA46       0.2260
     26  O        -13.5790   15.2320   10.9230 O.2    46  ALA46      -0.2867
     27  CB       -16.2540   16.6020   12.2620 C.3    46  ALA46       0.0290
     28  N         -6.6120   11.7690   15.5180 N.3    60  LEU60      -0.1245
     29  CA        -7.0580   12.6530   16.5800 C.3    60  LEU60       0.1561
     30  C         -8.1630   12.0290   17.4540 C.2    60  LEU60       0.2260
     31  O         -9.2220   11.6640   16.9220 O.2    60  LEU60      -0.2867
     32  CB        -7.5500   13.9280   15.9080 C.3    60  LEU60       0.0270
     33  CG        -7.9850   15.0530   16.8140 C.3    60  LEU60       0.0019
     34  CD1       -6.8390   15.4820   17.7240 C.3    60  LEU60       0.0001
     35  CD2       -8.5140   16.2190   15.9880 C.3    60  LEU60       0.0001
     36  N         -9.0730   16.3330   21.1220 N.3    65  ALA65      -0.1231
     37  CA        -9.7370   17.3750   20.3570 C.3    65  ALA65       0.1694
     38  C        -10.5690   18.2850   21.2660 C.2    65  ALA65       0.2592
     39  O        -10.4660   19.5130   21.1770 O.2    65  ALA65      -0.2718
     40  CB       -10.6000   16.7580   19.2590 C.3    65  ALA65       0.0304
     41  N        -11.3720   17.7060   22.1550 N.am   66  PHE66      -0.1976
     42  CA       -12.1950   18.5310   23.0210 C.3    66  PHE66       0.1639
     43  C        -11.4010   19.1870   24.1440 C.2    66  PHE66       0.2290
     44  O        -11.8570   20.1830   24.7040 O.2    66  PHE66      -0.2864
     45  CB       -13.4300   17.7940   23.4970 C.3    66  PHE66       0.0560
     46  CG       -14.4840   17.6970   22.4370 C.ar   66  PHE66      -0.0200
     47  CD1      -15.3520   18.7520   22.2110 C.ar   66  PHE66      -0.0042
     48  CD2      -14.5590   16.5970   21.6140 C.ar   66  PHE66      -0.0042
     49  CE1      -16.3150   18.6720   21.2340 C.ar   66  PHE66      -0.0003
     50  CE2      -15.5250   16.5070   20.6360 C.ar   66  PHE66      -0.0003
     51  CZ       -16.4060   17.5470   20.4450 C.ar   66  PHE66      -0.0000
     52  N         -8.5530   20.5530   23.4510 N.3    68  HIS68      -0.1227
     53  CA        -7.9020   21.6430   22.7010 C.3    68  HIS68       0.1737
     54  C         -8.8820   22.0500   21.6050 C.2    68  HIS68       0.2438
     55  O         -8.6380   21.8340   20.4150 O.2    68  HIS68      -0.2733
     56  CB        -6.5860   21.1350   22.0900 C.3    68  HIS68       0.0758
     57  CG        -5.6690   20.5400   23.1080 C.ar   68  HIS68       0.0818
     58  ND1       -5.8210   19.2530   23.5830 N.ar   68  HIS68      -0.2268
     59  CD2       -4.6360   21.0730   23.7890 C.ar   68  HIS68       0.1154
     60  CE1       -4.9140   19.0290   24.5290 C.ar   68  HIS68       0.1986
     61  NE2       -4.1770   20.1120   24.6590 N.ar   68  HIS68      -0.2212
     62  N        -10.0190   22.6390   22.0050 N.am   69  PRO69      -0.2729
     63  CA       -11.1730   22.7100   21.1160 C.3    69  PRO69       0.1401
     64  C        -11.2240   23.8650   20.1490 C.2    69  PRO69       0.2269
     65  O        -12.2540   24.0510   19.5110 O.2    69  PRO69      -0.2865
     66  CB       -12.3380   22.7660   22.1080 C.3    69  PRO69       0.0296
     67  CG       -11.7720   23.5700   23.2470 C.3    69  PRO69       0.0237
     68  CD       -10.3650   23.0600   23.3800 C.3    69  PRO69       0.0939
     69  N         -5.6940   23.4180   19.1120 N.3    74  LEU74      -0.1245
     70  CA        -5.5700   22.1240   18.4540 C.3    74  LEU74       0.1561
     71  C         -4.3010   22.0680   17.6190 C.2    74  LEU74       0.2260
     72  O         -3.5610   21.0850   17.6510 O.2    74  LEU74      -0.2867
     73  CB        -6.7820   21.8400   17.5750 C.3    74  LEU74       0.0270
     74  CG        -6.7680   20.4600   16.9100 C.3    74  LEU74       0.0019
     75  CD1       -6.8540   19.3410   17.9310 C.3    74  LEU74       0.0001
     76  CD2       -7.8680   20.3410   15.8730 C.3    74  LEU74       0.0001
@<TRIPOS>BOND
     1    22    20    1
     2    23    24    1
     3    16    17    1
     4    16    19    1
     5    16    15    1
     6    17    18    2
     7    20    19    1
     8    20    21    1
     9    25    26    2
    10    25    24    1
    11    24    27    1
    12    28    29    1
    13    76    74    1
    14    32    29    1
    15    32    33    1
    16    35    33    1
    17    11    10    2
    18    10     9    1
    19    29    30    1
    20    33    34    1
    21     9     8    1
    22     9    12    1
    23    74    73    1
    24    74    75    1
    25    31    30    2
    26    73    70    1
    27     4     3    2
    28    71    72    2
    29    71    70    1
    30    12    13    1
    31    12    14    1
    32     3     2    1
    33    70    69    1
    34    40    37    1
    35    65    64    2
    36     2     1    1
    37     2     5    1
    38     1     7    1
    39    64    63    1
    40    37    36    1
    41    37    38    1
    42    55    54    2
    43    51    50   ar
    44    51    49   ar
    45    50    48   ar
    46     5     6    1
    47     7     6    1
    48    63    62    1
    49    63    66    1
    50    39    38    2
    51    49    47   ar
    52    38    41   am
    53    54    62   am
    54    54    53    1
    55    48    46   ar
    56    62    68    1
    57    56    53    1
    58    56    57    1
    59    66    67    1
    60    41    42    1
    61    47    46   ar
    62    46    45    1
    63    53    52    1
    64    42    45    1
    65    42    43    1
    66    57    58   ar
    67    57    59   ar
    68    67    68    1
    69    58    60   ar
    70    59    61   ar
    71    43    44    2
    72    60    61   ar
