@<TRIPOS>MOLECULE
tmp/6c4tA00.pdb
 184 172 0 0 0
SMALL
GASTEIGER

@<TRIPOS>ATOM
      1  N         51.8490    9.1300    9.9090 N.3     7  ILE7       -0.1231
      2  CA        52.4920   10.4400    9.8150 C.3     7  ILE7        0.1692
      3  C         53.9300   10.2310    9.3360 C.2     7  ILE7        0.2593
      4  O         54.7670    9.6900   10.0690 O.2     7  ILE7       -0.2718
      5  CB        52.4450   11.1750   11.1590 C.3     7  ILE7        0.0266
      6  CG1       51.0840   11.8530   11.3280 C.3     7  ILE7        0.0019
      7  CG2       53.5850   12.1930   11.2870 C.3     7  ILE7        0.0020
      8  CD1       50.8810   12.4650   12.7000 C.3     7  ILE7        0.0001
      9  N         54.2190   10.6880    8.1120 N.am    8  GLY8       -0.1942
     10  CA        55.4810   10.4590    7.4160 C.3     8  GLY8        0.2014
     11  C         55.1050    9.8390    6.0880 C.2     8  GLY8        0.2640
     12  O         54.1000    9.1360    5.9690 O.2     8  GLY8       -0.2714
     13  N         55.8790   10.1540    5.0570 N.am    9  THR9       -0.1936
     14  CA        55.6810    9.5660    3.7390 C.3     9  THR9        0.2028
     15  C         56.9850    9.0540    3.1560 C.2     9  THR9        0.2643
     16  O         57.0720    8.8150    1.9490 O.2     9  THR9       -0.2714
     17  CB        55.0640   10.5400    2.7500 C.3     9  THR9        0.1808
     18  OG1       55.7080   11.8150    2.8590 O.3     9  THR9       -0.2208
     19  CG2       53.6190   10.7300    3.0600 C.3     9  THR9        0.0379
     20  N         58.0020    8.8590    3.9750 N.am   10  GLY10      -0.1940
     21  CA        59.2090    8.3080    3.4480 C.3    10  GLY10       0.1999
     22  C         59.1540    6.8000    3.3400 C.2    10  GLY10       0.2481
     23  O         58.1090    6.1470    3.4720 O.2    10  GLY10      -0.2729
     24  N         60.3340    6.2190    3.1240 N.am   11  PRO11      -0.2715
     25  CA        60.4170    4.7560    2.9400 C.3    11  PRO11       0.1536
     26  C         60.0260    3.9530    4.1720 C.2    11  PRO11       0.2598
     27  O         59.5390    2.8260    4.0350 O.2    11  PRO11      -0.2715
     28  CB        61.8890    4.5330    2.5670 C.3    11  PRO11       0.0310
     29  CG        62.6220    5.8300    3.0240 C.3    11  PRO11       0.0237
     30  CD        61.6060    6.9210    2.8730 C.3    11  PRO11       0.0939
     31  N         60.2740    4.4660    5.3700 N.am   12  VAL12      -0.1978
     32  CA        59.8190    3.7820    6.5740 C.3    12  VAL12       0.1596
     33  C         58.2930    3.7590    6.6250 C.2    12  VAL12       0.2287
     34  O         57.6760    2.7140    6.8940 O.2    12  VAL12      -0.2864
     35  CB        60.4200    4.4590    7.8160 C.3    12  VAL12       0.0276
     36  CG1       59.6670    4.0890    9.1090 C.3    12  VAL12       0.0022
     37  CG2       61.8980    4.1360    7.9080 C.3    12  VAL12       0.0022
     38  N         50.0450   11.0400    5.7340 N.3    31  VAL31      -0.1231
     39  CA        50.2440   12.4820    5.6470 C.3    31  VAL31       0.1692
     40  C         51.7190   12.8450    5.6950 C.2    31  VAL31       0.2593
     41  O         52.4490   12.4300    6.5970 O.2    31  VAL31      -0.2718
     42  CB        49.4740   13.2310    6.7580 C.3    31  VAL31       0.0266
     43  CG1       49.8960   12.7620    8.1370 C.3    31  VAL31       0.0020
     44  CG2       49.6750   14.7060    6.5770 C.3    31  VAL31       0.0020
     45  N         52.1390   13.6550    4.7430 N.am   32  GLY32      -0.1942
     46  CA        53.4490   14.2620    4.7980 C.3    32  GLY32       0.2014
     47  C         53.4510   15.7750    4.9930 C.2    32  GLY32       0.2638
     48  O         52.7970   16.3090    5.8870 O.2    32  GLY32      -0.2714
     49  N         54.2800   16.4610    4.2130 N.am   33  ARG33      -0.1977
     50  CA        54.3200   17.9180    4.2010 C.3    33  ARG33       0.1597
     51  C         54.6620   18.3590    2.7870 C.2    33  ARG33       0.2287
     52  O         55.5970   19.1300    2.5570 O.2    33  ARG33      -0.2864
     53  CB        55.3310   18.4760    5.2010 C.3    33  ARG33       0.0334
     54  CG        56.6500   17.8270    5.0940 C.3    33  ARG33       0.0492
     55  CD        57.6750   18.5640    5.9140 C.3    33  ARG33       0.2205
     56  NE        58.9380   17.8430    5.9860 N.pl3  33  ARG33      -0.0865
     57  CZ        59.9370   18.1790    6.7860 C.cat  33  ARG33       0.5346
     58  NH1       61.0440   17.4490    6.7890 N.pl3  33  ARG33       0.1354
     59  NH2       59.8310   19.2500    7.5720 N.pl3  33  ARG33       0.1354
     60  N         57.9400   20.9730    1.3040 N.3    37  SER37      -0.1217
     61  CA        59.0550   20.0550    1.2330 C.3    37  SER37       0.1889
     62  C         59.0310   19.4450   -0.1430 C.2    37  SER37       0.2288
     63  O         58.0980   18.7090   -0.4630 O.2    37  SER37      -0.2866
     64  CB        58.9420   18.9690    2.2900 C.3    37  SER37       0.2089
     65  OG        59.8730   17.9210    2.0450 O.3    37  SER37      -0.2183
     66  N         60.5940   17.0470   -1.1820 N.3    39  LYS39      -0.1231
     67  CA        60.5610   15.6010   -1.0540 C.3    39  LYS39       0.1693
     68  C         59.1250   15.1060   -0.9460 C.2    39  LYS39       0.2592
     69  O         58.6670   14.2990   -1.7630 O.2    39  LYS39      -0.2718
     70  CB        61.3810   15.1680    0.1550 C.3    39  LYS39       0.0285
     71  CG        62.8340   15.5380    0.0300 C.3    39  LYS39       0.0035
     72  CD        63.6660   15.1430    1.2750 C.3    39  LYS39       0.0206
     73  CE        63.4650   13.6390    1.6890 C.3    39  LYS39       0.1093
     74  NZ        64.3460   13.2440    2.8760 N.3    39  LYS39      -0.1314
     75  N         58.3920   15.5930    0.0610 N.am   40  SER40      -0.1952
     76  CA        56.9910   15.1980    0.2070 C.3    40  SER40       0.1924
     77  C         56.1520   15.5530   -1.0330 C.2    40  SER40       0.2314
     78  O         55.2080   14.8400   -1.3420 O.2    40  SER40      -0.2863
     79  CB        56.3910   15.7950    1.4910 C.3    40  SER40       0.2116
     80  OG        56.5170   14.8780    2.6050 O.3    40  SER40      -0.2180
     81  N         49.7720   18.0220    7.3010 N.3    77  VAL77      -0.1245
     82  CA        49.1760   17.6150    8.5700 C.3    77  VAL77       0.1561
     83  C         47.9070   18.3970    8.8290 C.2    77  VAL77       0.2260
     84  O         46.9630   17.8750    9.4180 O.2    77  VAL77      -0.2867
     85  CB        50.1640   17.7800    9.7270 C.3    77  VAL77       0.0252
     86  CG1       49.5300   17.2550   11.0300 C.3    77  VAL77       0.0019
     87  CG2       51.3990   17.0030    9.4220 C.3    77  VAL77       0.0019
     88  N         55.9040    7.7530   11.9570 N.3    90  ALA90      -0.1231
     89  CA        56.9780    7.2550   11.1150 C.3    90  ALA90       0.1694
     90  C         57.8830    8.3930   10.6470 C.2    90  ALA90       0.2592
     91  O         58.6250    8.2340    9.6770 O.2    90  ALA90      -0.2718
     92  CB        56.3930    6.4860    9.9290 C.3    90  ALA90       0.0304
     93  N         57.7980    9.5540   11.3120 N.am   91  CYS91      -0.1956
     94  CA        58.6370   10.7180   11.0440 C.3    91  CYS91       0.1843
     95  C         59.8550   10.6980   11.9790 C.2    91  CYS91       0.2626
     96  O         60.0860    9.7230   12.7080 O.2    91  CYS91      -0.2714
     97  CB        57.8190   11.9940   11.1850 C.3    91  CYS91       0.0997
     98  SG        57.1830   12.3620   12.8470 S.3    91  CYS91      -0.0797
     99  N         60.6740   11.7500   11.9470 N.am   92  THR92      -0.1936
    100  CA        61.8440   11.8020   12.8190 C.3    92  THR92       0.2028
    101  C         61.4260   12.3390   14.1760 C.2    92  THR92       0.2642
    102  O         60.4170   13.0420   14.2970 O.2    92  THR92      -0.2714
    103  CB        62.9570   12.6520   12.2100 C.3    92  THR92       0.1808
    104  OG1       62.5220   14.0010   12.0960 O.3    92  THR92      -0.2208
    105  CG2       63.2990   12.1280   10.8190 C.3    92  THR92       0.0379
    106  N         62.1630   11.9310   15.2160 N.am   93  ALA93      -0.1977
    107  CA        61.6710   12.1360   16.5740 C.3    93  ALA93       0.1597
    108  C         61.5270   13.6090   16.8890 C.2    93  ALA93       0.2287
    109  O         60.6520   13.9850   17.6750 O.2    93  ALA93      -0.2864
    110  CB        62.5880   11.4540   17.5890 C.3    93  ALA93       0.0319
    111  N         60.2540   15.8660   15.3030 N.3    95  ALA95      -0.1245
    112  CA        59.0420   16.4480   14.7500 C.3    95  ALA95       0.1562
    113  C         57.7590   15.9140   15.4040 C.2    95  ALA95       0.2260
    114  O         56.6640   16.3550   15.0320 O.2    95  ALA95      -0.2867
    115  CB        59.0100   16.2110   13.2360 C.3    95  ALA95       0.0290
    116  N         55.9010   19.0130   16.7900 N.3    98  ASP98      -0.1225
    117  CA        55.4810   19.9470   15.7560 C.3    98  ASP98       0.1805
    118  C         54.2600   19.4270   14.9920 C.2    98  ASP98       0.2598
    119  O         53.3600   20.2040   14.6610 O.2    98  ASP98      -0.2718
    120  CB        56.6430   20.2430   14.7960 C.3    98  ASP98       0.1424
    121  CG        56.3060   21.3520   13.7710 C.2    98  ASP98       0.3668
    122  OD1       55.8680   22.4550   14.2060 O.co2  98  ASP98      -0.2456
    123  OD2       56.4880   21.1380   12.5370 O.co2  98  ASP98      -0.2456
    124  N         54.1860   18.1160   14.7440 N.am   99  THR99      -0.1953
    125  CA        53.1700   17.5900   13.8380 C.3    99  THR99       0.1897
    126  C         51.8740   17.2580   14.5680 C.2    99  THR99       0.2313
    127  O         50.7960   17.5730   14.0700 O.2    99  THR99      -0.2863
    128  CB        53.6810   16.3510   13.0620 C.3    99  THR99       0.1794
    129  OG1       53.8220   15.2210   13.9290 O.3    99  THR99      -0.2208
    130  CG2       55.0310   16.6040   12.4000 C.3    99  THR99       0.0378
    131  N         49.6180   20.3030   15.1810 N.3   102  GLN102     -0.1245
    132  CA        48.8560   20.7560   14.0160 C.3   102  GLN102      0.1566
    133  C         47.5910   19.9490   13.7570 C.2   102  GLN102      0.2260
    134  O         46.8220   20.2980   12.8550 O.2   102  GLN102     -0.2867
    135  CB        49.7280   20.7070   12.7740 C.3   102  GLN102      0.0367
    136  CG        50.8650   21.6700   12.8610 C.3   102  GLN102      0.0905
    137  CD        51.8000   21.5390   11.6960 C.2   102  GLN102      0.2608
    138  OE1       51.3920   21.5990   10.5210 O.2   102  GLN102     -0.2717
    139  NE2       53.0690   21.3110   12.0090 N.am  102  GLN102     -0.0878
    140  N         60.6980    5.4540   15.4560 N.3   118  SER118     -0.1217
    141  CA        62.1170    5.7440   15.6590 C.3   118  SER118      0.1889
    142  C         62.2300    6.7480   16.7810 C.2   118  SER118      0.2288
    143  O         62.7510    7.8420   16.5900 O.2   118  SER118     -0.2866
    144  CB        62.7610    6.2910   14.3980 C.3   118  SER118      0.2089
    145  OG        62.5180    5.4270   13.2930 O.3   118  SER118     -0.2183
    146  N         63.4280    1.3690   14.1630 N.3   146  TYR146     -0.1241
    147  CA        62.8010    0.8530   12.9660 C.3   146  TYR146      0.1605
    148  C         63.3000   -0.5610   12.6650 C.2   146  TYR146      0.2264
    149  O         64.4150   -0.9480   13.0480 O.2   146  TYR146     -0.2867
    150  CB        63.1300    1.7930   11.8200 C.3   146  TYR146      0.0534
    151  CG        62.6010    1.3560   10.5170 C.ar  146  TYR146     -0.0201
    152  CD1       61.2690    1.1000   10.3710 C.ar  146  TYR146     -0.0009
    153  CD2       63.4300    1.2270    9.4120 C.ar  146  TYR146     -0.0009
    154  CE1       60.7750    0.7060    9.2440 C.ar  146  TYR146      0.0417
    155  CE2       62.9230    0.8180    8.2300 C.ar  146  TYR146      0.0417
    156  CZ        61.5620    0.5710    8.1630 C.ar  146  TYR146      0.1957
    157  OH        60.9490    0.1410    7.0230 O.3   146  TYR146     -0.2866
    158  N         65.2670    0.4490    4.6870 N.3   150  THR150     -0.1218
    159  CA        64.6160    0.6090    3.4030 C.3   150  THR150      0.1862
    160  C         64.9130    1.9940    2.8670 C.2   150  THR150      0.2287
    161  O         65.1780    2.9360    3.6110 O.2   150  THR150     -0.2866
    162  CB        63.0760    0.3090    3.4480 C.3   150  THR150      0.1770
    163  OG1       62.3100    1.4780    3.2510 O.3   150  THR150     -0.2211
    164  CG2       62.6780   -0.3230    4.7060 C.3   150  THR150      0.0375
    165  N         71.0500   14.8150    8.6480 N.3   356  ARG356     -0.1245
    166  CA        70.4520   14.0830    9.7610 C.3   356  ARG356      0.1563
    167  C         71.4540   13.8920   10.8820 C.2   356  ARG356      0.2260
    168  O         71.1640   14.1200   12.0580 O.2   356  ARG356     -0.2867
    169  CB        69.9350   12.7330    9.2630 C.3   356  ARG356      0.0307
    170  CG        69.6380   11.6810   10.3470 C.3   356  ARG356      0.0489
    171  CD        68.8580   10.4510    9.7910 C.3   356  ARG356      0.2205
    172  NE        67.5890   10.8910    9.1990 N.pl3 356  ARG356     -0.0865
    173  CZ        66.4710   10.1590    9.0970 C.cat 356  ARG356      0.5346
    174  NH1       66.4380    8.8850    9.5790 N.pl3 356  ARG356      0.1354
    175  NH2       65.3830   10.7220    8.5080 N.pl3 356  ARG356      0.1354
    176  N         69.9280   15.2640   14.0910 N.3   360  GLU360     -0.1245
    177  CA        69.0700   14.4430   14.9580 C.3   360  GLU360      0.1567
    178  C         69.7480   14.1360   16.2940 C.2   360  GLU360      0.2260
    179  O         69.0570   13.9540   17.2980 O.2   360  GLU360     -0.2867
    180  CB        68.6470   13.1220   14.2730 C.3   360  GLU360      0.0388
    181  CG        69.5500   11.8660   14.6510 C.3   360  GLU360      0.1160
    182  CD        69.0900   10.5010   14.0900 C.2   360  GLU360      0.3649
    183  OE1       67.8860   10.3600   13.6930 O.co2 360  GLU360     -0.2457
    184  OE2       69.9560    9.5620   14.1080 O.co2 360  GLU360     -0.2457
@<TRIPOS>BOND
     1    69    68    2
     2    78    77    2
     3    66    67    1
     4    67    68    1
     5    67    70    1
     6    77    76    1
     7    68    75   am
     8    63    62    2
     9    62    61    1
    10    71    70    1
    11    71    72    1
    12    75    76    1
    13    76    79    1
    14    61    60    1
    15    61    64    1
    16    72    73    1
    17    79    80    1
    18    73    74    1
    19    16    15    2
    20    65    64    1
    21    52    51    2
    22    28    25    1
    23    28    29    1
    24    17    18    1
    25    17    19    1
    26    17    14    1
    27    51    50    1
    28   160   159    1
    29   160   161    2
    30    30    29    1
    31    30    24    1
    32    25    24    1
    33    25    26    1
    34    24    22   am
    35    15    14    1
    36    15    20   am
    37   163   162    1
    38    22    21    1
    39    22    23    2
    40   159   162    1
    41   159   158    1
    42   162   164    1
    43    21    20    1
    44    14    13    1
    45    27    26    2
    46    26    31   am
    47    50    49    1
    48    50    53    1
    49    49    47   am
    50    45    46    1
    51    45    40   am
    52    46    47    1
    53    47    48    2
    54    13    11   am
    55    54    53    1
    56    54    55    1
    57    31    32    1
    58    39    40    1
    59    39    38    1
    60    39    42    1
    61    40    41    2
    62    55    56    1
    63    12    11    2
    64    56    57    2
    65    11    10    1
    66    32    33    1
    67    32    35    1
    68    44    42    1
    69    33    34    2
    70    42    43    1
    71    57    58    1
    72    57    59    1
    73   157   156    1
    74    81    82    1
    75    10     9    1
    76    35    37    1
    77    35    36    1
    78     9     3   am
    79   156   155   ar
    80   156   154   ar
    81   155   153   ar
    82   175   173    1
    83    82    83    1
    84    82    85    1
    85   165   166    1
    86    83    84    2
    87   173   172    2
    88   173   174    1
    89   172   171    1
    90   154   152   ar
    91   169   166    1
    92   169   170    1
    93     3     2    1
    94     3     4    2
    95   153   151   ar
    96    87    85    1
    97    91    90    2
    98    85    86    1
    99   166   167    1
   100   171   170    1
   101     2     1    1
   102     2     5    1
   103    92    89    1
   104   152   151   ar
   105   151   150    1
   106   138   137    2
   107    90    89    1
   108    90    93   am
   109   105   103    1
   110   167   168    2
   111    94    97    1
   112    94    93    1
   113    94    95    1
   114    89    88    1
   115     5     7    1
   116     5     6    1
   117    97    98    1
   118     6     8    1
   119   137   139   am
   120   137   136    1
   121   150   147    1
   122    99    95   am
   123    99   100    1
   124    95    96    2
   125   104   103    1
   126   103   100    1
   127   130   128    1
   128   123   121   ar
   129   148   147    1
   130   148   149    2
   131   135   136    1
   132   135   132    1
   133   100   101    1
   134   134   133    2
   135   147   146    1
   136   128   125    1
   137   128   129    1
   138   115   112    1
   139   145   144    1
   140   183   182   ar
   141   133   132    1
   142   121   122   ar
   143   121   120    1
   144   125   126    1
   145   125   124    1
   146   132   131    1
   147   127   126    2
   148   182   184   ar
   149   182   181    1
   150   176   177    1
   151   101   102    2
   152   101   106   am
   153   180   181    1
   154   180   177    1
   155   144   141    1
   156   119   118    2
   157   124   118   am
   158   112   111    1
   159   112   113    1
   160   120   117    1
   161   177   178    1
   162   118   117    1
   163   114   113    2
   164   106   107    1
   165   140   141    1
   166   141   142    1
   167   117   116    1
   168   178   179    2
   169   107   108    1
   170   107   110    1
   171   143   142    2
   172   108   109    2
