@<TRIPOS>MOLECULE
tmp/6c55A01.pdb
 76 73 0 0 0
SMALL
GASTEIGER

@<TRIPOS>ATOM
      1  N         22.2640   13.3550   86.3810 N.3    81  ASP81      -0.1239
      2  CA        22.8270   12.1790   87.0560 C.3    81  ASP81       0.1674
      3  C         24.2820   12.4030   87.4740 C.2    81  ASP81       0.2266
      4  O         24.7310   11.8880   88.5050 O.2    81  ASP81      -0.2867
      5  CB        22.7060   10.9520   86.1470 C.3    81  ASP81       0.1410
      6  CG        21.2550   10.5390   85.9190 C.2    81  ASP81       0.3668
      7  OD1       20.5590   10.1940   86.9190 O.co2  81  ASP81      -0.2456
      8  OD2       20.8020   10.5880   84.7450 O.co2  81  ASP81      -0.2456
      9  N         15.8650    7.6260   88.3530 N.3   106  HIS106     -0.1241
     10  CA        16.8120    6.8310   87.5800 C.3   106  HIS106      0.1621
     11  C         17.7180    6.1530   88.5940 C.2   106  HIS106      0.2264
     12  O         18.1650    6.8070   89.5420 O.2   106  HIS106     -0.2867
     13  CB        17.6150    7.7320   86.6170 C.3   106  HIS106      0.0745
     14  CG        18.4960    7.0010   85.6500 C.ar  106  HIS106      0.0817
     15  ND1       18.2480    5.7140   85.2250 N.ar  106  HIS106     -0.2268
     16  CD2       19.6220    7.3980   85.0050 C.ar  106  HIS106      0.1154
     17  CE1       19.1810    5.3480   84.3650 C.ar  106  HIS106      0.1986
     18  NE2       20.0300    6.3480   84.2170 N.ar  106  HIS106     -0.2212
     19  N          9.6230    7.5270   85.3360 N.3   128  PRO128     -0.2102
     20  CA         8.7170    7.6000   84.1750 C.3   128  PRO128      0.1504
     21  C          9.4240    7.2180   82.8750 C.2   128  PRO128      0.2576
     22  O         10.5680    7.6070   82.6200 O.2   128  PRO128     -0.2718
     23  CB         8.2640    9.0650   84.1650 C.3   128  PRO128      0.0282
     24  CG         8.4520    9.5240   85.5940 C.3   128  PRO128      0.0208
     25  CD         9.6900    8.7920   86.0770 C.3   128  PRO128      0.0893
     26  N          8.7240    6.4350   82.0570 N.am  129  LYS129     -0.1966
     27  CA         9.2520    5.9470   80.7800 C.3   129  LYS129      0.1728
     28  C          8.8760    6.9100   79.6510 C.2   129  LYS129      0.2617
     29  O          8.1980    6.5550   78.6930 O.2   129  LYS129     -0.2715
     30  CB         8.7390    4.5340   80.4970 C.3   129  LYS129      0.0311
     31  CG         9.2150    3.4710   81.4780 C.3   129  LYS129      0.0038
     32  CD        10.7280    3.2390   81.3460 C.3   129  LYS129      0.0206
     33  CE        11.4300    3.7280   82.5970 C.3   129  LYS129      0.1093
     34  NZ        12.9220    3.6920   82.5570 N.3   129  LYS129     -0.1314
     35  N          9.3200    8.1620   79.7960 N.am  130  GLY130     -0.1941
     36  CA         9.0290    9.1960   78.8320 C.3   130  GLY130      0.1998
     37  C          9.5800   10.5340   79.2670 C.2   130  GLY130      0.2480
     38  O          9.9030   10.7370   80.4430 O.2   130  GLY130     -0.2729
     39  N          9.6890   11.4800   78.3320 N.am  131  PRO131     -0.2726
     40  CA        10.2610   12.7910   78.6700 C.3   131  PRO131      0.1402
     41  C          9.3800   13.5360   79.6550 C.2   131  PRO131      0.2269
     42  O          8.1510   13.4460   79.6130 O.2   131  PRO131     -0.2865
     43  CB        10.3200   13.5230   77.3210 C.3   131  PRO131      0.0296
     44  CG         9.2770   12.8680   76.4970 C.3   131  PRO131      0.0237
     45  CD         9.2190   11.4200   76.9380 C.3   131  PRO131      0.0939
     46  N         16.9430    1.3170   81.0860 N.3   189  ASP189     -0.1239
     47  CA        16.7980    2.7190   80.7160 C.3   189  ASP189      0.1674
     48  C         17.9630    3.1830   79.8420 C.2   189  ASP189      0.2266
     49  O         17.7570    3.8470   78.8220 O.2   189  ASP189     -0.2867
     50  CB        16.6810    3.5940   81.9630 C.3   189  ASP189      0.1410
     51  CG        16.3930    5.0360   81.6200 C.2   189  ASP189      0.3668
     52  OD1       15.2110    5.3690   81.4010 O.co2 189  ASP189     -0.2456
     53  OD2       17.3490    5.8190   81.5310 O.co2 189  ASP189     -0.2456
     54  N         17.5990    4.3580   75.6370 N.3   193  GLU193     -0.1245
     55  CA        18.0060    5.6400   75.0630 C.3   193  GLU193      0.1567
     56  C         19.1830    5.4720   74.1070 C.2   193  GLU193      0.2260
     57  O         19.2290    6.1150   73.0520 O.2   193  GLU193     -0.2867
     58  CB        18.3380    6.6500   76.1670 C.3   193  GLU193      0.0388
     59  CG        19.3640    6.1870   77.1950 C.3   193  GLU193      0.1160
     60  CD        19.2190    6.9130   78.5330 C.2   193  GLU193      0.3649
     61  OE1       20.2510    7.1740   79.1890 O.co2 193  GLU193     -0.2457
     62  OE2       18.0680    7.2320   78.9130 O.co2 193  GLU193     -0.2457
     63  N         15.9140    4.7060   71.2910 N.3   197  LEU197     -0.1231
     64  CA        15.0720    5.9070   71.3520 C.3   197  LEU197      0.1693
     65  C         15.8020    7.1790   70.9250 C.2   197  LEU197      0.2592
     66  O         15.1890    8.0870   70.3480 O.2   197  LEU197     -0.2718
     67  CB        14.5420    6.1010   72.7720 C.3   197  LEU197      0.0284
     68  CG        13.6970    4.9660   73.3610 C.3   197  LEU197      0.0019
     69  CD1       13.3070    5.2990   74.7990 C.3   197  LEU197      0.0001
     70  CD2       12.4590    4.7140   72.4880 C.3   197  LEU197      0.0001
     71  N         17.0760    7.3080   71.2770 N.am  198  CYS198     -0.1970
     72  CA        17.8680    8.4790   70.9300 C.3   198  CYS198      0.1712
     73  C         18.9660    8.1190   69.9420 C.2   198  CYS198      0.2296
     74  O         19.0520    8.7170   68.8690 O.2   198  CYS198     -0.2864
     75  CB        18.4980    9.0980   72.1800 C.3   198  CYS198      0.0983
     76  SG        17.3190    9.7430   73.3740 S.3   198  CYS198     -0.0798
@<TRIPOS>BOND
     1    74    73    2
     2    73    72    1
     3    66    65    2
     4    65    71   am
     5    65    64    1
     6    72    71    1
     7    72    75    1
     8    63    64    1
     9    64    67    1
    10    75    76    1
    11    70    68    1
    12    67    68    1
    13    57    56    2
    14    68    69    1
    15    56    55    1
    16    55    54    1
    17    55    58    1
    18    58    59    1
    19    44    45    1
    20    44    43    1
    21    45    39    1
    22    59    60    1
    23    43    40    1
    24    39    40    1
    25    39    37   am
    26    60    62   ar
    27    60    61   ar
    28    40    41    1
    29    29    28    2
    30    49    48    2
    31    36    37    1
    32    36    35    1
    33    37    38    2
    34    42    41    2
    35    28    35   am
    36    28    27    1
    37    48    47    1
    38    30    27    1
    39    30    31    1
    40    47    46    1
    41    47    50    1
    42    27    26    1
    43    32    31    1
    44    32    33    1
    45    52    51   ar
    46    53    51   ar
    47    51    50    1
    48    26    21   am
    49    34    33    1
    50    22    21    2
    51    21    20    1
    52    23    20    1
    53    23    24    1
    54    20    19    1
    55    18    17   ar
    56    18    16   ar
    57    17    15   ar
    58     8     6   ar
    59    16    14   ar
    60    15    14   ar
    61    19    25    1
    62    24    25    1
    63    14    13    1
    64     6     5    1
    65     6     7   ar
    66     5     2    1
    67     1     2    1
    68    13    10    1
    69     2     3    1
    70     3     4    2
    71    10     9    1
    72    10    11    1
    73    11    12    2
