@<TRIPOS>MOLECULE
tmp/6c55A02.pdb
 74 68 0 0 0
SMALL
GASTEIGER

@<TRIPOS>ATOM
      1  N          9.0940   11.6200   53.9810 N.3   225  GLU225     -0.1245
      2  CA         9.1470   10.1620   54.0500 C.3   225  GLU225      0.1567
      3  C          9.8660    9.6810   55.2990 C.2   225  GLU225      0.2260
      4  O          9.5060    8.6360   55.8550 O.2   225  GLU225     -0.2867
      5  CB         9.8210    9.5770   52.8010 C.3   225  GLU225      0.0388
      6  CG         8.9120    9.5500   51.5830 C.3   225  GLU225      0.1160
      7  CD         7.7200    8.6180   51.7610 C.2   225  GLU225      0.3649
      8  OE1        7.8370    7.5980   52.4850 O.co2 225  GLU225     -0.2457
      9  OE2        6.6580    8.9180   51.1770 O.co2 225  GLU225     -0.2457
     10  N          6.3120   11.0460   58.1270 N.3   229  GLU229     -0.1245
     11  CA         5.5920    9.7690   58.1120 C.3   229  GLU229      0.1567
     12  C          6.0020    8.8800   59.2800 C.2   229  GLU229      0.2260
     13  O          5.2500    7.9790   59.6620 O.2   229  GLU229     -0.2867
     14  CB         5.8200    9.0280   56.7920 C.3   229  GLU229      0.0388
     15  CG         5.3650    9.7920   55.5330 C.3   229  GLU229      0.1160
     16  CD         4.4630    8.9750   54.6080 C.2   229  GLU229      0.3649
     17  OE1        3.2490    8.8810   54.8730 O.co2 229  GLU229     -0.2457
     18  OE2        4.9730    8.4220   53.6100 O.co2 229  GLU229     -0.2457
     19  N          3.6020    9.2710   61.9910 N.3   232  LEU232     -0.1231
     20  CA         2.3190    8.6300   61.7070 C.3   232  LEU232      0.1693
     21  C          2.3890    7.1130   61.9030 C.2   232  LEU232      0.2591
     22  O          1.4350    6.4990   62.4040 O.2   232  LEU232     -0.2718
     23  CB         1.8690    8.9860   60.2820 C.3   232  LEU232      0.0284
     24  CG         1.8210   10.4880   59.9530 C.3   232  LEU232      0.0019
     25  CD1        1.3310   10.7480   58.5500 C.3   232  LEU232      0.0001
     26  CD2        0.9660   11.2720   60.9850 C.3   232  LEU232      0.0001
     27  N          3.5030    6.4790   61.5220 N.am  233  ILE233     -0.1980
     28  CA         3.5540    5.0250   61.6540 C.3   233  ILE233      0.1595
     29  C          3.7180    4.6350   63.1240 C.2   233  ILE233      0.2287
     30  O          3.1260    3.6530   63.5920 O.2   233  ILE233     -0.2864
     31  CB         4.6590    4.4180   60.7610 C.3   233  ILE233      0.0276
     32  CG1        4.6480    2.8910   60.8650 C.3   233  ILE233      0.0022
     33  CG2        6.0490    4.9020   61.1530 C.3   233  ILE233      0.0022
     34  CD1        5.7980    2.2260   60.1380 C.3   233  ILE233      0.0001
     35  N          0.4870    4.7040   64.9640 N.3   236  LEU236     -0.1245
     36  CA        -0.3070    3.4990   64.7130 C.3   236  LEU236      0.1561
     37  C          0.1300    2.3450   65.6060 C.2   236  LEU236      0.2260
     38  O         -0.7150    1.6040   66.1220 O.2   236  LEU236     -0.2867
     39  CB        -0.2150    3.0920   63.2390 C.3   236  LEU236      0.0270
     40  CG        -0.7930    4.0860   62.2240 C.3   236  LEU236      0.0019
     41  CD1       -0.3020    3.7600   60.8290 C.3   236  LEU236      0.0001
     42  CD2       -2.3110    4.0590   62.2790 C.3   236  LEU236      0.0001
     43  N         -3.4490   -0.2720   57.9860 N.3   248  SER248     -0.1202
     44  CA        -3.4870    1.0940   57.4840 C.3   248  SER248      0.2020
     45  C         -2.6370    1.3150   56.2420 C.2   248  SER248      0.2619
     46  O         -2.9070    2.2630   55.4880 O.2   248  SER248     -0.2717
     47  CB        -3.0440    2.0690   58.5740 C.3   248  SER248      0.2103
     48  OG        -3.8390    1.8980   59.7310 O.3   248  SER248     -0.2182
     49  N         -1.6360    0.4690   56.0080 N.am  249  ILE249     -0.1965
     50  CA        -0.6900    0.6620   54.9120 C.3   249  ILE249      0.1727
     51  C         -1.1380   -0.1690   53.7160 C.2   249  ILE249      0.2616
     52  O         -1.9970   -1.0510   53.8470 O.2   249  ILE249     -0.2715
     53  CB         0.7380    0.2900   55.3510 C.3   249  ILE249      0.0290
     54  CG1        0.8320   -1.2240   55.5850 C.3   249  ILE249      0.0022
     55  CG2        1.1250    1.0560   56.6270 C.3   249  ILE249      0.0023
     56  CD1        2.2030   -1.6860   56.0500 C.3   249  ILE249      0.0001
     57  N         -0.5620    0.1020   52.5450 N.am  250  SER250     -0.1950
     58  CA        -0.8730   -0.6900   51.3690 C.3   250  SER250      0.1924
     59  C         -0.1240   -2.0220   51.3970 C.2   250  SER250      0.2314
     60  O          0.8380   -2.2160   52.1500 O.2   250  SER250     -0.2863
     61  CB        -0.5120    0.0740   50.0960 C.3   250  SER250      0.2116
     62  OG         0.8970    0.2280   50.0300 O.3   250  SER250     -0.2180
     63  N          1.7180   -2.9370   49.0040 N.3   252  THR252     -0.1203
     64  CA         3.0450   -2.5920   48.5130 C.3   252  THR252      0.1994
     65  C          3.9900   -2.2890   49.6650 C.2   252  THR252      0.2617
     66  O          5.1100   -2.8040   49.7100 O.2   252  THR252     -0.2717
     67  CB         2.9400   -1.3950   47.5610 C.3   252  THR252      0.1784
     68  OG1        1.8690   -1.6110   46.6260 O.3   252  THR252     -0.2211
     69  CG2        4.2360   -1.1920   46.8110 C.3   252  THR252      0.0376
     70  N          3.5390   -1.4820   50.6290 N.am  253  ALA253     -0.1979
     71  CA         4.3820   -1.1270   51.7650 C.3   253  ALA253      0.1597
     72  C          4.6420   -2.3290   52.6600 C.2   253  ALA253      0.2287
     73  O          5.7640   -2.5110   53.1510 O.2   253  ALA253     -0.2864
     74  CB         3.7420    0.0080   52.5750 C.3   253  ALA253      0.0319
@<TRIPOS>BOND
     1    68    67    1
     2    69    67    1
     3    67    64    1
     4    64    63    1
     5    64    65    1
     6    65    66    2
     7    65    70   am
     8    62    61    1
     9    61    58    1
    10    70    71    1
    11     9     7   ar
    12    58    59    1
    13    58    57    1
    14    59    60    2
    15     6     7    1
    16     6     5    1
    17     7     8   ar
    18    71    74    1
    19    71    72    1
    20    57    51   am
    21    72    73    2
    22     5     2    1
    23    18    16   ar
    24    51    52    2
    25    51    50    1
    26     1     2    1
    27     2     3    1
    28    16    17   ar
    29    16    15    1
    30    50    53    1
    31    50    49    1
    32     3     4    2
    33    53    54    1
    34    53    55    1
    35    46    45    2
    36    15    14    1
    37    54    56    1
    38    49    45   am
    39    45    44    1
    40    14    11    1
    41    44    43    1
    42    44    47    1
    43    11    10    1
    44    11    12    1
    45    25    24    1
    46    47    48    1
    47    12    13    2
    48    24    23    1
    49    24    26    1
    50    34    32    1
    51    23    20    1
    52    31    32    1
    53    31    33    1
    54    31    28    1
    55    41    40    1
    56    27    28    1
    57    27    21   am
    58    28    29    1
    59    20    21    1
    60    20    19    1
    61    21    22    2
    62    40    42    1
    63    40    39    1
    64    29    30    2
    65    39    36    1
    66    36    35    1
    67    36    37    1
    68    37    38    2
