@<TRIPOS>MOLECULE
tmp/6c56B00.pdb
 91 90 0 0 0
SMALL
GASTEIGER

@<TRIPOS>ATOM
      1  N        -64.8110   36.5690  -35.7880 N.3    40  PRO40      -0.2116
      2  CA       -64.1140   37.8390  -35.4250 C.3    40  PRO40       0.1372
      3  C        -63.1130   38.2740  -36.5040 C.2    40  PRO40       0.2244
      4  O        -62.2490   37.4500  -36.8420 O.2    40  PRO40      -0.2868
      5  CB       -63.3480   37.4630  -34.1270 C.3    40  PRO40       0.0268
      6  CG       -64.0520   36.2740  -33.5470 C.3    40  PRO40       0.0207
      7  CD       -64.8330   35.5960  -34.6590 C.3    40  PRO40       0.0892
      8  N        -59.3530   37.2950  -36.2220 N.3    43  LYS43      -0.1245
      9  CA       -59.0970   35.8670  -36.3020 C.3    43  LYS43       0.1561
     10  C        -59.2180   35.4190  -37.7390 C.2    43  LYS43       0.2260
     11  O        -58.4310   34.5820  -38.2080 O.2    43  LYS43      -0.2867
     12  CB       -60.1200   35.0710  -35.5040 C.3    43  LYS43       0.0271
     13  CG       -59.9950   35.2220  -34.0220 C.3    43  LYS43       0.0035
     14  CD       -59.2900   34.0650  -33.3910 C.3    43  LYS43       0.0206
     15  CE       -59.1010   34.2730  -31.8990 C.3    43  LYS43       0.1093
     16  NZ       -57.9180   35.1430  -31.6110 N.3    43  LYS43      -0.1314
     17  N        -54.4850   31.2030  -30.6790 N.3   105  ASP105     -0.1225
     18  CA       -54.6260   30.7990  -29.2920 C.3   105  ASP105      0.1805
     19  C        -55.8050   29.8100  -28.9970 C.2   105  ASP105      0.2598
     20  O        -56.4360   29.8790  -27.9690 O.2   105  ASP105     -0.2718
     21  CB       -54.5440   32.0630  -28.4580 C.3   105  ASP105      0.1424
     22  CG       -54.3730   31.7940  -26.9810 C.2   105  ASP105      0.3668
     23  OD1      -53.5680   30.9000  -26.6930 O.co2 105  ASP105     -0.2456
     24  OD2      -55.0320   32.4750  -26.1130 O.co2 105  ASP105     -0.2456
     25  N        -56.0630   28.8690  -29.8950 N.am  106  HIS106     -0.1962
     26  CA       -57.0050   27.7560  -29.6970 C.3   106  HIS106      0.1772
     27  C        -56.2870   26.3920  -29.9170 C.2   106  HIS106      0.2462
     28  O        -55.8150   26.0980  -31.0320 O.2   106  HIS106     -0.2730
     29  CB       -58.1280   27.8850  -30.7220 C.3   106  HIS106      0.0785
     30  CG       -59.3200   27.0180  -30.4720 C.ar  106  HIS106      0.0821
     31  ND1      -59.2310   25.6880  -30.1350 N.ar  106  HIS106     -0.2267
     32  CD2      -60.6500   27.2900  -30.5670 C.ar  106  HIS106      0.1154
     33  CE1      -60.4520   25.1820  -30.0040 C.ar  106  HIS106      0.1986
     34  NE2      -61.3350   26.1340  -30.2820 N.ar  106  HIS106     -0.2212
     35  N        -56.2130   25.5270  -28.8850 N.am  107  PRO107     -0.2716
     36  CA       -55.4600   24.2670  -29.0080 C.3   107  PRO107      0.1536
     37  C        -55.8800   23.2580  -30.1050 C.2   107  PRO107      0.2598
     38  O        -55.0460   22.5510  -30.6470 O.2   107  PRO107     -0.2715
     39  CB       -55.5670   23.6690  -27.6250 C.3   107  PRO107      0.0310
     40  CG       -56.6370   24.4280  -26.9440 C.3   107  PRO107      0.0237
     41  CD       -56.6100   25.7720  -27.5020 C.3   107  PRO107      0.0939
     42  N        -57.1450   23.2140  -30.4580 N.am  108  ASP108     -0.1972
     43  CA       -57.5950   22.3940  -31.5870 C.3   108  ASP108      0.1709
     44  C        -57.1500   22.8940  -32.9480 C.2   108  ASP108      0.2293
     45  O        -57.3160   22.1860  -33.9260 O.2   108  ASP108     -0.2864
     46  CB       -59.1190   22.3070  -31.5850 C.3   108  ASP108      0.1436
     47  CG       -59.6530   21.6850  -30.3430 C.2   108  ASP108      0.3671
     48  OD1      -58.9080   21.0690  -29.5650 O.co2 108  ASP108     -0.2456
     49  OD2      -60.8510   21.7910  -30.1390 O.co2 108  ASP108     -0.2456
     50  N        -63.9550   26.7730  -35.8060 N.3   163  LEU163     -0.1231
     51  CA       -63.5670   26.7530  -34.3750 C.3   163  LEU163      0.1693
     52  C        -63.9560   28.0310  -33.6630 C.2   163  LEU163      0.2592
     53  O        -64.1370   27.9910  -32.4600 O.2   163  LEU163     -0.2718
     54  CB       -62.0690   26.5600  -34.1680 C.3   163  LEU163      0.0284
     55  CG       -61.5110   25.2000  -34.5610 C.3   163  LEU163      0.0019
     56  CD1      -59.9960   25.2090  -34.4070 C.3   163  LEU163      0.0001
     57  CD2      -62.0900   24.0950  -33.7260 C.3   163  LEU163      0.0001
     58  N        -64.0690   29.1250  -34.4290 N.am  164  PHE164     -0.1962
     59  CA       -64.3790   30.4550  -33.9870 C.3   164  PHE164      0.1771
     60  C        -65.7940   30.8660  -34.4140 C.2   164  PHE164      0.2620
     61  O        -66.0430   32.0340  -34.7690 O.2   164  PHE164     -0.2715
     62  CB       -63.3160   31.4120  -34.5500 C.3   164  PHE164      0.0574
     63  CG       -61.9150   31.0480  -34.1060 C.ar  164  PHE164     -0.0200
     64  CD1      -61.4470   31.4420  -32.8560 C.ar  164  PHE164     -0.0042
     65  CD2      -61.0770   30.2440  -34.9140 C.ar  164  PHE164     -0.0042
     66  CE1      -60.1890   31.0630  -32.4170 C.ar  164  PHE164     -0.0003
     67  CE2      -59.8090   29.8680  -34.4890 C.ar  164  PHE164     -0.0003
     68  CZ       -59.3540   30.2790  -33.2450 C.ar  164  PHE164     -0.0000
     69  N        -66.7230   29.9090  -34.3140 N.am  165  SER165     -0.1936
     70  CA       -68.1170   30.1000  -34.6460 C.3   165  SER165      0.2055
     71  C        -69.0260   29.2720  -33.7220 C.2   165  SER165      0.2643
     72  O        -68.6710   28.2400  -33.1620 O.2   165  SER165     -0.2714
     73  CB       -68.3130   29.7080  -36.1060 C.3   165  SER165      0.2130
     74  OG       -69.5650   30.0880  -36.6330 O.3   165  SER165     -0.2179
     75  N        -70.2280   29.7680  -33.5220 N.am  166  ASP166     -0.1971
     76  CA       -71.2150   28.9270  -32.8760 C.3   166  ASP166      0.1709
     77  C        -72.1570   28.2660  -33.9210 C.2   166  ASP166      0.2293
     78  O        -73.1070   27.5760  -33.5250 O.2   166  ASP166     -0.2864
     79  CB       -71.9230   29.7260  -31.7660 C.3   166  ASP166      0.1436
     80  CG       -70.9260   30.4130  -30.7800 C.2   166  ASP166      0.3671
     81  OD1      -69.7200   30.0880  -30.7930 O.co2 166  ASP166     -0.2456
     82  OD2      -71.3650   31.2990  -30.0080 O.co2 166  ASP166     -0.2456
     83  N        -72.3230   25.3280  -35.9380 N.3   168  LYS168     -0.1245
     84  CA       -71.7030   23.9930  -35.9600 C.3   168  LYS168      0.1561
     85  C        -72.2420   23.0140  -37.0290 C.2   168  LYS168      0.2260
     86  O        -71.7440   21.8740  -37.1040 O.2   168  LYS168     -0.2867
     87  CB       -71.7170   23.3380  -34.5570 C.3   168  LYS168      0.0271
     88  CG       -70.9740   24.0820  -33.4380 C.3   168  LYS168      0.0035
     89  CD       -69.5480   24.4870  -33.8360 C.3   168  LYS168      0.0206
     90  CE       -68.5220   24.6120  -32.6810 C.3   168  LYS168      0.1093
     91  NZ       -67.6780   25.8610  -32.7390 N.3   168  LYS168     -0.1314
@<TRIPOS>BOND
     1    11    10    2
     2    10     9    1
     3    86    85    2
     4    85    84    1
     5     4     3    2
     6    74    73    1
     7     3     2    1
     8     9     8    1
     9     9    12    1
    10    73    70    1
    11    84    83    1
    12    84    87    1
    13    50    51    1
    14     1     2    1
    15     1     7    1
    16    12    13    1
    17     2     5    1
    18    65    67   ar
    19    65    63   ar
    20    61    60    2
    21     7     6    1
    22    70    69    1
    23    70    71    1
    24    55    56    1
    25    55    54    1
    26    55    57    1
    27    87    88    1
    28    62    63    1
    29    62    59    1
    30    67    68   ar
    31    58    59    1
    32    58    52   am
    33    60    69   am
    34    60    59    1
    35    51    54    1
    36    51    52    1
    37     5     6    1
    38    63    64   ar
    39    13    14    1
    40    45    44    2
    41    77    78    2
    42    77    76    1
    43    89    88    1
    44    89    90    1
    45    71    75   am
    46    71    72    2
    47    52    53    2
    48    75    76    1
    49    14    15    1
    50    68    66   ar
    51    44    43    1
    52    76    79    1
    53    64    66   ar
    54    91    90    1
    55    15    16    1
    56    79    80    1
    57    43    46    1
    58    43    42    1
    59    46    47    1
    60    28    27    2
    61    81    80   ar
    62    80    82   ar
    63    29    30    1
    64    29    26    1
    65    17    18    1
    66    38    37    2
    67    32    30   ar
    68    32    34   ar
    69    30    31   ar
    70    42    37   am
    71    47    49   ar
    72    47    48   ar
    73    34    33   ar
    74    31    33   ar
    75    37    36    1
    76    27    26    1
    77    27    35   am
    78    25    26    1
    79    25    19   am
    80    18    19    1
    81    18    21    1
    82    36    35    1
    83    36    39    1
    84    19    20    2
    85    35    41    1
    86    21    22    1
    87    39    40    1
    88    41    40    1
    89    22    23   ar
    90    22    24   ar
