@<TRIPOS>MOLECULE
tmp/6c57B00.pdb
 211 200 0 0 0
SMALL
GASTEIGER

@<TRIPOS>ATOM
      1  N        -55.8150   34.8540  -58.2440 N.3    28  LYS28      -0.1245
      2  CA       -55.7610   34.3600  -56.8340 C.3    28  LYS28       0.1561
      3  C        -55.7810   35.5530  -55.7990 C.2    28  LYS28       0.2260
      4  O        -55.3050   35.4670  -54.6550 O.2    28  LYS28      -0.2867
      5  CB       -54.5920   33.3880  -56.6130 C.3    28  LYS28       0.0271
      6  CG       -54.7390   32.0780  -57.4010 C.3    28  LYS28       0.0035
      7  CD       -53.4990   31.1810  -57.1920 C.3    28  LYS28       0.0206
      8  CE       -53.5140   30.2950  -58.4110 C.3    28  LYS28       0.1093
      9  NZ       -52.4480   29.2810  -58.4420 N.3    28  LYS28      -0.1314
     10  N        -51.0690   27.8050  -48.6970 N.3    60  HIS60      -0.1241
     11  CA       -51.3570   27.5600  -50.1190 C.3    60  HIS60       0.1621
     12  C        -50.1460   27.6660  -51.0240 C.2    60  HIS60       0.2264
     13  O        -49.8150   26.7380  -51.7630 O.2    60  HIS60      -0.2867
     14  CB       -52.3880   28.5350  -50.6650 C.3    60  HIS60       0.0745
     15  CG       -52.8770   28.1600  -52.0330 C.ar   60  HIS60       0.0817
     16  ND1      -53.4040   26.9120  -52.3010 N.ar   60  HIS60      -0.2268
     17  CD2      -52.9410   28.8550  -53.1940 C.ar   60  HIS60       0.1154
     18  CE1      -53.7920   26.8580  -53.5620 C.ar   60  HIS60       0.1986
     19  NE2      -53.4920   28.0110  -54.1350 N.ar   60  HIS60      -0.2212
     20  N        -47.4320   25.4670  -50.3910 N.3    63  SER63      -0.1202
     21  CA       -47.7690   24.2020  -51.0020 C.3    63  SER63       0.2020
     22  C        -47.6790   24.1390  -52.4840 C.2    63  SER63       0.2618
     23  O        -47.5360   23.0540  -53.0020 O.2    63  SER63      -0.2717
     24  CB       -49.1200   23.7150  -50.5710 C.3    63  SER63       0.2103
     25  OG       -48.8740   22.9860  -49.3980 O.3    63  SER63      -0.2182
     26  N        -47.7800   25.2620  -53.1690 N.am   64  LEU64      -0.1979
     27  CA       -47.5620   25.3070  -54.6270 C.3    64  LEU64       0.1596
     28  C        -46.0830   25.2190  -54.9710 C.2    64  LEU64       0.2287
     29  O        -45.7240   24.4850  -55.8720 O.2    64  LEU64      -0.2864
     30  CB       -48.1570   26.5420  -55.2760 C.3    64  LEU64       0.0297
     31  CG       -49.6140   26.7890  -55.0660 C.3    64  LEU64       0.0022
     32  CD1      -50.0110   28.1280  -55.6230 C.3    64  LEU64       0.0001
     33  CD2      -50.4500   25.6730  -55.6300 C.3    64  LEU64       0.0001
     34  N        -45.4540   21.6820  -54.8700 N.3    67  ASP67      -0.1225
     35  CA       -46.2270   20.9920  -55.9040 C.3    67  ASP67       0.1805
     36  C        -45.5510   21.1370  -57.2530 C.2    67  ASP67       0.2597
     37  O        -45.5760   20.2240  -58.0610 O.2    67  ASP67      -0.2718
     38  CB       -47.6540   21.5680  -56.0420 C.3    67  ASP67       0.1424
     39  CG       -48.7520   20.6970  -55.4250 C.2    67  ASP67       0.3668
     40  OD1      -48.7050   20.4460  -54.1850 O.co2  67  ASP67      -0.2456
     41  OD2      -49.7400   20.3550  -56.1470 O.co2  67  ASP67      -0.2456
     42  N        -44.9660   22.3000  -57.5350 N.am   68  ASP68      -0.1974
     43  CA       -44.3190   22.5270  -58.8250 C.3    68  ASP68       0.1709
     44  C        -43.0770   21.6550  -58.9190 C.2    68  ASP68       0.2293
     45  O        -42.8930   20.9620  -59.9080 O.2    68  ASP68      -0.2864
     46  CB       -43.9700   23.9870  -59.0160 C.3    68  ASP68       0.1436
     47  CG       -45.1880   24.8720  -59.3670 C.2    68  ASP68       0.3671
     48  OD1      -46.2040   24.4510  -60.1420 O.co2  68  ASP68      -0.2456
     49  OD2      -45.0570   26.0530  -58.8460 O.co2  68  ASP68      -0.2456
     50  N        -44.3310   18.0700  -59.1970 N.3    71  ASP71      -0.1239
     51  CA       -44.9480   17.7560  -60.4960 C.3    71  ASP71       0.1674
     52  C        -44.0080   17.9330  -61.7240 C.2    71  ASP71       0.2266
     53  O        -44.3850   17.6800  -62.8830 O.2    71  ASP71      -0.2867
     54  CB       -46.1940   18.6240  -60.6910 C.3    71  ASP71       0.1410
     55  CG       -47.3720   18.1730  -59.8380 C.2    71  ASP71       0.3668
     56  OD1      -48.0190   19.0270  -59.1720 O.co2  71  ASP71      -0.2456
     57  OD2      -47.7120   16.9740  -59.9430 O.co2  71  ASP71      -0.2456
     58  N        -43.3100   20.8020  -62.8090 N.3    73  SER73      -0.1217
     59  CA       -43.8660   21.8360  -63.6080 C.3    73  SER73       0.1889
     60  C        -42.7090   22.6790  -64.0680 C.2    73  SER73       0.2288
     61  O        -41.6170   22.7160  -63.4340 O.2    73  SER73      -0.2866
     62  CB       -44.8280   22.6670  -62.8030 C.3    73  SER73       0.2089
     63  OG       -45.8390   21.8700  -62.2160 O.3    73  SER73      -0.2183
     64  N        -46.0950   28.2180  -64.2310 N.3    76  ARG76      -0.1231
     65  CA       -47.2660   28.3310  -63.3670 C.3    76  ARG76       0.1694
     66  C        -47.9550   29.6330  -63.6750 C.2    76  ARG76       0.2591
     67  O        -47.3590   30.6850  -63.4940 O.2    76  ARG76      -0.2718
     68  CB       -46.8590   28.3380  -61.9140 C.3    76  ARG76       0.0321
     69  CG       -47.8990   28.9270  -60.9740 C.3    76  ARG76       0.0489
     70  CD       -47.5450   28.6790  -59.5270 C.3    76  ARG76       0.2205
     71  NE       -47.5840   27.2600  -59.1740 N.pl3  76  ARG76      -0.0865
     72  CZ       -48.6860   26.5450  -59.0060 C.cat  76  ARG76       0.5346
     73  NH1      -48.5680   25.2670  -58.6650 N.pl3  76  ARG76       0.1354
     74  NH2      -49.8940   27.0900  -59.1590 N.pl3  76  ARG76       0.1354
     75  N        -49.2230   29.5380  -64.0760 N.am   77  ARG77      -0.1980
     76  CA       -50.0310   30.6650  -64.5780 C.3    77  ARG77       0.1597
     77  C        -49.2290   31.4380  -65.6550 C.2    77  ARG77       0.2287
     78  O        -49.2580   32.6630  -65.7160 O.2    77  ARG77      -0.2864
     79  CB       -50.6090   31.5520  -63.4070 C.3    77  ARG77       0.0334
     80  CG       -52.0230   31.2100  -62.9550 C.3    77  ARG77       0.0492
     81  CD       -52.0690   30.1190  -61.9000 C.3    77  ARG77       0.2205
     82  NE       -51.9320   28.7680  -62.4480 N.pl3  77  ARG77      -0.0865
     83  CZ       -52.9330   27.8980  -62.5990 C.cat  77  ARG77       0.5346
     84  NH1      -54.1690   28.2210  -62.2400 N.pl3  77  ARG77       0.1354
     85  NH2      -52.6950   26.7100  -63.1430 N.pl3  77  ARG77       0.1354
     86  N        -53.0140   16.7700  -46.9800 N.3   125  LEU125     -0.1245
     87  CA       -52.3250   17.3650  -48.1100 C.3   125  LEU125      0.1561
     88  C        -51.1050   16.5870  -48.5370 C.2   125  LEU125      0.2260
     89  O        -50.9160   16.3620  -49.6970 O.2   125  LEU125     -0.2867
     90  CB       -51.8650   18.7600  -47.7340 C.3   125  LEU125      0.0270
     91  CG       -50.8370   19.3210  -48.7270 C.3   125  LEU125      0.0019
     92  CD1      -51.5430   19.6510  -49.9920 C.3   125  LEU125      0.0001
     93  CD2      -50.1230   20.5310  -48.2380 C.3   125  LEU125      0.0001
     94  N        -58.8310   10.2800  -58.9240 N.3   147  TYR147     -0.1241
     95  CA       -58.5260   11.6960  -59.1340 C.3   147  TYR147      0.1605
     96  C        -59.2440   12.5820  -58.1330 C.2   147  TYR147      0.2264
     97  O        -58.6190   13.4480  -57.4940 O.2   147  TYR147     -0.2867
     98  CB       -58.9380   12.1640  -60.5260 C.3   147  TYR147      0.0534
     99  CG       -58.5190   13.5850  -60.7940 C.ar  147  TYR147     -0.0201
    100  CD1      -57.1780   13.9530  -60.7020 C.ar  147  TYR147     -0.0009
    101  CD2      -59.4420   14.5550  -61.1190 C.ar  147  TYR147     -0.0009
    102  CE1      -56.7640   15.2430  -60.9880 C.ar  147  TYR147      0.0417
    103  CE2      -59.0400   15.8690  -61.3770 C.ar  147  TYR147      0.0417
    104  CZ       -57.7030   16.2030  -61.2960 C.ar  147  TYR147      0.1957
    105  OH       -57.2810   17.4740  -61.5400 O.3   147  TYR147     -0.2866
    106  N        -56.0840   17.0790  -51.1610 N.3   154  LYS154     -0.1231
    107  CA       -55.1610   18.1780  -51.4180 C.3   154  LYS154      0.1693
    108  C        -55.9370   19.5180  -51.2990 C.2   154  LYS154      0.2592
    109  O        -55.5910   20.3350  -50.4700 O.2   154  LYS154     -0.2718
    110  CB       -54.5090   17.9620  -52.7920 C.3   154  LYS154      0.0285
    111  CG       -53.1160   18.5560  -53.0240 C.3   154  LYS154      0.0035
    112  CD       -52.5210   18.2280  -54.3980 C.3   154  LYS154      0.0206
    113  CE       -53.3670   18.8740  -55.5110 C.3   154  LYS154      0.1093
    114  NZ       -52.9430   18.7480  -56.9210 N.3   154  LYS154     -0.1314
    115  N        -57.0210   19.6850  -52.0780 N.am  155  THR155     -0.1953
    116  CA       -57.8900   20.9030  -52.1150 C.3   155  THR155      0.1897
    117  C        -58.9080   21.0430  -50.9500 C.2   155  THR155      0.2313
    118  O        -58.8410   21.9890  -50.1900 O.2   155  THR155     -0.2863
    119  CB       -58.5920   21.0580  -53.5090 C.3   155  THR155      0.1794
    120  OG1      -57.6160   21.0050  -54.5890 O.3   155  THR155     -0.2208
    121  CG2      -59.4160   22.3440  -53.5830 C.3   155  THR155      0.0378
    122  N        -57.3870   22.0120  -47.7280 N.3   158  LEU158     -0.1231
    123  CA       -57.0130   23.3860  -47.4160 C.3   158  LEU158      0.1693
    124  C        -58.1220   24.3960  -47.6280 C.2   158  LEU158      0.2592
    125  O        -57.9720   25.4980  -47.2080 O.2   158  LEU158     -0.2718
    126  CB       -55.7240   23.8200  -48.1610 C.3   158  LEU158      0.0284
    127  CG       -54.3830   23.6780  -47.3490 C.3   158  LEU158      0.0019
    128  CD1      -53.9070   22.2820  -46.9100 C.3   158  LEU158      0.0001
    129  CD2      -53.3430   24.4410  -48.1580 C.3   158  LEU158      0.0001
    130  N        -59.2490   24.0140  -48.1880 N.am  159  PHE159     -0.1976
    131  CA       -60.5380   24.7110  -47.9170 C.3   159  PHE159      0.1639
    132  C        -60.8700   24.4060  -46.4580 C.2   159  PHE159      0.2290
    133  O        -61.1110   25.2630  -45.6240 O.2   159  PHE159     -0.2864
    134  CB       -61.6930   24.1040  -48.7380 C.3   159  PHE159      0.0560
    135  CG       -61.9410   24.7260  -50.0980 C.ar  159  PHE159     -0.0200
    136  CD1      -63.2340   24.8030  -50.5770 C.ar  159  PHE159     -0.0042
    137  CD2      -60.8900   25.2090  -50.9150 C.ar  159  PHE159     -0.0042
    138  CE1      -63.4920   25.3430  -51.8430 C.ar  159  PHE159     -0.0003
    139  CE2      -61.1390   25.7520  -52.1770 C.ar  159  PHE159     -0.0003
    140  CZ       -62.4400   25.8230  -52.6340 C.ar  159  PHE159     -0.0000
    141  N        -64.3460   23.5950  -57.9640 N.3   187  PHE187     -0.1227
    142  CA       -63.2900   24.5860  -58.2520 C.3   187  PHE187      0.1736
    143  C        -62.1740   24.0500  -59.0960 C.2   187  PHE187      0.2595
    144  O        -61.7020   24.7440  -60.0100 O.2   187  PHE187     -0.2718
    145  CB       -62.6950   25.1930  -56.9740 C.3   187  PHE187      0.0547
    146  CG       -63.4240   26.4090  -56.5200 C.ar  187  PHE187     -0.0202
    147  CD1      -63.2400   27.6300  -57.1430 C.ar  187  PHE187     -0.0042
    148  CD2      -64.3590   26.2860  -55.4980 C.ar  187  PHE187     -0.0042
    149  CE1      -63.9640   28.7200  -56.7280 C.ar  187  PHE187     -0.0003
    150  CE2      -65.0820   27.3700  -55.0710 C.ar  187  PHE187     -0.0003
    151  CZ       -64.8840   28.5950  -55.6850 C.ar  187  PHE187     -0.0000
    152  N        -61.7590   22.8300  -58.7550 N.am  188  GLN188     -0.1979
    153  CA       -60.6460   22.1430  -59.3920 C.3   188  GLN188      0.1601
    154  C        -60.9460   21.8230  -60.8400 C.2   188  GLN188      0.2287
    155  O        -60.2670   22.2920  -61.7590 O.2   188  GLN188     -0.2864
    156  CB       -60.3610   20.8320  -58.6310 C.3   188  GLN188      0.0394
    157  CG       -59.2630   19.9750  -59.2150 C.3   188  GLN188      0.0908
    158  CD       -57.9500   20.6910  -59.1100 C.2   188  GLN188      0.2608
    159  OE1      -57.2280   20.5400  -58.0940 O.2   188  GLN188     -0.2717
    160  NE2      -57.6560   21.5350  -60.1080 N.am  188  GLN188     -0.0878
    161  N        -61.1410   24.7300  -62.9790 N.3   191  ASP191     -0.1225
    162  CA       -59.7930   25.2450  -63.2760 C.3   191  ASP191      0.1805
    163  C        -58.9800   24.2930  -64.2250 C.2   191  ASP191      0.2597
    164  O        -58.0930   24.7450  -64.9770 O.2   191  ASP191     -0.2718
    165  CB       -59.0530   25.5210  -61.9320 C.3   191  ASP191      0.1424
    166  CG       -57.7980   26.4200  -62.0610 C.2   191  ASP191      0.3668
    167  OD1      -57.2560   26.7180  -63.1510 O.co2 191  ASP191     -0.2456
    168  OD2      -57.3060   26.8590  -61.0040 O.co2 191  ASP191     -0.2456
    169  N        -59.2950   22.9870  -64.2010 N.am  192  ASP192     -0.1974
    170  CA       -58.7550   22.0390  -65.1750 C.3   192  ASP192      0.1709
    171  C        -59.3090   22.3380  -66.5900 C.2   192  ASP192      0.2293
    172  O        -58.5220   22.5520  -67.5250 O.2   192  ASP192     -0.2864
    173  CB       -59.0830   20.5830  -64.7770 C.3   192  ASP192      0.1436
    174  CG       -58.3250   20.0900  -63.5340 C.2   192  ASP192      0.3671
    175  OD1      -57.2210   20.5940  -63.2320 O.co2 192  ASP192     -0.2456
    176  OD2      -58.8480   19.1500  -62.8750 O.co2 192  ASP192     -0.2456
    177  N        -58.1690   25.7680  -67.8700 N.3   195  ASN195     -0.1240
    178  CA       -56.7600   25.6140  -68.2590 C.3   195  ASN195      0.1653
    179  C        -56.6140   24.9740  -69.6510 C.2   195  ASN195      0.2266
    180  O        -55.7270   25.3740  -70.4020 O.2   195  ASN195     -0.2867
    181  CB       -55.9900   24.8280  -67.1700 C.3   195  ASN195      0.1155
    182  CG       -54.4880   24.7370  -67.4190 C.2   195  ASN195      0.2627
    183  OD1      -54.0130   24.1540  -68.4040 O.2   195  ASN195     -0.2716
    184  ND2      -53.7250   25.2610  -66.4750 N.am  195  ASN195     -0.0877
    185  N        -51.4870   21.2490  -69.3530 N.3   198  THR198     -0.1218
    186  CA       -51.3980   20.5510  -68.0580 C.3   198  THR198      0.1862
    187  C        -50.2090   20.9330  -67.1590 C.2   198  THR198      0.2287
    188  O        -50.4310   21.1920  -65.9830 O.2   198  THR198     -0.2866
    189  CB       -51.4110   18.9910  -68.1740 C.3   198  THR198      0.1770
    190  OG1      -50.2030   18.5000  -68.7740 O.3   198  THR198     -0.2211
    191  CG2      -52.6180   18.4600  -68.9810 C.3   198  THR198      0.0375
    192  N        -49.4560   17.8690  -64.8640 N.3   201  LYS201     -0.1231
    193  CA       -50.5100   17.8090  -63.8620 C.3   201  LYS201      0.1693
    194  C        -51.6830   16.9800  -64.4180 C.2   201  LYS201      0.2592
    195  O        -52.0530   17.0910  -65.5800 O.2   201  LYS201     -0.2718
    196  CB       -50.9260   19.2270  -63.4490 C.3   201  LYS201      0.0285
    197  CG       -51.6510   19.3400  -62.1240 C.3   201  LYS201      0.0035
    198  CD       -50.7500   19.1370  -60.9180 C.3   201  LYS201      0.0206
    199  CE       -51.5180   19.3870  -59.6230 C.3   201  LYS201      0.1093
    200  NZ       -50.7850   20.1970  -58.5970 N.3   201  LYS201     -0.1314
    201  N        -52.2060   16.1030  -63.5740 N.am  202  PHE202     -0.1976
    202  CA       -53.3360   15.2770  -63.9080 C.3   202  PHE202      0.1639
    203  C        -54.5670   16.1900  -63.9060 C.2   202  PHE202      0.2290
    204  O        -54.7750   16.9530  -62.9820 O.2   202  PHE202     -0.2864
    205  CB       -53.4840   14.1470  -62.8630 C.3   202  PHE202      0.0560
    206  CG       -52.3670   13.1170  -62.8850 C.ar  202  PHE202     -0.0200
    207  CD1      -51.6690   12.7880  -61.7410 C.ar  202  PHE202     -0.0042
    208  CD2      -52.0530   12.4510  -64.0400 C.ar  202  PHE202     -0.0042
    209  CE1      -50.6580   11.8410  -61.7620 C.ar  202  PHE202     -0.0003
    210  CE2      -51.0460   11.4950  -64.0580 C.ar  202  PHE202     -0.0003
    211  CZ       -50.3450   11.1870  -62.9170 C.ar  202  PHE202     -0.0000
@<TRIPOS>BOND
     1   180   179    2
     2   179   178    1
     3   185   186    1
     4   191   189    1
     5   190   189    1
     6   183   182    2
     7   178   177    1
     8   178   181    1
     9   189   186    1
    10   186   187    1
    11   172   171    2
    12   182   181    1
    13   182   184   am
    14   187   188    2
    15   171   170    1
    16    78    77    2
    17    77    76    1
    18   195   194    2
    19   170   173    1
    20   170   169    1
    21   164   163    2
    22   192   193    1
    23   173   174    1
    24    76    75    1
    25    76    79    1
    26   194   193    1
    27   194   201   am
    28    64    65    1
    29   163   169   am
    30   163   162    1
    31    75    66   am
    32    60    59    1
    33    60    61    2
    34   210   208   ar
    35   210   211   ar
    36   208   206   ar
    37   202   203    1
    38   202   201    1
    39   202   205    1
    40   203   204    2
    41   193   196    1
    42    66    67    2
    43    66    65    1
    44    59    58    1
    45    59    62    1
    46   174   175   ar
    47   174   176   ar
    48   196   197    1
    49    79    80    1
    50    65    68    1
    51   162   161    1
    52   162   165    1
    53   167   166   ar
    54    85    83    1
    55    80    81    1
    56   211   209   ar
    57   206   205    1
    58   206   207   ar
    59    53    52    2
    60    62    63    1
    61    83    82    2
    62    83    84    1
    63    82    81    1
    64   197   198    1
    65   166   165    1
    66   166   168   ar
    67    68    69    1
    68   209   207   ar
    69   155   154    2
    70    52    51    1
    71   105   104    1
    72   103   104   ar
    73   103   101   ar
    74   104   102   ar
    75   101    99   ar
    76   102   100   ar
    77    69    70    1
    78   198   199    1
    79   154   153    1
    80    99   100   ar
    81    99    98    1
    82    54    51    1
    83    54    55    1
    84    98    95    1
    85    51    50    1
    86    48    47   ar
    87   160   158   am
    88   144   143    2
    89    57    55   ar
    90    45    44    2
    91    55    56   ar
    92   199   200    1
    93    70    71    1
    94   153   152    1
    95   153   156    1
    96    47    46    1
    97    47    49   ar
    98   157   158    1
    99   157   156    1
   100    71    72    2
   101    74    72    1
   102    95    94    1
   103    95    96    1
   104   158   159    2
   105   143   152   am
   106   143   142    1
   107    46    43    1
   108    72    73    1
   109    44    43    1
   110    43    42    1
   111     9     8    1
   112     8     7    1
   113   142   141    1
   114   142   145    1
   115     1     2    1
   116    96    97    2
   117    37    36    2
   118    42    36   am
   119     6     7    1
   120     6     5    1
   121    36    35    1
   122   147   149   ar
   123   147   146   ar
   124   145   146    1
   125   114   113    1
   126     2     5    1
   127     2     3    1
   128   149   151   ar
   129   146   148   ar
   130    41    39   ar
   131    38    35    1
   132    38    39    1
   133    35    34    1
   134    29    28    2
   135     3     4    2
   136   151   150   ar
   137    33    31    1
   138    32    31    1
   139   113   112    1
   140   148   150   ar
   141    39    40   ar
   142    30    31    1
   143    30    27    1
   144    28    27    1
   145    27    26    1
   146   120   119    1
   147   112   111    1
   148    19    18   ar
   149    19    17   ar
   150   121   119    1
   151    18    16   ar
   152   119   116    1
   153    17    15   ar
   154    26    22   am
   155   111   110    1
   156    23    22    2
   157   110   107    1
   158   140   139   ar
   159   140   138   ar
   160    22    21    1
   161    16    15   ar
   162   139   137   ar
   163   116   115    1
   164   116   117    1
   165   115   108   am
   166    15    14    1
   167   138   136   ar
   168    13    12    2
   169   107   108    1
   170   107   106    1
   171   108   109    2
   172    12    11    1
   173    21    24    1
   174    21    20    1
   175   117   118    2
   176   137   135   ar
   177    14    11    1
   178   136   135   ar
   179    24    25    1
   180    11    10    1
   181   135   134    1
   182    92    91    1
   183    89    88    2
   184   134   131    1
   185    91    93    1
   186    91    90    1
   187    88    87    1
   188   130   131    1
   189   130   124   am
   190   126   123    1
   191   126   127    1
   192   129   127    1
   193    87    90    1
   194    87    86    1
   195   131   132    1
   196   122   123    1
   197   124   123    1
   198   124   125    2
   199   127   128    1
   200   132   133    2
