@<TRIPOS>MOLECULE
tmp/6c58D00.pdb
 190 182 0 0 0
SMALL
GASTEIGER

@<TRIPOS>ATOM
      1  N        -74.1070  -44.6260  120.2980 N.3   116  THR116     -0.1218
      2  CA       -73.3480  -43.8390  119.3370 C.3   116  THR116      0.1862
      3  C        -71.9430  -43.5200  119.8300 C.2   116  THR116      0.2287
      4  O        -71.0660  -43.2160  119.0130 O.2   116  THR116     -0.2866
      5  CB       -74.0870  -42.5380  119.0150 C.3   116  THR116      0.1770
      6  OG1      -74.1990  -41.7440  120.2020 O.3   116  THR116     -0.2211
      7  CG2      -75.4800  -42.8350  118.4810 C.3   116  THR116      0.0375
      8  N        -74.1010  -47.9280  117.1460 N.3   146  GLU146     -0.1231
      9  CA       -75.2530  -47.4490  116.3940 C.3   146  GLU146      0.1699
     10  C        -74.8360  -46.2610  115.5370 C.2   146  GLU146      0.2592
     11  O        -74.3830  -45.2390  116.0630 O.2   146  GLU146     -0.2718
     12  CB       -76.3950  -47.0640  117.3330 C.3   146  GLU146      0.0402
     13  CG       -77.6520  -46.6570  116.6010 C.3   146  GLU146      0.1161
     14  CD       -78.0390  -47.6590  115.5310 C.2   146  GLU146      0.3649
     15  OE1      -78.2480  -48.8430  115.8700 O.co2 146  GLU146     -0.2457
     16  OE2      -78.1180  -47.2640  114.3480 O.co2 146  GLU146     -0.2457
     17  N        -75.0060  -46.3930  114.2220 N.am  147  PHE147     -0.1962
     18  CA       -74.5840  -45.3790  113.2650 C.3   147  PHE147      0.1771
     19  C        -75.6990  -44.4240  112.8590 C.2   147  PHE147      0.2619
     20  O        -75.4660  -43.5530  112.0140 O.2   147  PHE147     -0.2715
     21  CB       -74.0160  -46.0430  112.0060 C.3   147  PHE147      0.0574
     22  CG       -72.7440  -46.8020  112.2370 C.ar  147  PHE147     -0.0200
     23  CD1      -71.5270  -46.1430  112.2770 C.ar  147  PHE147     -0.0042
     24  CD2      -72.7610  -48.1780  112.3940 C.ar  147  PHE147     -0.0042
     25  CE1      -70.3520  -46.8400  112.4780 C.ar  147  PHE147     -0.0003
     26  CE2      -71.5880  -48.8800  112.5980 C.ar  147  PHE147     -0.0003
     27  CZ       -70.3830  -48.2090  112.6410 C.ar  147  PHE147     -0.0000
     28  N        -76.8960  -44.5590  113.4230 N.am  148  LEU148     -0.1963
     29  CA       -78.0060  -43.7290  112.9800 C.3   148  LEU148      0.1728
     30  C        -77.7940  -42.2750  113.3870 C.2   148  LEU148      0.2616
     31  O        -77.1960  -41.9720  114.4230 O.2   148  LEU148     -0.2715
     32  CB       -79.3360  -44.2450  113.5430 C.3   148  LEU148      0.0311
     33  CG       -79.7130  -44.1020  115.0260 C.3   148  LEU148      0.0022
     34  CD1      -80.2970  -42.7300  115.3700 C.3   148  LEU148      0.0001
     35  CD2      -80.6950  -45.1960  115.4160 C.3   148  LEU148      0.0001
     36  N        -78.2930  -41.3730  112.5510 N.am  149  ALA149     -0.1963
     37  CA       -78.3890  -39.9620  112.8870 C.3   149  ALA149      0.1728
     38  C        -79.8450  -39.6280  113.1740 C.2   149  ALA149      0.2616
     39  O        -80.7480  -40.0890  112.4700 O.2   149  ALA149     -0.2715
     40  CB       -77.8550  -39.0820  111.7570 C.3   149  ALA149      0.0334
     41  N        -80.0700  -38.8460  114.2230 N.am  150  GLU150     -0.1977
     42  CA       -81.4260  -38.4540  114.5690 C.3   150  GLU150      0.1602
     43  C        -82.0200  -37.5870  113.4650 C.2   150  GLU150      0.2287
     44  O        -81.3120  -36.8610  112.7640 O.2   150  GLU150     -0.2864
     45  CB       -81.4370  -37.7160  115.9050 C.3   150  GLU150      0.0415
     46  CG       -80.9180  -38.5650  117.0540 C.3   150  GLU150      0.1163
     47  CD       -80.9060  -37.8210  118.3680 C.2   150  GLU150      0.3649
     48  OE1      -81.3900  -36.6710  118.4040 O.co2 150  GLU150     -0.2457
     49  OE2      -80.4090  -38.3850  119.3650 O.co2 150  GLU150     -0.2457
     50  N        -65.9390  -46.9580  115.7680 N.3   205  LYS205     -0.1245
     51  CA       -67.0250  -45.9990  115.9420 C.3   205  LYS205      0.1561
     52  C        -66.4970  -44.6430  116.3920 C.2   205  LYS205      0.2260
     53  O        -66.9510  -43.6020  115.9050 O.2   205  LYS205     -0.2867
     54  CB       -68.0470  -46.5330  116.9430 C.3   205  LYS205      0.0271
     55  CG       -69.3190  -45.7070  117.0090 C.3   205  LYS205      0.0035
     56  CD       -69.9210  -45.5520  115.6260 C.3   205  LYS205      0.0206
     57  CE       -71.3010  -44.9280  115.6780 C.3   205  LYS205      0.1093
     58  NZ       -71.2780  -43.5390  116.2040 N.3   205  LYS205     -0.1314
     59  N        -66.8780  -41.2190  114.0400 N.3   209  ASN209     -0.1240
     60  CA       -67.4750  -39.9840  114.5380 C.3   209  ASN209      0.1653
     61  C        -66.5010  -38.8170  114.4280 C.2   209  ASN209      0.2266
     62  O        -66.9090  -37.6830  114.1530 O.2   209  ASN209     -0.2867
     63  CB       -67.9330  -40.1640  115.9860 C.3   209  ASN209      0.1155
     64  CG       -69.0050  -41.2270  116.1330 C.2   209  ASN209      0.2627
     65  OD1      -69.8200  -41.4380  115.2330 O.2   209  ASN209     -0.2716
     66  ND2      -69.0100  -41.9030  117.2750 N.am  209  ASN209     -0.0877
     67  N        -66.4920  -37.5990  110.7890 N.3   212  LEU212     -0.1245
     68  CA       -67.7060  -36.8500  110.4810 C.3   212  LEU212      0.1561
     69  C        -67.6410  -35.4400  111.0570 C.2   212  LEU212      0.2260
     70  O        -67.9060  -34.4570  110.3550 O.2   212  LEU212     -0.2867
     71  CB       -68.9290  -37.5940  111.0180 C.3   212  LEU212      0.0270
     72  CG       -69.2680  -38.9400  110.3780 C.3   212  LEU212      0.0019
     73  CD1      -70.2590  -39.7030  111.2430 C.3   212  LEU212      0.0001
     74  CD2      -69.8240  -38.7370  108.9770 C.3   212  LEU212      0.0001
     75  N        -67.2050  -31.2790  109.1500 N.3   216  ILE216     -0.1245
     76  CA       -67.9950  -30.0830  109.4290 C.3   216  ILE216      0.1561
     77  C        -67.0910  -28.9350  109.8620 C.2   216  ILE216      0.2260
     78  O        -67.2220  -27.8050  109.3780 O.2   216  ILE216     -0.2867
     79  CB       -69.0690  -30.3840  110.4880 C.3   216  ILE216      0.0252
     80  CG1      -69.9640  -31.5340  110.0260 C.3   216  ILE216      0.0019
     81  CG2      -69.8990  -29.1380  110.7680 C.3   216  ILE216      0.0019
     82  CD1      -70.8950  -32.0400  111.0990 C.3   216  ILE216      0.0001
     83  N        -71.7730  -34.0560  104.0680 N.3   250  PHE250     -0.1241
     84  CA       -71.2690  -33.4370  105.2980 C.3   250  PHE250      0.1605
     85  C        -70.3320  -32.2670  105.0070 C.2   250  PHE250      0.2264
     86  O        -69.3380  -32.0550  105.7050 O.2   250  PHE250     -0.2867
     87  CB       -70.5870  -34.4700  106.1980 C.3   250  PHE250      0.0534
     88  CG       -71.4520  -34.9530  107.3280 C.ar  250  PHE250     -0.0203
     89  CD1      -72.6660  -35.5740  107.0730 C.ar  250  PHE250     -0.0042
     90  CD2      -71.0530  -34.7870  108.6440 C.ar  250  PHE250     -0.0042
     91  CE1      -73.4660  -36.0180  108.1120 C.ar  250  PHE250     -0.0003
     92  CE2      -71.8480  -35.2290  109.6870 C.ar  250  PHE250     -0.0003
     93  CZ       -73.0550  -35.8460  109.4200 C.ar  250  PHE250     -0.0000
     94  N        -71.8150  -29.0730  104.5510 N.3   252  LYS252     -0.1245
     95  CA       -72.7030  -27.9310  104.7450 C.3   252  LYS252      0.1561
     96  C        -72.1970  -27.1040  105.9220 C.2   252  LYS252      0.2260
     97  O        -72.3000  -27.5300  107.0780 O.2   252  LYS252     -0.2867
     98  CB       -74.1370  -28.3980  104.9810 C.3   252  LYS252      0.0271
     99  CG       -74.8270  -28.9810  103.7570 C.3   252  LYS252      0.0035
    100  CD       -75.3530  -27.8870  102.8400 C.3   252  LYS252      0.0206
    101  CE       -76.2710  -28.4590  101.7680 C.3   252  LYS252      0.1093
    102  NZ       -76.9300  -27.3910  100.9640 N.3   252  LYS252     -0.1314
    103  N        -72.1270  -24.3700  108.8270 N.3   254  SER254     -0.1217
    104  CA       -73.1900  -24.0790  109.7770 C.3   254  SER254      0.1889
    105  C        -72.6320  -23.2550  110.9270 C.2   254  SER254      0.2288
    106  O        -71.4240  -23.0260  111.0310 O.2   254  SER254     -0.2866
    107  CB       -73.8290  -25.3680  110.3040 C.3   254  SER254      0.2089
    108  OG       -72.8770  -26.1560  111.0030 O.3   254  SER254     -0.2183
    109  N        -71.7160  -27.7190  114.6500 N.3   257  PHE257     -0.1227
    110  CA       -72.3690  -28.9980  114.8780 C.3   257  PHE257      0.1736
    111  C        -72.7610  -29.1450  116.3440 C.2   257  PHE257      0.2596
    112  O        -72.0920  -28.6360  117.2480 O.2   257  PHE257     -0.2718
    113  CB       -71.4680  -30.1600  114.4410 C.3   257  PHE257      0.0547
    114  CG       -70.1700  -30.2660  115.2020 C.ar  257  PHE257     -0.0202
    115  CD1      -70.1230  -30.8820  116.4440 C.ar  257  PHE257     -0.0042
    116  CD2      -68.9900  -29.7790  114.6590 C.ar  257  PHE257     -0.0042
    117  CE1      -68.9340  -30.9890  117.1400 C.ar  257  PHE257     -0.0003
    118  CE2      -67.7930  -29.8900  115.3500 C.ar  257  PHE257     -0.0003
    119  CZ       -67.7670  -30.4950  116.5920 C.ar  257  PHE257     -0.0000
    120  N        -73.8770  -29.8300  116.5650 N.am  258  GLY258     -0.1942
    121  CA       -74.3300  -30.1510  117.8990 C.3   258  GLY258      0.2014
    122  C        -74.5910  -31.6350  118.0420 C.2   258  GLY258      0.2639
    123  O        -74.0370  -32.4400  117.2910 O.2   258  GLY258     -0.2714
    124  N        -75.4380  -32.0100  118.9920 N.am  259  GLY259     -0.1939
    125  CA       -75.7690  -33.3980  119.2290 C.3   259  GLY259      0.2014
    126  C        -74.9690  -33.9810  120.3780 C.2   259  GLY259      0.2640
    127  O        -73.9740  -33.4210  120.8430 O.2   259  GLY259     -0.2714
    128  N        -75.4240  -35.1450  120.8350 N.am  260  SER260     -0.1935
    129  CA       -74.8400  -35.8140  121.9880 C.3   260  SER260      0.2055
    130  C        -73.7180  -36.7740  121.6150 C.2   260  SER260      0.2643
    131  O        -73.3450  -37.6190  122.4360 O.2   260  SER260     -0.2714
    132  CB       -75.9240  -36.5640  122.7650 C.3   260  SER260      0.2130
    133  OG       -76.6000  -37.4880  121.9310 O.3   260  SER260     -0.2179
    134  N        -73.1620  -36.6600  120.4100 N.am  261  CYS261     -0.1953
    135  CA       -72.1510  -37.6030  119.9440 C.3   261  CYS261      0.1843
    136  C        -70.8190  -36.9320  119.6370 C.2   261  CYS261      0.2625
    137  O        -69.7950  -37.3290  120.2030 O.2   261  CYS261     -0.2714
    138  CB       -72.6680  -38.3540  118.7100 C.3   261  CYS261      0.0997
    139  SG       -71.4390  -39.4330  117.9380 S.3   261  CYS261     -0.0797
    140  N        -70.8000  -35.9230  118.7630 N.am  262  PHE262     -0.1974
    141  CA       -69.5350  -35.4340  118.2170 C.3   262  PHE262      0.1639
    142  C        -68.6550  -34.8140  119.2970 C.2   262  PHE262      0.2290
    143  O        -67.4970  -35.2120  119.4660 O.2   262  PHE262     -0.2864
    144  CB       -69.7990  -34.4360  117.0900 C.3   262  PHE262      0.0560
    145  CG       -70.2920  -35.0720  115.8210 C.ar  262  PHE262     -0.0200
    146  CD1      -70.2930  -36.4500  115.6740 C.ar  262  PHE262     -0.0042
    147  CD2      -70.7480  -34.2930  114.7710 C.ar  262  PHE262     -0.0042
    148  CE1      -70.7450  -37.0380  114.5080 C.ar  262  PHE262     -0.0003
    149  CE2      -71.1990  -34.8760  113.6010 C.ar  262  PHE262     -0.0003
    150  CZ       -71.1970  -36.2500  113.4710 C.ar  262  PHE262     -0.0000
    151  N        -80.7540  -29.2080  117.6920 N.3   323  PHE323     -0.1227
    152  CA       -79.4160  -29.2290  117.1120 C.3   323  PHE323      0.1736
    153  C        -79.4280  -29.5660  115.6270 C.2   323  PHE323      0.2595
    154  O        -78.4060  -29.3780  114.9590 O.2   323  PHE323     -0.2718
    155  CB       -78.5180  -30.2100  117.8740 C.3   323  PHE323      0.0547
    156  CG       -78.7170  -31.6540  117.4980 C.ar  323  PHE323     -0.0202
    157  CD1      -79.7740  -32.3830  118.0170 C.ar  323  PHE323     -0.0042
    158  CD2      -77.8260  -32.2900  116.6470 C.ar  323  PHE323     -0.0042
    159  CE1      -79.9490  -33.7140  117.6790 C.ar  323  PHE323     -0.0003
    160  CE2      -77.9940  -33.6190  116.3080 C.ar  323  PHE323     -0.0003
    161  CZ       -79.0560  -34.3320  116.8230 C.ar  323  PHE323     -0.0000
    162  N        -80.5500  -30.0540  115.1050 N.am  324  LYS324     -0.1980
    163  CA       -80.7280  -30.2760  113.6760 C.3   324  LYS324      0.1596
    164  C        -82.2230  -30.3680  113.4080 C.2   324  LYS324      0.2287
    165  O        -83.0400  -30.3590  114.3310 O.2   324  LYS324     -0.2864
    166  CB       -79.9980  -31.5360  113.1980 C.3   324  LYS324      0.0298
    167  CG       -80.5210  -32.8230  113.8060 C.3   324  LYS324      0.0038
    168  CD       -79.7540  -34.0320  113.3000 C.3   324  LYS324      0.0206
    169  CE       -79.9120  -34.2080  111.8000 C.3   324  LYS324      0.1093
    170  NZ       -79.4090  -35.5410  111.3660 N.3   324  LYS324     -0.1314
    171  N        -82.1000  -25.8350  110.6640 N.3   400  GLU400     -0.1245
    172  CA       -82.5170  -25.8580  109.2620 C.3   400  GLU400      0.1567
    173  C        -83.9120  -26.4450  109.0560 C.2   400  GLU400      0.2260
    174  O        -84.1270  -27.2340  108.1330 O.2   400  GLU400     -0.2867
    175  CB       -81.4760  -26.6110  108.4310 C.3   400  GLU400      0.0388
    176  CG       -81.3200  -28.1040  108.7360 C.3   400  GLU400      0.1160
    177  CD       -80.4670  -28.3900  109.9570 C.2   400  GLU400      0.3649
    178  OE1      -80.0920  -27.4350  110.6690 O.co2 400  GLU400     -0.2457
    179  OE2      -80.1720  -29.5800  110.2000 O.co2 400  GLU400     -0.2457
    180  N        -77.6690  -21.3880  108.7250 N.3   426  ARG426     -0.1245
    181  CA       -77.7890  -22.7220  108.1560 C.3   426  ARG426      0.1563
    182  C        -77.8060  -22.7430  106.6340 C.2   426  ARG426      0.2260
    183  O        -77.9730  -23.8240  106.0580 O.2   426  ARG426     -0.2867
    184  CB       -79.0590  -23.4090  108.6840 C.3   426  ARG426      0.0307
    185  CG       -78.9800  -23.8330  110.1410 C.3   426  ARG426      0.0489
    186  CD       -77.9870  -24.9660  110.3200 C.3   426  ARG426      0.2205
    187  NE       -77.9840  -25.4740  111.6880 N.pl3 426  ARG426     -0.0865
    188  CZ       -77.4200  -26.6190  112.0570 C.cat 426  ARG426      0.5346
    189  NH1      -76.8150  -27.3830  111.1570 N.pl3 426  ARG426      0.1354
    190  NH2      -77.4660  -27.0020  113.3250 N.pl3 426  ARG426      0.1354
@<TRIPOS>BOND
     1   102   101    1
     2   101   100    1
     3   100    99    1
     4    99    98    1
     5    83    84    1
     6    94    95    1
     7    95    98    1
     8    95    96    1
     9    85    84    1
    10    85    86    2
    11    84    87    1
    12    96    97    2
    13   183   182    2
    14    87    88    1
    15   182   181    1
    16    89    88   ar
    17    89    91   ar
    18    88    90   ar
    19    91    93   ar
    20   174   173    2
    21   181   184    1
    22   181   180    1
    23   175   176    1
    24   175   172    1
    25    90    92   ar
    26   184   185    1
    27   176   177    1
    28   103   104    1
    29    74    72    1
    30   173   172    1
    31    75    76    1
    32   172   171    1
    33    78    77    2
    34    93    92   ar
    35    76    77    1
    36    76    79    1
    37   104   107    1
    38   104   105    1
    39   177   179   ar
    40   177   178   ar
    41    80    79    1
    42    80    82    1
    43   185   186    1
    44   107   108    1
    45   186   187    1
    46    70    69    2
    47    72    71    1
    48    72    73    1
    49    68    67    1
    50    68    71    1
    51    68    69    1
    52    79    81    1
    53   105   106    2
    54   189   188    1
    55   170   169    1
    56   187   188    2
    57    40    37    1
    58   169   168    1
    59    21    22    1
    60    21    18    1
    61    20    19    2
    62   188   190    1
    63    22    23   ar
    64    22    24   ar
    65    23    25   ar
    66    24    26   ar
    67    39    38    2
    68    25    27   ar
    69    36    37    1
    70    36    30   am
    71    26    27   ar
    72    44    43    2
    73    19    18    1
    74    19    28   am
    75    37    38    1
    76    29    30    1
    77    29    28    1
    78    29    32    1
    79    38    41   am
    80   166   163    1
    81   166   167    1
    82    18    17    1
    83   168   167    1
    84    30    31    2
    85   164   163    1
    86   164   165    2
    87    43    42    1
    88   150   149   ar
    89   150   148   ar
    90    32    33    1
    91   149   147   ar
    92   163   162    1
    93    59    60    1
    94    62    61    2
    95    17    10   am
    96    41    42    1
    97    16    14   ar
    98    61    60    1
    99   113   110    1
   100   113   114    1
   101   148   146   ar
   102    60    63    1
   103    42    45    1
   104   109   110    1
   105   116   114   ar
   106   116   118   ar
   107   147   145   ar
   108   110   111    1
   109   154   153    2
   110    33    34    1
   111    33    35    1
   112   162   153   am
   113   114   115   ar
   114    65    64    2
   115   118   119   ar
   116    14    15   ar
   117    14    13    1
   118    10    11    2
   119    10     9    1
   120    56    57    1
   121    56    55    1
   122   153   152    1
   123   146   145   ar
   124    57    58    1
   125    50    51    1
   126   145   144    1
   127    45    46    1
   128    53    52    2
   129    51    52    1
   130    51    54    1
   131    63    64    1
   132    64    66   am
   133   160   158   ar
   134   160   161   ar
   135   111   120   am
   136   111   112    2
   137     9     8    1
   138     9    12    1
   139   115   117   ar
   140   120   121    1
   141   119   117   ar
   142    13    12    1
   143   158   156   ar
   144   161   159   ar
   145    54    55    1
   146    46    47    1
   147   144   141    1
   148   152   151    1
   149   152   155    1
   150   123   122    2
   151   156   155    1
   152   156   157   ar
   153   159   157   ar
   154   121   122    1
   155   139   138    1
   156   122   124   am
   157   141   140    1
   158   141   142    1
   159    47    48   ar
   160    47    49   ar
   161     7     5    1
   162   138   135    1
   163   140   136   am
   164   124   125    1
   165     4     3    2
   166     5     2    1
   167     5     6    1
   168   125   126    1
   169   142   143    2
   170     2     3    1
   171     2     1    1
   172   136   135    1
   173   136   137    2
   174   135   134    1
   175   126   128   am
   176   126   127    2
   177   134   130   am
   178   128   129    1
   179   130   129    1
   180   130   131    2
   181   133   132    1
   182   129   132    1
