@<TRIPOS>MOLECULE
tmp/6c5bA00.pdb
 210 207 0 0 0
SMALL
GASTEIGER

@<TRIPOS>ATOM
      1  N          6.3080   13.3150   41.1020 N.3   129  PHE129     -0.1241
      2  CA         7.6300   12.7500   41.0770 C.3   129  PHE129      0.1605
      3  C          8.6090   13.5720   41.8710 C.2   129  PHE129      0.2264
      4  O          9.5640   13.0310   42.3760 O.2   129  PHE129     -0.2867
      5  CB         8.0750   12.4850   39.6440 C.3   129  PHE129      0.0534
      6  CG         7.2810   11.3800   38.9890 C.ar  129  PHE129     -0.0203
      7  CD1        7.4180   10.0910   39.4410 C.ar  129  PHE129     -0.0042
      8  CD2        6.3860   11.6270   37.9640 C.ar  129  PHE129     -0.0042
      9  CE1        6.7070    9.0570   38.9050 C.ar  129  PHE129     -0.0003
     10  CE2        5.6750   10.5940   37.3880 C.ar  129  PHE129     -0.0003
     11  CZ         5.8150    9.3010   37.8830 C.ar  129  PHE129     -0.0000
     12  N          6.2060    3.0820   45.4820 N.3   142  PHE142     -0.1227
     13  CA         5.6360    3.3890   44.2000 C.3   142  PHE142      0.1736
     14  C          6.2280    2.5280   43.1190 C.2   142  PHE142      0.2595
     15  O          5.5030    1.9700   42.3050 O.2   142  PHE142     -0.2718
     16  CB         5.7560    4.8950   43.8590 C.3   142  PHE142      0.0547
     17  CG         5.4000    5.1980   42.4320 C.ar  142  PHE142     -0.0202
     18  CD1        4.0900    5.3890   42.0470 C.ar  142  PHE142     -0.0042
     19  CD2        6.3660    5.1590   41.4480 C.ar  142  PHE142     -0.0042
     20  CE1        3.7700    5.5940   40.7190 C.ar  142  PHE142     -0.0003
     21  CE2        6.0320    5.3390   40.1080 C.ar  142  PHE142     -0.0003
     22  CZ         4.7320    5.5710   39.7550 C.ar  142  PHE142     -0.0000
     23  N          7.5410    2.4000   43.1260 N.am  143  ASN143     -0.1974
     24  CA         8.2100    1.7460   42.0460 C.3   143  ASN143      0.1688
     25  C          7.9000    0.2560   42.0690 C.2   143  ASN143      0.2292
     26  O          7.7590   -0.3800   41.0060 O.2   143  ASN143     -0.2864
     27  CB         9.7350    2.0020   42.0760 C.3   143  ASN143      0.1181
     28  CG        10.1060    3.4250   41.7500 C.2   143  ASN143      0.2629
     29  OD1       10.9280    4.0520   42.4160 O.2   143  ASN143     -0.2716
     30  ND2        9.6050    3.8880   40.6940 N.am  143  ASN143     -0.0877
     31  N          4.2000   -0.1270   40.9450 N.3   146  GLN146     -0.1231
     32  CA         4.1160    0.0220   39.5260 C.3   146  GLN146      0.1698
     33  C          4.6430   -1.1930   38.7840 C.2   146  GLN146      0.2592
     34  O          4.0080   -1.6900   37.8520 O.2   146  GLN146     -0.2718
     35  CB         4.9210    1.2630   39.1620 C.3   146  GLN146      0.0381
     36  CG         4.8360    1.6840   37.7270 C.3   146  GLN146      0.0905
     37  CD         3.4450    2.1440   37.3170 C.2   146  GLN146      0.2608
     38  OE1        2.6870    2.7040   38.1160 O.2   146  GLN146     -0.2717
     39  NE2        3.1180    1.9300   36.0500 N.am  146  GLN146     -0.0878
     40  N          5.7810   -1.7000   39.2170 N.am  147  ALA147     -0.1980
     41  CA         6.3820   -2.8720   38.5640 C.3   147  ALA147      0.1597
     42  C          5.4840   -4.0890   38.7570 C.2   147  ALA147      0.2287
     43  O          5.3690   -4.9290   37.8390 O.2   147  ALA147     -0.2864
     44  CB         7.7720   -3.1700   39.0920 C.3   147  ALA147      0.0319
     45  N          2.6400   -3.8380   36.1700 N.3   150  THR150     -0.1218
     46  CA         3.1120   -4.0400   34.8060 C.3   150  THR150      0.1862
     47  C          3.5460   -5.4930   34.5870 C.2   150  THR150      0.2287
     48  O          3.3340   -6.0700   33.5260 O.2   150  THR150     -0.2866
     49  CB         4.1930   -3.0210   34.4990 C.3   150  THR150      0.1770
     50  OG1        3.5950   -1.7110   34.6180 O.3   150  THR150     -0.2211
     51  CG2        4.6990   -3.1830   33.1310 C.3   150  THR150      0.0375
     52  N         13.9060    1.4140   26.6720 N.3   171  ASP171     -0.1239
     53  CA        12.6650    1.6170   27.4130 C.3   171  ASP171      0.1674
     54  C         12.8180    2.9070   28.1770 C.2   171  ASP171      0.2266
     55  O         13.6430    3.0100   29.1080 O.2   171  ASP171     -0.2867
     56  CB        12.4200    0.4050   28.3010 C.3   171  ASP171      0.1410
     57  CG        11.1000    0.4350   29.0160 C.2   171  ASP171      0.3668
     58  OD1       10.4790    1.4950   29.1310 O.co2 171  ASP171     -0.2456
     59  OD2       10.6880   -0.6110   29.5620 O.co2 171  ASP171     -0.2456
     60  N         11.6140    5.7860   30.6690 N.3   173  GLY173     -0.1210
     61  CA        10.8430    5.8010   31.8880 C.3   173  GLY173      0.1956
     62  C         10.3950    4.3990   32.2740 C.2   173  GLY173      0.2612
     63  O          9.2160    4.1380   32.5820 O.2   173  GLY173     -0.2717
     64  N         11.3510    3.4980   32.3010 N.am  174  ALA174     -0.1965
     65  CA        11.0600    2.0790   32.4710 C.3   174  ALA174      0.1728
     66  C         10.7390    1.6340   33.8790 C.2   174  ALA174      0.2616
     67  O         10.3390    0.4910   34.0620 O.2   174  ALA174     -0.2715
     68  CB        12.2520    1.2730   31.9810 C.3   174  ALA174      0.0334
     69  N         10.9810    2.4820   34.8720 N.am  175  GLY175     -0.1955
     70  CA        10.8540    2.0790   36.2760 C.3   175  GLY175      0.1869
     71  C         11.8350    0.9570   36.5590 C.2   175  GLY175      0.2309
     72  O         13.0110    1.0000   36.1330 O.2   175  GLY175     -0.2863
     73  N          9.8920   -4.2890   34.3600 N.3   178  PRO178     -0.2102
     74  CA         9.3620   -5.6380   34.0880 C.3   178  PRO178      0.1504
     75  C          8.9450   -5.9100   32.6240 C.2   178  PRO178      0.2575
     76  O          8.9550   -7.0750   32.1730 O.2   178  PRO178     -0.2718
     77  CB         8.1450   -5.7210   34.9870 C.3   178  PRO178      0.0282
     78  CG         7.7390   -4.2990   35.1860 C.3   178  PRO178      0.0208
     79  CD         9.0110   -3.5140   35.2430 C.3   178  PRO178      0.0893
     80  N          8.4880   -4.8940   31.8910 N.am  179  LEU179     -0.1980
     81  CA         8.1580   -5.1020   30.4970 C.3   179  LEU179      0.1596
     82  C          9.4280   -5.2560   29.6710 C.2   179  LEU179      0.2287
     83  O          9.5530   -6.1710   28.8390 O.2   179  LEU179     -0.2864
     84  CB         7.2530   -3.9890   29.9420 C.3   179  LEU179      0.0297
     85  CG         7.0090   -4.0420   28.4250 C.3   179  LEU179      0.0022
     86  CD1        6.2570   -5.3060   28.0320 C.3   179  LEU179      0.0001
     87  CD2        6.2270   -2.8510   27.9490 C.3   179  LEU179      0.0001
     88  N         16.0120    3.2040   30.8670 N.3   195  PHE195     -0.1227
     89  CA        16.2090    4.6290   31.1160 C.3   195  PHE195      0.1736
     90  C         15.1970    5.1290   32.1160 C.2   195  PHE195      0.2595
     91  O         14.0130    4.9570   31.9460 O.2   195  PHE195     -0.2718
     92  CB        16.1400    5.4380   29.8350 C.3   195  PHE195      0.0547
     93  CG        16.3360    6.9210   30.0390 C.ar  195  PHE195     -0.0202
     94  CD1       15.2810    7.7660   30.3120 C.ar  195  PHE195     -0.0042
     95  CD2       17.6060    7.4740   29.9510 C.ar  195  PHE195     -0.0042
     96  CE1       15.4740    9.1200   30.5130 C.ar  195  PHE195     -0.0003
     97  CE2       17.7930    8.8210   30.1510 C.ar  195  PHE195     -0.0003
     98  CZ        16.7270    9.6540   30.4020 C.ar  195  PHE195     -0.0000
     99  N         15.6700    5.7860   33.1460 N.am  196  ASP196     -0.1960
    100  CA        14.7860    6.4230   34.1120 C.3   196  ASP196      0.1840
    101  C         15.5810    7.4460   34.8740 C.2   196  ASP196      0.2621
    102  O         16.7470    7.7130   34.4980 O.2   196  ASP196     -0.2715
    103  CB        14.1630    5.3590   35.0230 C.3   196  ASP196      0.1450
    104  CG        12.8100    5.7510   35.5670 C.2   196  ASP196      0.3671
    105  OD1       12.7360    6.6360   36.4570 O.co2 196  ASP196     -0.2456
    106  OD2       11.7640    5.1690   35.1360 O.co2 196  ASP196     -0.2456
    107  N         14.9740    8.0590   35.8910 N.am  197  GLN197     -0.1977
    108  CA        15.6970    8.9800   36.7420 C.3   197  GLN197      0.1601
    109  C         16.9010    8.2540   37.3650 C.2   197  GLN197      0.2287
    110  O         16.8430    7.0680   37.6280 O.2   197  GLN197     -0.2864
    111  CB        14.8000    9.5130   37.8670 C.3   197  GLN197      0.0394
    112  CG        13.5260   10.1870   37.4140 C.3   197  GLN197      0.0908
    113  CD        12.7370   10.7240   38.5710 C.2   197  GLN197      0.2608
    114  OE1       13.1440   11.7240   39.1820 O.2   197  GLN197     -0.2717
    115  NE2       11.6130   10.0770   38.9020 N.am  197  GLN197     -0.0878
    116  N         16.1810    5.7980   40.2000 N.3   200  VAL200     -0.1245
    117  CA        15.3890    4.6480   39.7880 C.3   200  VAL200      0.1561
    118  C         16.2310    3.6960   38.9520 C.2   200  VAL200      0.2260
    119  O         16.1680    2.4720   39.1500 O.2   200  VAL200     -0.2867
    120  CB        14.1350    5.1090   39.0260 C.3   200  VAL200      0.0252
    121  CG1       13.3040    3.9350   38.5130 C.3   200  VAL200      0.0019
    122  CG2       13.2950    6.0350   39.9020 C.3   200  VAL200      0.0019
    123  N         18.8360    9.6310   33.8550 N.3   222  GLY222     -0.1210
    124  CA        18.7750   10.9720   33.3150 C.3   222  GLY222      0.1956
    125  C         17.3850   11.5220   33.3750 C.2   222  GLY222      0.2612
    126  O         16.5260   10.9800   34.0620 O.2   222  GLY222     -0.2717
    127  N         17.1750   12.6160   32.6620 N.am  223  ASP223     -0.1959
    128  CA        15.8860   13.3220   32.5990 C.3   223  ASP223      0.1840
    129  C         15.4120   13.3430   31.1560 C.2   223  ASP223      0.2622
    130  O         16.0380   13.9540   30.2800 O.2   223  ASP223     -0.2715
    131  CB        16.1050   14.7350   33.1460 C.3   223  ASP223      0.1450
    132  CG        14.8740   15.6010   33.1110 C.2   223  ASP223      0.3671
    133  OD1       13.8180   15.2190   32.5680 O.co2 223  ASP223     -0.2456
    134  OD2       14.9630   16.7400   33.6170 O.co2 223  ASP223     -0.2456
    135  N         14.2860   12.6480   30.8700 N.am  224  PHE224     -0.1960
    136  CA        13.8010   12.5850   29.4880 C.3   224  PHE224      0.1771
    137  C         13.2630   13.9160   28.9190 C.2   224  PHE224      0.2619
    138  O         13.0190   14.0030   27.7370 O.2   224  PHE224     -0.2715
    139  CB        12.8400   11.4010   29.2480 C.3   224  PHE224      0.0574
    140  CG        11.6770   11.2790   30.2050 C.ar  224  PHE224     -0.0200
    141  CD1       11.3370   10.0060   30.7110 C.ar  224  PHE224     -0.0042
    142  CD2       10.9010   12.3690   30.5770 C.ar  224  PHE224     -0.0042
    143  CE1       10.2660    9.8420   31.5390 C.ar  224  PHE224     -0.0003
    144  CE2        9.7980   12.1890   31.4340 C.ar  224  PHE224     -0.0003
    145  CZ         9.4930   10.9280   31.8890 C.ar  224  PHE224     -0.0000
    146  N         13.1610   14.9550   29.7300 N.am  225  PHE225     -0.1974
    147  CA        12.8320   16.2620   29.2170 C.3   225  PHE225      0.1639
    148  C         14.0850   16.9160   28.6250 C.2   225  PHE225      0.2290
    149  O         13.9870   17.9150   27.9090 O.2   225  PHE225     -0.2864
    150  CB        12.2090   17.1220   30.3260 C.3   225  PHE225      0.0560
    151  CG        10.8650   16.6270   30.7710 C.ar  225  PHE225     -0.0200
    152  CD1        9.8050   16.5970   29.8610 C.ar  225  PHE225     -0.0042
    153  CD2       10.6540   16.1650   32.0490 C.ar  225  PHE225     -0.0042
    154  CE1        8.5590   16.1260   30.2420 C.ar  225  PHE225     -0.0003
    155  CE2        9.3880   15.6810   32.4400 C.ar  225  PHE225     -0.0003
    156  CZ         8.3550   15.6770   31.5200 C.ar  225  PHE225     -0.0000
    157  N          6.0180    2.9060   28.0750 N.3   238  SER238     -0.1202
    158  CA         4.9790    2.0450   28.6780 C.3   238  SER238      0.2020
    159  C          4.4340    2.7020   29.9580 C.2   238  SER238      0.2619
    160  O          5.1620    3.0350   30.8750 O.2   238  SER238     -0.2717
    161  CB         5.6030    0.7000   29.0020 C.3   238  SER238      0.2103
    162  OG         4.6940   -0.1210   29.7390 O.3   238  SER238     -0.2182
    163  N          3.1330    2.9750   29.9690 N.am  239  LEU239     -0.1965
    164  CA         2.4400    3.6110   31.0920 C.3   239  LEU239      0.1728
    165  C          3.2100    4.8310   31.4960 C.2   239  LEU239      0.2616
    166  O          3.4260    5.0770   32.6890 O.2   239  LEU239     -0.2715
    167  CB         2.2910    2.6270   32.2480 C.3   239  LEU239      0.0311
    168  CG         1.5100    1.3780   31.8630 C.3   239  LEU239      0.0022
    169  CD1        1.6730    0.3110   32.9400 C.3   239  LEU239      0.0001
    170  CD2        0.0360    1.6890   31.6910 C.3   239  LEU239      0.0001
    171  N          3.5800    5.6150   30.4780 N.am  240  LEU240     -0.1977
    172  CA         4.4430    6.7780   30.6400 C.3   240  LEU240      0.1596
    173  C          3.7300    8.0600   30.2580 C.2   240  LEU240      0.2287
    174  O          3.6150    8.9630   31.0840 O.2   240  LEU240     -0.2864
    175  CB         5.7420    6.6430   29.8160 C.3   240  LEU240      0.0297
    176  CG         6.5930    7.9230   29.8920 C.3   240  LEU240      0.0022
    177  CD1        7.0860    8.1630   31.3000 C.3   240  LEU240      0.0001
    178  CD2        7.7560    7.8950   28.9040 C.3   240  LEU240      0.0001
    179  N          0.7330    8.7530   29.9370 N.3   242  HIS242     -0.1226
    180  CA        -0.4510    9.0580   30.7310 C.3   242  HIS242      0.1752
    181  C         -0.1010    9.8060   32.0180 C.2   242  HIS242      0.2596
    182  O         -0.9970   10.2820   32.7220 O.2   242  HIS242     -0.2718
    183  CB        -1.2950    7.8110   31.0060 C.3   242  HIS242      0.0759
    184  CG        -0.6930    6.8960   32.0130 C.ar  242  HIS242      0.0818
    185  ND1       -1.4190    5.9190   32.6340 N.ar  242  HIS242     -0.2268
    186  CD2        0.5570    6.8150   32.5190 C.ar  242  HIS242      0.1154
    187  CE1       -0.6390    5.2570   33.4750 C.ar  242  HIS242      0.1986
    188  NE2        0.5600    5.8020   33.4480 N.ar  242  HIS242     -0.2212
    189  N          1.1940    9.9720   32.3130 N.am  243  ASP243     -0.1960
    190  CA         1.6320   10.7620   33.4490 C.3   243  ASP243      0.1840
    191  C          1.7850   12.2470   33.1060 C.2   243  ASP243      0.2622
    192  O          2.0740   13.0230   34.0080 O.2   243  ASP243     -0.2715
    193  CB         3.0380   10.3600   33.8950 C.3   243  ASP243      0.1450
    194  CG         3.1270    9.0150   34.5550 C.2   243  ASP243      0.3671
    195  OD1        2.0800    8.3980   34.8550 O.co2 243  ASP243     -0.2456
    196  OD2        4.3050    8.5850   34.7460 O.co2 243  ASP243     -0.2456
    197  N          1.6130   12.6360   31.8300 N.am  244  TRP244     -0.1974
    198  CA         1.9950   13.9670   31.3910 C.3   244  TRP244      0.1640
    199  C          0.9350   14.6450   30.5430 C.2   244  TRP244      0.2290
    200  O          0.3180   14.0130   29.6920 O.2   244  TRP244     -0.2864
    201  CB         3.3370   13.8760   30.6060 C.3   244  TRP244      0.0576
    202  CG         4.4480   13.3510   31.4430 C.ar  244  TRP244      0.0006
    203  CD1        4.9680   12.0920   31.4020 C.ar  244  TRP244      0.0946
    204  CD2        5.0860   14.0180   32.5560 C.ar  244  TRP244      0.0152
    205  NE1        5.9250   11.9650   32.3620 N.ar  244  TRP244     -0.2442
    206  CE2        6.0040   13.1010   33.1080 C.ar  244  TRP244      0.0810
    207  CE3        4.9620   15.2840   33.1470 C.ar  244  TRP244      0.0012
    208  CZ2        6.8090   13.4070   34.1920 C.ar  244  TRP244      0.0191
    209  CZ3        5.7450   15.5860   34.2290 C.ar  244  TRP244      0.0001
    210  CH2        6.6540   14.6520   34.7510 C.ar  244  TRP244      0.0015
@<TRIPOS>BOND
     1    52    53    1
     2    53    54    1
     3    53    56    1
     4   138   137    2
     5   149   148    2
     6    87    85    1
     7    86    85    1
     8   157   158    1
     9    54    55    2
    10    56    57    1
    11    85    84    1
    12   148   147    1
    13   158   161    1
    14   158   159    1
    15    83    82    2
    16   178   176    1
    17   137   136    1
    18   137   146   am
    19   161   162    1
    20    57    58   ar
    21    57    59   ar
    22   147   146    1
    23   147   150    1
    24   139   136    1
    25   139   140    1
    26   136   135    1
    27    82    81    1
    28   200   199    2
    29   175   176    1
    30   175   172    1
    31    92    93    1
    32    92    89    1
    33   152   154   ar
    34   152   151   ar
    35   176   177    1
    36   179   180    1
    37    84    81    1
    38    95    93   ar
    39    95    97   ar
    40   159   163   am
    41   159   160    2
    42   163   164    1
    43    93    94   ar
    44    97    98   ar
    45   140   142   ar
    46   140   141   ar
    47   154   156   ar
    48   173   172    1
    49   173   174    2
    50   130   129    2
    51    94    96   ar
    52   150   151    1
    53    98    96   ar
    54   171   172    1
    55   171   165   am
    56    81    80    1
    57   199   198    1
    58   142   144   ar
    59   201   198    1
    60   201   202    1
    61    60    61    1
    62   141   143   ar
    63   180   183    1
    64   180   181    1
    65   151   153   ar
    66    88    89    1
    67   135   129   am
    68   183   184    1
    69   164   165    1
    70   164   167    1
    71    89    90    1
    72   129   128    1
    73   198   197    1
    74   203   202   ar
    75   203   205   ar
    76   144   145   ar
    77   202   204   ar
    78   165   166    2
    79   156   155   ar
    80   143   145   ar
    81   170   168    1
    82   197   191   am
    83   168   167    1
    84   168   169    1
    85    61    62    1
    86    80    75   am
    87    91    90    2
    88    68    65    1
    89   184   186   ar
    90   184   185   ar
    91   181   189   am
    92   181   182    2
    93   153   155   ar
    94    90    99   am
    95    76    75    2
    96    62    64   am
    97    62    63    2
    98    64    65    1
    99   189   190    1
   100   205   206   ar
   101    65    66    1
   102   186   188   ar
   103   204   206   ar
   104   204   207   ar
   105   133   132   ar
   106   128   127    1
   107   128   131    1
   108    75    74    1
   109   185   187   ar
   110   127   125   am
   111   191   190    1
   112   191   192    2
   113   206   208   ar
   114   132   131    1
   115   132   134   ar
   116    51    49    1
   117    99   100    1
   118   207   209   ar
   119   124   125    1
   120   124   123    1
   121   125   126    2
   122   188   187   ar
   123   190   193    1
   124    48    47    2
   125    66    67    2
   126    66    69   am
   127   193   194    1
   128    74    73    1
   129    74    77    1
   130   100   101    1
   131   100   103    1
   132   208   210   ar
   133   209   210   ar
   134    73    79    1
   135   102   101    2
   136    49    50    1
   137    49    46    1
   138   194   196   ar
   139   194   195   ar
   140    47    46    1
   141    46    45    1
   142    69    70    1
   143   101   107   am
   144    77    78    1
   145   103   104    1
   146   106   104   ar
   147    78    79    1
   148   104   105   ar
   149   107   108    1
   150    39    37   am
   151    72    71    2
   152    70    71    1
   153   108   109    1
   154   108   111    1
   155    37    36    1
   156    37    38    2
   157   109   110    2
   158    10    11   ar
   159    10     8   ar
   160   112   111    1
   161   112   113    1
   162    36    35    1
   163    43    42    2
   164    34    33    2
   165    11     9   ar
   166     8     6   ar
   167   121   120    1
   168    41    42    1
   169    41    44    1
   170    41    40    1
   171   113   115   am
   172   113   114    2
   173    33    40   am
   174    33    32    1
   175     9     7   ar
   176   118   119    2
   177   118   117    1
   178     6     7   ar
   179     6     5    1
   180   120   117    1
   181   120   122    1
   182    35    32    1
   183    32    31    1
   184     5     2    1
   185    22    21   ar
   186    22    20   ar
   187   117   116    1
   188    21    19   ar
   189    30    28   am
   190    20    18   ar
   191    26    25    2
   192     2     1    1
   193     2     3    1
   194    19    17   ar
   195    28    27    1
   196    28    29    2
   197     3     4    2
   198    24    25    1
   199    24    27    1
   200    24    23    1
   201    18    17   ar
   202    15    14    2
   203    17    16    1
   204    14    23   am
   205    14    13    1
   206    16    13    1
   207    13    12    1
