@<TRIPOS>MOLECULE
tmp/6c5fB00.pdb
 98 90 0 0 0
SMALL
GASTEIGER

@<TRIPOS>ATOM
      1  N        -32.9020  -12.4030   -2.1180 N.3     1  PRO1       -0.2102
      2  CA       -34.3010  -12.9090   -2.1840 C.3     1  PRO1        0.1504
      3  C        -34.4480  -13.7820   -3.3750 C.2     1  PRO1        0.2575
      4  O        -33.6930  -13.6590   -4.3410 O.2     1  PRO1       -0.2718
      5  CB       -35.1000  -11.6450   -2.3280 C.3     1  PRO1        0.0282
      6  CG       -34.3760  -10.6440   -1.6100 C.3     1  PRO1        0.0208
      7  CD       -32.9210  -11.0050   -1.6430 C.3     1  PRO1        0.0893
      8  N        -35.4670  -14.6500   -3.3380 N.am    2  PHE2       -0.1977
      9  CA       -35.7450  -15.5900   -4.4170 C.3     2  PHE2        0.1639
     10  C        -37.1730  -15.3940   -4.8340 C.2     2  PHE2        0.2290
     11  O        -38.0980  -15.6710   -4.0290 O.2     2  PHE2       -0.2864
     12  CB       -35.5200  -17.0460   -3.9550 C.3     2  PHE2        0.0560
     13  CG       -34.0790  -17.3130   -3.5770 C.ar    2  PHE2       -0.0200
     14  CD1      -33.5980  -16.9410   -2.3470 C.ar    2  PHE2       -0.0042
     15  CD2      -33.2280  -17.9880   -4.4440 C.ar    2  PHE2       -0.0042
     16  CE1      -32.2570  -17.1740   -2.0420 C.ar    2  PHE2       -0.0003
     17  CE2      -31.9430  -18.1890   -4.1260 C.ar    2  PHE2       -0.0003
     18  CZ       -31.4570  -17.8130   -2.9270 C.ar    2  PHE2       -0.0000
     19  N        -32.9800   -5.2760    0.1660 N.3    32  LYS32      -0.1245
     20  CA       -31.9040   -6.2470    0.0520 C.3    32  LYS32       0.1561
     21  C        -31.0160   -5.8090   -1.1480 C.2    32  LYS32       0.2260
     22  O        -31.5080   -5.1740   -2.0480 O.2    32  LYS32      -0.2867
     23  CB       -32.4400   -7.6600   -0.2160 C.3    32  LYS32       0.0271
     24  CG       -33.2150   -8.2570    0.9380 C.3    32  LYS32       0.0035
     25  CD       -32.4160   -8.7770    2.0710 C.3    32  LYS32       0.0206
     26  CE       -33.3170   -9.3900    3.1400 C.3    32  LYS32       0.1093
     27  NZ       -32.5470   -9.8260    4.3130 N.3    32  LYS32      -0.1314
     28  N        -28.0660   -9.6410   -4.7670 N.3    36  ARG36      -0.1245
     29  CA       -28.5090  -10.7540   -3.9420 C.3    36  ARG36       0.1563
     30  C        -29.9660  -11.1070   -4.2740 C.2    36  ARG36       0.2260
     31  O        -30.6030  -11.8720   -3.5500 O.2    36  ARG36      -0.2867
     32  CB       -28.3730  -10.4110   -2.4570 C.3    36  ARG36       0.0307
     33  CG       -26.9700  -10.0000   -2.0420 C.3    36  ARG36       0.0489
     34  CD       -26.0270  -11.1920   -2.0270 C.3    36  ARG36       0.2205
     35  NE       -24.7980  -10.9090   -1.2900 N.pl3  36  ARG36      -0.0865
     36  CZ       -23.6020  -10.7800   -1.8530 C.cat  36  ARG36       0.5346
     37  NH1      -23.4670  -10.9090   -3.1660 N.pl3  36  ARG36       0.1354
     38  NH2      -22.5380  -10.5220   -1.1040 N.pl3  36  ARG36       0.1354
     39  N        -32.8140  -12.6820   -6.8960 N.3    38  ASN38      -0.1240
     40  CA       -32.9840  -13.7490   -7.8610 C.3    38  ASN38       0.1653
     41  C        -34.4420  -13.7510   -8.3390 C.2    38  ASN38       0.2266
     42  O        -35.3290  -13.6500   -7.5000 O.2    38  ASN38      -0.2867
     43  CB       -32.6630  -15.0880   -7.2000 C.3    38  ASN38       0.1155
     44  CG       -31.2310  -15.1040   -6.6810 C.2    38  ASN38       0.2627
     45  OD1      -30.3420  -15.2890   -7.4570 O.2    38  ASN38      -0.2716
     46  ND2      -31.0410  -14.7870   -5.4430 N.am   38  ASN38      -0.0877
     47  N        -37.1900  -15.0420    1.4190 N.3    63  SER63      -0.1202
     48  CA       -36.0450  -14.1820    1.8770 C.3    63  SER63       0.2020
     49  C        -35.8580  -14.3450    3.3750 C.2    63  SER63       0.2618
     50  O        -36.7870  -14.8090    4.0740 O.2    63  SER63      -0.2717
     51  CB       -36.4030  -12.7300    1.5590 C.3    63  SER63       0.2103
     52  OG       -35.2930  -11.8490    1.7240 O.3    63  SER63      -0.2182
     53  N        -34.6870  -14.0210    3.8350 N.am   64  ILE64      -0.1979
     54  CA       -34.3470  -14.0390    5.2460 C.3    64  ILE64       0.1595
     55  C        -34.8460  -12.7930    5.9270 C.2    64  ILE64       0.2287
     56  O        -34.5940  -11.6900    5.4730 O.2    64  ILE64      -0.2864
     57  CB       -32.8510  -14.2150    5.4890 C.3    64  ILE64       0.0276
     58  CG1      -32.2820  -15.5070    4.8310 C.3    64  ILE64       0.0022
     59  CG2      -32.5920  -14.2170    7.0210 C.3    64  ILE64       0.0022
     60  CD1      -30.7620  -15.6520    4.9760 C.3    64  ILE64       0.0001
     61  N        -36.9970  -17.6670    4.8600 N.3   102  LEU102     -0.1245
     62  CA       -35.8630  -18.5580    4.7660 C.3   102  LEU102      0.1561
     63  C        -34.8950  -18.2770    5.8700 C.2   102  LEU102      0.2260
     64  O        -34.8540  -17.1780    6.4030 O.2   102  LEU102     -0.2867
     65  CB       -35.1380  -18.2670    3.4340 C.3   102  LEU102      0.0270
     66  CG       -35.7790  -18.7020    2.1830 C.3   102  LEU102      0.0019
     67  CD1      -34.7480  -18.1900    1.0230 C.3   102  LEU102      0.0001
     68  CD2      -35.7420  -20.1890    2.0720 C.3   102  LEU102      0.0001
     69  N        -30.4600  -18.8460    6.8050 N.3   104  SER104     -0.1217
     70  CA       -29.2060  -19.0380    6.0830 C.3   104  SER104      0.1889
     71  C        -28.7690  -20.4630    5.9150 C.2   104  SER104      0.2288
     72  O        -28.1240  -20.7880    4.9530 O.2   104  SER104     -0.2866
     73  CB       -28.0420  -18.2120    6.6850 C.3   104  SER104      0.2089
     74  OG       -27.8500  -18.6460    8.0200 O.3   104  SER104     -0.2183
     75  N        -29.4800  -22.1850    2.5330 N.3   107  ILE107     -0.1245
     76  CA       -28.9730  -21.6390    1.2510 C.3   107  ILE107      0.1561
     77  C        -27.5520  -22.1030    0.9790 C.2   107  ILE107      0.2260
     78  O        -26.6440  -21.8300    1.7610 O.2   107  ILE107     -0.2867
     79  CB       -29.0500  -20.1190    1.2170 C.3   107  ILE107      0.0252
     80  CG1      -30.4320  -19.5760    1.5670 C.3   107  ILE107      0.0019
     81  CG2      -28.6170  -19.6270   -0.1720 C.3   107  ILE107      0.0019
     82  CD1      -30.4190  -18.0850    1.7660 C.3   107  ILE107      0.0001
     83  N        -24.4040  -21.6880   -1.4050 N.3   109  LYS109     -0.1245
     84  CA       -23.8040  -20.6590   -2.2680 C.3   109  LYS109      0.1561
     85  C        -22.3090  -20.9280   -2.3730 C.2   109  LYS109      0.2260
     86  O        -21.6880  -21.3030   -1.3890 O.2   109  LYS109     -0.2867
     87  CB       -24.0560  -19.3170   -1.6220 C.3   109  LYS109      0.0271
     88  CG       -23.5140  -18.0860   -2.2210 C.3   109  LYS109      0.0035
     89  CD       -23.9460  -16.8950   -1.3630 C.3   109  LYS109      0.0206
     90  CE       -23.1330  -15.6630   -1.6150 C.3   109  LYS109      0.1093
     91  NZ       -23.5620  -14.7650   -0.4300 N.3   109  LYS109     -0.1314
     92  N        -22.3580  -23.6420    2.8110 N.3   113  VAL113     -0.1245
     93  CA       -23.4100  -23.0900    3.6110 C.3   113  VAL113      0.1561
     94  C        -22.7990  -22.5070    4.9050 C.2   113  VAL113      0.2260
     95  O        -23.2210  -21.4310    5.3150 O.2   113  VAL113     -0.2867
     96  CB       -24.4700  -24.1510    3.9730 C.3   113  VAL113      0.0252
     97  CG1      -25.4670  -23.5950    4.9720 C.3   113  VAL113      0.0019
     98  CG2      -25.1560  -24.6820    2.7240 C.3   113  VAL113      0.0019
@<TRIPOS>BOND
     1    41    40    1
     2    41    42    2
     3    40    43    1
     4    40    39    1
     5    45    44    2
     6    43    44    1
     7    44    46   am
     8    10     9    1
     9    10    11    2
    10    28    29    1
    11    15    17   ar
    12    15    13   ar
    13     9    12    1
    14     9     8    1
    15     4     3    2
    16    30    29    1
    17    30    31    2
    18    17    18   ar
    19    12    13    1
    20    29    32    1
    21    13    14   ar
    22     3     8   am
    23     3     2    1
    24    37    36    1
    25    18    16   ar
    26    32    33    1
    27    85    84    1
    28    85    86    2
    29    14    16   ar
    30     5     2    1
    31     5     6    1
    32    84    87    1
    33    84    83    1
    34    88    87    1
    35    88    89    1
    36     2     1    1
    37     1     7    1
    38    22    21    2
    39    33    34    1
    40    34    35    1
    41    36    35    2
    42    36    38    1
    43     7     6    1
    44    90    89    1
    45    90    91    1
    46    21    20    1
    47    23    20    1
    48    23    24    1
    49    81    79    1
    50    20    19    1
    51    24    25    1
    52    77    76    1
    53    77    78    2
    54    67    66    1
    55    79    76    1
    56    79    80    1
    57    76    75    1
    58    47    48    1
    59    51    52    1
    60    51    48    1
    61    80    82    1
    62    48    49    1
    63    25    26    1
    64    68    66    1
    65    66    65    1
    66    98    96    1
    67    92    93    1
    68    26    27    1
    69    49    53   am
    70    49    50    2
    71    65    62    1
    72    93    96    1
    73    93    94    1
    74    53    54    1
    75    96    97    1
    76    62    61    1
    77    62    63    1
    78    58    60    1
    79    58    57    1
    80    94    95    2
    81    72    71    2
    82    54    57    1
    83    54    55    1
    84    56    55    2
    85    57    59    1
    86    63    64    2
    87    71    70    1
    88    70    73    1
    89    70    69    1
    90    73    74    1
