@<TRIPOS>MOLECULE
tmp/6c5hA03.pdb
 77 73 0 0 0
SMALL
GASTEIGER

@<TRIPOS>ATOM
      1  N         12.9640   24.5700    8.6630 N.3    38  GLN38      -0.1231
      2  CA        14.0720   24.4590    7.7590 C.3    38  GLN38       0.1698
      3  C         13.8620   25.3830    6.5680 C.2    38  GLN38       0.2593
      4  O         12.8340   25.3270    5.9280 O.2    38  GLN38      -0.2718
      5  CB        14.2350   23.0200    7.2840 C.3    38  GLN38       0.0381
      6  CG        15.5930   22.7750    6.6290 C.3    38  GLN38       0.0905
      7  CD        15.8400   21.3060    6.3220 C.2    38  GLN38       0.2608
      8  OE1       14.9170   20.5620    6.0250 O.2    38  GLN38      -0.2717
      9  NE2       17.0940   20.8830    6.4110 N.am   38  GLN38      -0.0878
     10  N         14.8540   26.2100    6.2720 N.am   39  SER39      -0.1939
     11  CA        14.8240   27.0970    5.1000 C.3    39  SER39       0.2040
     12  C         16.1810   27.0680    4.3960 C.2    39  SER39       0.2485
     13  O         17.1960   26.7620    5.0310 O.2    39  SER39      -0.2729
     14  CB        14.4850   28.5320    5.5350 C.3    39  SER39       0.2129
     15  OG        15.5290   29.1030    6.3170 O.3    39  SER39      -0.2179
     16  N         16.2180   27.3580    3.0740 N.am   40  PRO40      -0.2726
     17  CA        17.5480   27.4260    2.4350 C.3    40  PRO40       0.1402
     18  C         18.4120   28.5790    2.9690 C.2    40  PRO40       0.2269
     19  O         19.6110   28.4270    3.0850 O.2    40  PRO40      -0.2865
     20  CB        17.2180   27.6230    0.9440 C.3    40  PRO40       0.0296
     21  CG        15.8200   27.1190    0.8010 C.3    40  PRO40       0.0237
     22  CD        15.1360   27.5010    2.0870 C.3    40  PRO40       0.0939
     23  N          9.3940   31.8130    4.9650 N.3    89  THR89      -0.1203
     24  CA         9.1260   30.6810    4.0700 C.3    89  THR89       0.1994
     25  C         10.0470   29.5150    4.4740 C.2    89  THR89       0.2618
     26  O         11.2660   29.6790    4.5690 O.2    89  THR89      -0.2717
     27  CB         9.3140   31.0950    2.5870 C.3    89  THR89       0.1784
     28  OG1        8.3380   32.0950    2.2600 O.3    89  THR89      -0.2211
     29  CG2        9.1940   29.8980    1.6120 C.3    89  THR89       0.0376
     30  N          9.4440   28.3710    4.7790 N.am   90  ALA90      -0.1965
     31  CA        10.1640   27.2310    5.3660 C.3    90  ALA90       0.1728
     32  C          9.2670   26.0050    5.4670 C.2    90  ALA90       0.2616
     33  O          8.0420   26.1290    5.3470 O.2    90  ALA90      -0.2715
     34  CB        10.6870   27.6050    6.7590 C.3    90  ALA90       0.0334
     35  N          9.8780   24.8260    5.6690 N.am   91  VAL91      -0.1977
     36  CA         9.1570   23.6580    6.1250 C.3    91  VAL91       0.1596
     37  C          9.1590   23.7330    7.6460 C.2    91  VAL91       0.2287
     38  O         10.2240   23.8240    8.2550 O.2    91  VAL91      -0.2864
     39  CB         9.8110   22.3200    5.6910 C.3    91  VAL91       0.0276
     40  CG1        9.0220   21.1200    6.2210 C.3    91  VAL91       0.0022
     41  CG2        9.9150   22.2370    4.1820 C.3    91  VAL91       0.0022
     42  N          5.1210   22.6900    4.4420 N.3   112  LEU112     -0.1245
     43  CA         5.7800   23.6940    3.6420 C.3   112  LEU112      0.1561
     44  C          4.9110   24.9430    3.6550 C.2   112  LEU112      0.2260
     45  O          3.7540   24.8810    3.2570 O.2   112  LEU112     -0.2867
     46  CB         5.9620   23.2000    2.1950 C.3   112  LEU112      0.0270
     47  CG         6.5290   24.2340    1.2160 C.3   112  LEU112      0.0019
     48  CD1        7.9150   24.7030    1.6430 C.3   112  LEU112      0.0001
     49  CD2        6.5610   23.6330   -0.1800 C.3   112  LEU112      0.0001
     50  N          4.7850   28.8820    2.3010 N.3   114  THR114     -0.1218
     51  CA         5.2610   29.9970    1.5020 C.3   114  THR114      0.1862
     52  C          4.5780   31.2780    1.9710 C.2   114  THR114      0.2287
     53  O          3.3470   31.3230    2.0990 O.2   114  THR114     -0.2866
     54  CB         4.9300   29.7710    0.0180 C.3   114  THR114      0.1770
     55  OG1        5.3830   28.4700   -0.3500 O.3   114  THR114     -0.2211
     56  CG2        5.5870   30.8370   -0.8570 C.3   114  THR114      0.0375
     57  N          4.3610   26.1680   -4.3550 N.3   147  GLU147     -0.1245
     58  CA         4.7790   24.7750   -4.1870 C.3   147  GLU147      0.1567
     59  C          3.8140   24.0840   -3.2050 C.2   147  GLU147      0.2260
     60  O          3.3160   24.7700   -2.2910 O.2   147  GLU147     -0.2867
     61  CB         6.1900   24.7280   -3.6130 C.3   147  GLU147      0.0388
     62  CG         7.2520   25.0860   -4.6290 C.3   147  GLU147      0.1160
     63  CD         7.8000   23.8760   -5.3300 C.2   147  GLU147      0.3649
     64  OE1        9.0020   23.6410   -5.1490 O.co2 147  GLU147     -0.2457
     65  OE2        7.0500   23.1460   -6.0380 O.co2 147  GLU147     -0.2457
     66  N          6.5640   29.1010  -10.4400 N.3   174  TYR174     -0.1241
     67  CA         7.4350   27.9170  -10.4660 C.3   174  TYR174      0.1605
     68  C          7.3280   27.1420  -11.7760 C.2   174  TYR174      0.2264
     69  O          6.2530   27.0260  -12.3560 O.2   174  TYR174     -0.2867
     70  CB         7.1150   26.9940   -9.2900 C.3   174  TYR174      0.0534
     71  CG         7.4840   27.5820   -7.9580 C.ar  174  TYR174     -0.0201
     72  CD1        8.8170   27.5920   -7.5120 C.ar  174  TYR174     -0.0009
     73  CD2        6.5000   28.1250   -7.1180 C.ar  174  TYR174     -0.0009
     74  CE1        9.1480   28.1230   -6.2730 C.ar  174  TYR174      0.0417
     75  CE2        6.8350   28.6790   -5.9040 C.ar  174  TYR174      0.0417
     76  CZ         8.1490   28.6750   -5.4780 C.ar  174  TYR174      0.1957
     77  OH         8.4470   29.2220   -4.2520 O.3   174  TYR174     -0.2866
@<TRIPOS>BOND
     1    69    68    2
     2    68    67    1
     3    67    66    1
     4    67    70    1
     5    70    71    1
     6    71    72   ar
     7    71    73   ar
     8    72    74   ar
     9    73    75   ar
    10    74    76   ar
    11    65    63   ar
    12    75    76   ar
    13    76    77    1
    14    63    64   ar
    15    63    62    1
    16    62    61    1
    17    57    58    1
    18    58    61    1
    19    58    59    1
    20    59    60    2
    21    56    54    1
    22    55    54    1
    23    49    47    1
    24    54    51    1
    25    21    20    1
    26    21    22    1
    27    20    17    1
    28    47    48    1
    29    47    46    1
    30    51    52    1
    31    51    50    1
    32    29    27    1
    33    52    53    2
    34    22    16    1
    35    46    43    1
    36    28    27    1
    37    17    18    1
    38    17    16    1
    39    27    24    1
    40    18    19    2
    41    16    12   am
    42    45    44    2
    43    43    44    1
    44    43    42    1
    45    24    25    1
    46    24    23    1
    47    41    39    1
    48    12    13    2
    49    12    11    1
    50    25    26    2
    51    25    30   am
    52    30    31    1
    53    11    14    1
    54    11    10    1
    55    33    32    2
    56    31    32    1
    57    31    34    1
    58    32    35   am
    59    14    15    1
    60    35    36    1
    61    39    36    1
    62    39    40    1
    63     4     3    2
    64     8     7    2
    65    36    37    1
    66    10     3   am
    67     7     9   am
    68     7     6    1
    69     3     2    1
    70     6     5    1
    71     5     2    1
    72    37    38    2
    73     2     1    1
