@<TRIPOS>MOLECULE
tmp/6c5hA02.pdb
 86 81 0 0 0
SMALL
GASTEIGER

@<TRIPOS>ATOM
      1  N          8.3450   37.2460    4.1270 N.3    86  PRO86      -0.2102
      2  CA         8.7790   36.3330    3.0560 C.3    86  PRO86       0.1504
      3  C          9.8860   35.3460    3.4560 C.2    86  PRO86       0.2575
      4  O          9.8200   34.1730    3.0730 O.2    86  PRO86      -0.2718
      5  CB         9.2430   37.2890    1.9580 C.3    86  PRO86       0.0282
      6  CG         8.3230   38.4590    2.1170 C.3    86  PRO86       0.0208
      7  CD         8.1460   38.6160    3.6040 C.3    86  PRO86       0.0893
      8  N         10.8420   35.7920    4.2620 N.am   87  ASN87      -0.1975
      9  CA        11.9190   34.8990    4.7390 C.3    87  ASN87       0.1688
     10  C         11.5410   33.9890    5.9320 C.2    87  ASN87       0.2292
     11  O         12.3960   33.2860    6.4650 O.2    87  ASN87      -0.2864
     12  CB        13.2190   35.6690    5.0080 C.3    87  ASN87       0.1181
     13  CG        13.0770   36.7340    6.0730 C.2    87  ASN87       0.2629
     14  OD1       12.2370   36.6440    6.9610 O.2    87  ASN87      -0.2716
     15  ND2       13.9150   37.7730    5.9720 N.am   87  ASN87      -0.0877
     16  N          9.3940   31.8130    4.9650 N.3    89  THR89      -0.1218
     17  CA         9.1260   30.6810    4.0700 C.3    89  THR89       0.1862
     18  C         10.0470   29.5150    4.4740 C.2    89  THR89       0.2287
     19  O         11.2660   29.6790    4.5690 O.2    89  THR89      -0.2866
     20  CB         9.3140   31.0950    2.5870 C.3    89  THR89       0.1770
     21  OG1        8.3380   32.0950    2.2600 O.3    89  THR89      -0.2211
     22  CG2        9.1940   29.8980    1.6120 C.3    89  THR89       0.0375
     23  N          4.7850   28.8820    2.3010 N.3   114  THR114     -0.1203
     24  CA         5.2610   29.9970    1.5020 C.3   114  THR114      0.1994
     25  C          4.5780   31.2780    1.9710 C.2   114  THR114      0.2618
     26  O          3.3470   31.3230    2.0990 O.2   114  THR114     -0.2717
     27  CB         4.9300   29.7710    0.0180 C.3   114  THR114      0.1784
     28  OG1        5.3830   28.4700   -0.3500 O.3   114  THR114     -0.2211
     29  CG2        5.5870   30.8370   -0.8570 C.3   114  THR114      0.0376
     30  N          5.3850   32.3000    2.2390 N.am  115  VAL115     -0.1965
     31  CA         4.8830   33.5870    2.6730 C.3   115  VAL115      0.1727
     32  C          5.0340   34.5050    1.4720 C.2   115  VAL115      0.2616
     33  O          6.1490   34.8600    1.1050 O.2   115  VAL115     -0.2715
     34  CB         5.6410   34.1500    3.8950 C.3   115  VAL115      0.0290
     35  CG1        4.9900   35.4480    4.3820 C.3   115  VAL115      0.0023
     36  CG2        5.6840   33.1280    5.0260 C.3   115  VAL115      0.0023
     37  N          3.9100   34.8510    0.8490 N.am  116  SER116     -0.1950
     38  CA         3.9210   35.6670   -0.3620 C.3   116  SER116      0.1924
     39  C          2.5390   36.2400   -0.6410 C.2   116  SER116      0.2314
     40  O          1.5290   35.6210   -0.3110 O.2   116  SER116     -0.2863
     41  CB         4.3530   34.8200   -1.5560 C.3   116  SER116      0.2116
     42  OG         4.2780   35.5290   -2.7780 O.3   116  SER116     -0.2180
     43  N          1.7250   36.8490   -3.8220 N.3   118  ALA118     -0.1245
     44  CA         1.3760   36.3410   -5.1550 C.3   118  ALA118      0.1562
     45  C          0.2110   35.3650   -5.0660 C.2   118  ALA118      0.2260
     46  O          0.0970   34.6290   -4.0850 O.2   118  ALA118     -0.2867
     47  CB         2.5800   35.6640   -5.8040 C.3   118  ALA118      0.0290
     48  N          1.9390   28.2810   -8.7990 N.3   145  PHE145     -0.1241
     49  CA         2.2420   28.8890   -7.5020 C.3   145  PHE145      0.1605
     50  C          1.1230   28.5070   -6.5310 C.2   145  PHE145      0.2264
     51  O         -0.0360   28.4850   -6.9490 O.2   145  PHE145     -0.2867
     52  CB         2.3370   30.4140   -7.6180 C.3   145  PHE145      0.0534
     53  CG         2.8020   31.0800   -6.3550 C.ar  145  PHE145     -0.0203
     54  CD1        4.1580   31.1150   -6.0380 C.ar  145  PHE145     -0.0042
     55  CD2        1.8970   31.6380   -5.4590 C.ar  145  PHE145     -0.0042
     56  CE1        4.6080   31.7050   -4.8660 C.ar  145  PHE145     -0.0003
     57  CE2        2.3400   32.2240   -4.2760 C.ar  145  PHE145     -0.0003
     58  CZ         3.7000   32.2600   -3.9860 C.ar  145  PHE145     -0.0000
     59  N         12.1630   29.3200  -10.0270 N.3   169  LEU169     -0.1245
     60  CA        11.3060   30.4750  -10.1710 C.3   169  LEU169      0.1561
     61  C         11.5970   31.1310  -11.5250 C.2   169  LEU169      0.2260
     62  O         12.7510   31.2970  -11.9000 O.2   169  LEU169     -0.2867
     63  CB        11.5800   31.4330   -9.0040 C.3   169  LEU169      0.0270
     64  CG        10.4590   32.1670   -8.2680 C.3   169  LEU169      0.0019
     65  CD1        9.2720   31.2910   -7.8960 C.3   169  LEU169      0.0001
     66  CD2       11.0720   32.7850   -7.0160 C.3   169  LEU169      0.0001
     67  N          8.2300   35.0700  -11.5000 N.3   172  ASP172     -0.1239
     68  CA         7.5590   34.9330  -10.1970 C.3   172  ASP172      0.1674
     69  C          6.5910   33.7470  -10.0590 C.2   172  ASP172      0.2266
     70  O          5.7150   33.7710   -9.2100 O.2   172  ASP172     -0.2867
     71  CB         6.8840   36.2680   -9.8120 C.3   172  ASP172      0.1410
     72  CG         7.8960   37.4120   -9.6280 C.2   172  ASP172      0.3668
     73  OD1        9.1040   37.2150   -9.8860 O.co2 172  ASP172     -0.2456
     74  OD2        7.4840   38.5210   -9.2300 O.co2 172  ASP172     -0.2456
     75  N          6.5640   29.1010  -10.4400 N.3   174  TYR174     -0.1241
     76  CA         7.4350   27.9170  -10.4660 C.3   174  TYR174      0.1605
     77  C          7.3280   27.1420  -11.7760 C.2   174  TYR174      0.2264
     78  O          6.2530   27.0260  -12.3560 O.2   174  TYR174     -0.2867
     79  CB         7.1150   26.9940   -9.2900 C.3   174  TYR174      0.0534
     80  CG         7.4840   27.5820   -7.9580 C.ar  174  TYR174     -0.0201
     81  CD1        8.8170   27.5920   -7.5120 C.ar  174  TYR174     -0.0009
     82  CD2        6.5000   28.1250   -7.1180 C.ar  174  TYR174     -0.0009
     83  CE1        9.1480   28.1230   -6.2730 C.ar  174  TYR174      0.0417
     84  CE2        6.8350   28.6790   -5.9040 C.ar  174  TYR174      0.0417
     85  CZ         8.1490   28.6750   -5.4780 C.ar  174  TYR174      0.1957
     86  OH         8.4470   29.2220   -4.2520 O.3   174  TYR174     -0.2866
@<TRIPOS>BOND
     1    78    77    2
     2    62    61    2
     3    77    76    1
     4    61    60    1
     5    67    68    1
     6    76    75    1
     7    76    79    1
     8    68    69    1
     9    68    71    1
    10    60    59    1
    11    60    63    1
    12    69    70    2
    13    73    72   ar
    14    71    72    1
    15    72    74   ar
    16    79    80    1
    17    63    64    1
    18    48    49    1
    19    64    65    1
    20    64    66    1
    21    80    81   ar
    22    80    82   ar
    23    52    49    1
    24    52    53    1
    25    81    83   ar
    26    49    50    1
    27    82    84   ar
    28    51    50    2
    29    53    54   ar
    30    53    55   ar
    31    83    85   ar
    32    54    56   ar
    33    84    85   ar
    34    47    44    1
    35    85    86    1
    36    55    57   ar
    37    44    45    1
    38    44    43    1
    39    45    46    2
    40    56    58   ar
    41    57    58   ar
    42    42    41    1
    43    41    38    1
    44    29    27    1
    45    39    38    1
    46    39    40    2
    47    38    37    1
    48    28    27    1
    49    27    24    1
    50    37    32   am
    51    33    32    2
    52    32    31    1
    53    24    25    1
    54    24    23    1
    55    22    20    1
    56     5     6    1
    57     5     2    1
    58    25    26    2
    59    25    30   am
    60     6     7    1
    61    30    31    1
    62    21    20    1
    63    20    17    1
    64    31    34    1
    65     2     3    1
    66     2     1    1
    67     4     3    2
    68     3     8   am
    69     7     1    1
    70    34    35    1
    71    34    36    1
    72    17    18    1
    73    17    16    1
    74     8     9    1
    75    18    19    2
    76     9    12    1
    77     9    10    1
    78    12    13    1
    79    10    11    2
    80    15    13   am
    81    13    14    2
