@<TRIPOS>MOLECULE
tmp/6c5hA05.pdb
 75 75 0 0 0
SMALL
GASTEIGER

@<TRIPOS>ATOM
      1  N          4.3610   26.1680   -4.3550 N.3   147  GLU147     -0.1231
      2  CA         4.7790   24.7750   -4.1870 C.3   147  GLU147      0.1684
      3  C          3.8140   24.0840   -3.2050 C.2   147  GLU147      0.2434
      4  O          3.3160   24.7700   -2.2910 O.2   147  GLU147     -0.2733
      5  CB         6.1900   24.7280   -3.6130 C.3   147  GLU147      0.0402
      6  CG         7.2520   25.0860   -4.6290 C.3   147  GLU147      0.1161
      7  CD         7.8000   23.8760   -5.3300 C.2   147  GLU147      0.3649
      8  OE1        9.0020   23.6410   -5.1490 O.co2 147  GLU147     -0.2457
      9  OE2        7.0500   23.1460   -6.0380 O.co2 147  GLU147     -0.2457
     10  N          3.5590   22.7710   -3.3240 N.am  148  PRO148     -0.2718
     11  CA         4.2270   21.8590   -4.2430 C.3   148  PRO148      0.1535
     12  C          3.2900   21.2730   -5.3050 C.2   148  PRO148      0.2598
     13  O          2.0760   21.4750   -5.2750 O.2   148  PRO148     -0.2715
     14  CB         4.6850   20.7320   -3.3040 C.3   148  PRO148      0.0310
     15  CG         3.5730   20.6340   -2.3200 C.3   148  PRO148      0.0237
     16  CD         3.0610   22.0460   -2.1310 C.3   148  PRO148      0.0939
     17  N          3.8930   20.5650   -6.2500 N.am  149  VAL149     -0.1964
     18  CA         3.1870   19.6330   -7.1170 C.3   149  VAL149      0.1727
     19  C          3.7590   18.2400   -6.8840 C.2   149  VAL149      0.2617
     20  O          4.8040   18.0900   -6.2710 O.2   149  VAL149     -0.2715
     21  CB         3.2710   20.0260   -8.6150 C.3   149  VAL149      0.0290
     22  CG1        2.8190   21.4640   -8.8150 C.3   149  VAL149      0.0023
     23  CG2        4.6640   19.8300   -9.2040 C.3   149  VAL149      0.0023
     24  N          3.0600   17.2290   -7.3790 N.am  150  THR150     -0.1937
     25  CA         3.5770   15.8740   -7.4180 C.3   150  THR150      0.2028
     26  C          3.5090   15.4300   -8.8680 C.2   150  THR150      0.2642
     27  O          2.6100   15.8390   -9.5940 O.2   150  THR150     -0.2714
     28  CB         2.7410   14.9260   -6.5380 C.3   150  THR150      0.1808
     29  OG1        1.3800   14.9430   -6.9790 O.3   150  THR150     -0.2208
     30  CG2        2.8020   15.3390   -5.0810 C.3   150  THR150      0.0379
     31  N          4.4770   14.6200   -9.2830 N.am  151  VAL151     -0.1977
     32  CA         4.5490   14.0700  -10.6350 C.3   151  VAL151      0.1596
     33  C          4.8020   12.5550  -10.5370 C.2   151  VAL151      0.2287
     34  O          5.7090   12.1330   -9.8300 O.2   151  VAL151     -0.2864
     35  CB         5.7070   14.7110  -11.4380 C.3   151  VAL151      0.0276
     36  CG1        5.7540   14.1630  -12.8600 C.3   151  VAL151      0.0022
     37  CG2        5.5750   16.2340  -11.4550 C.3   151  VAL151      0.0022
     38  N         12.5770   13.7990  -11.4860 N.3   164  THR164     -0.1203
     39  CA        11.7190   14.9690  -11.3070 C.3   164  THR164      0.1994
     40  C         12.5580   16.0400  -10.6300 C.2   164  THR164      0.2618
     41  O         13.0240   15.8680   -9.5000 O.2   164  THR164     -0.2717
     42  CB        10.4880   14.6400  -10.4610 C.3   164  THR164      0.1784
     43  OG1        9.7320   13.6370  -11.1390 O.3   164  THR164     -0.2211
     44  CG2        9.5990   15.8660  -10.2610 C.3   164  THR164      0.0376
     45  N         12.7250   17.1520  -11.3340 N.am  165  PHE165     -0.1962
     46  CA        13.6840   18.1560  -10.9590 C.3   165  PHE165      0.1756
     47  C         13.0790   19.1540   -9.9990 C.2   165  PHE165      0.2461
     48  O         11.8830   19.4190  -10.0740 O.2   165  PHE165     -0.2730
     49  CB        14.2080   18.8250  -12.2150 C.3   165  PHE165      0.0574
     50  CG        15.0020   17.9040  -13.0550 C.ar  165  PHE165     -0.0200
     51  CD1       16.3460   17.7390  -12.8130 C.ar  165  PHE165     -0.0042
     52  CD2       14.3980   17.1380  -14.0460 C.ar  165  PHE165     -0.0042
     53  CE1       17.0960   16.8510  -13.5670 C.ar  165  PHE165     -0.0003
     54  CE2       15.1440   16.2550  -14.8130 C.ar  165  PHE165     -0.0003
     55  CZ        16.5000   16.1100  -14.5760 C.ar  165  PHE165     -0.0000
     56  N         13.8960   19.7020   -9.0730 N.am  166  PRO166     -0.2716
     57  CA        13.3740   20.7600   -8.2120 C.3   166  PRO166      0.1536
     58  C         12.8400   21.9470   -9.0140 C.2   166  PRO166      0.2598
     59  O         13.3710   22.2640  -10.0850 O.2   166  PRO166     -0.2715
     60  CB        14.5770   21.1710   -7.3710 C.3   166  PRO166      0.0310
     61  CG        15.5010   20.0100   -7.4060 C.3   166  PRO166      0.0237
     62  CD        15.2840   19.3480   -8.7240 C.3   166  PRO166      0.0939
     63  N         11.7790   22.5620   -8.5070 N.am  167  ALA167     -0.1978
     64  CA        11.1620   23.7100   -9.1500 C.3   167  ALA167      0.1597
     65  C         12.0900   24.9010   -9.0800 C.2   167  ALA167      0.2287
     66  O         12.8370   25.0420   -8.1300 O.2   167  ALA167     -0.2864
     67  CB         9.8390   24.0410   -8.4850 C.3   167  ALA167      0.0319
     68  N          8.8640   23.3100  -13.3500 N.3   176  LEU176     -0.1245
     69  CA         9.6830   22.1070  -13.2780 C.3   176  LEU176      0.1561
     70  C          9.4650   21.2050  -14.4680 C.2   176  LEU176      0.2260
     71  O          8.5690   21.4000  -15.2740 O.2   176  LEU176     -0.2867
     72  CB         9.4730   21.3430  -11.9630 C.3   176  LEU176      0.0270
     73  CG         8.2120   20.5140  -11.6830 C.3   176  LEU176      0.0019
     74  CD1        8.1290   19.2210  -12.4840 C.3   176  LEU176      0.0001
     75  CD2        8.1940   20.1870  -10.2050 C.3   176  LEU176      0.0001
@<TRIPOS>BOND
     1    71    70    2
     2    54    55   ar
     3    54    52   ar
     4    55    53   ar
     5    70    69    1
     6    52    50   ar
     7    53    51   ar
     8    68    69    1
     9    69    72    1
    10    50    51   ar
    11    50    49    1
    12    36    35    1
    13    74    73    1
    14    49    46    1
    15    72    73    1
    16    73    75    1
    17    38    39    1
    18    37    35    1
    19    35    32    1
    20    45    46    1
    21    45    40   am
    22    39    40    1
    23    39    42    1
    24    43    42    1
    25    46    47    1
    26    32    33    1
    27    32    31    1
    28    40    41    2
    29    33    34    2
    30    42    44    1
    31    59    58    2
    32    48    47    2
    33    47    56   am
    34    27    26    2
    35    31    26   am
    36    23    21    1
    37    64    65    1
    38    64    63    1
    39    64    67    1
    40    65    66    2
    41    56    62    1
    42    56    57    1
    43    58    63   am
    44    58    57    1
    45    26    25    1
    46    22    21    1
    47    62    61    1
    48    21    18    1
    49    57    60    1
    50    25    24    1
    51    25    28    1
    52    61    60    1
    53    24    19   am
    54    18    19    1
    55    18    17    1
    56    29    28    1
    57    19    20    2
    58    28    30    1
    59    17    12   am
    60     9     7   ar
    61     7     8   ar
    62     7     6    1
    63    12    13    2
    64    12    11    1
    65     6     5    1
    66     1     2    1
    67    11    10    1
    68    11    14    1
    69     2     5    1
    70     2     3    1
    71    10     3   am
    72    10    16    1
    73    14    15    1
    74     3     4    2
    75    15    16    1
