@<TRIPOS>MOLECULE
tmp/6c5kA04.pdb
 103 103 0 0 0
SMALL
GASTEIGER

@<TRIPOS>ATOM
      1  N         41.8400   -3.7720    0.7260 N.3    30  THR30      -0.1203
      2  CA        41.7050   -2.4550    0.1370 C.3    30  THR30       0.1994
      3  C         42.5230   -1.3580    0.8280 C.2    30  THR30       0.2618
      4  O         42.8780   -0.3890    0.1610 O.2    30  THR30      -0.2717
      5  CB        40.2160   -2.0600    0.0900 C.3    30  THR30       0.1784
      6  OG1       39.4590   -3.1270   -0.4870 O.3    30  THR30      -0.2211
      7  CG2       39.9790   -0.8000   -0.7320 C.3    30  THR30       0.0376
      8  N         42.8220   -1.4970    2.1250 N.am   31  TYR31      -0.1961
      9  CA        43.4950   -0.4200    2.8830 C.3    31  TYR31       0.1771
     10  C         44.7320   -0.9020    3.6100 C.2    31  TYR31       0.2620
     11  O         44.7910   -2.0220    4.0970 O.2    31  TYR31      -0.2715
     12  CB        42.5170    0.2020    3.8830 C.3    31  TYR31       0.0574
     13  CG        41.3180    0.7580    3.1770 C.ar   31  TYR31      -0.0198
     14  CD1       41.3420    2.0250    2.5730 C.ar   31  TYR31      -0.0009
     15  CD2       40.1720   -0.0140    3.0460 C.ar   31  TYR31      -0.0009
     16  CE1       40.2520    2.4980    1.8750 C.ar   31  TYR31       0.0417
     17  CE2       39.0750    0.4590    2.3600 C.ar   31  TYR31       0.0417
     18  CZ        39.1110    1.7140    1.7870 C.ar   31  TYR31       0.1957
     19  OH        37.9850    2.1370    1.1140 O.3    31  TYR31      -0.2866
     20  N         45.7140   -0.0180    3.6960 N.am   32  GLY32      -0.1954
     21  CA        46.9270   -0.2810    4.4560 C.3    32  GLY32       0.1869
     22  C         46.7410   -0.1540    5.9710 C.2    32  GLY32       0.2309
     23  O         45.8530    0.5810    6.4500 O.2    32  GLY32      -0.2863
     24  N         50.7710   -2.4820    2.9440 N.3    51  TRP51      -0.1227
     25  CA        49.7960   -1.9940    1.9870 C.3    51  TRP51       0.1737
     26  C         48.8040   -3.1040    1.5820 C.2    51  TRP51       0.2596
     27  O         49.0440   -4.2830    1.8360 O.2    51  TRP51      -0.2718
     28  CB        50.5040   -1.3780    0.7730 C.3    51  TRP51       0.0564
     29  CG        51.4150   -0.2130    1.0980 C.ar   51  TRP51       0.0003
     30  CD1       52.7690   -0.1440    0.8910 C.ar   51  TRP51       0.0946
     31  CD2       51.0400    1.0490    1.6870 C.ar   51  TRP51       0.0152
     32  NE1       53.2470    1.0840    1.2990 N.ar   51  TRP51      -0.2442
     33  CE2       52.2160    1.8210    1.8160 C.ar   51  TRP51       0.0810
     34  CE3       49.8290    1.5850    2.1550 C.ar   51  TRP51       0.0012
     35  CZ2       52.2100    3.1140    2.3550 C.ar   51  TRP51       0.0191
     36  CZ3       49.8270    2.8780    2.6940 C.ar   51  TRP51       0.0001
     37  CH2       51.0040    3.6220    2.7840 C.ar   51  TRP51       0.0015
     38  N         47.6970   -2.7060    0.9620 N.am   52  SER52      -0.1952
     39  CA        46.5710   -3.6440    0.6920 C.3    52  SER52       0.1924
     40  C         47.0150   -4.8690   -0.1140 C.2    52  SER52       0.2314
     41  O         46.6230   -6.0090    0.1860 O.2    52  SER52      -0.2863
     42  CB        45.4220   -2.9130    0.0040 C.3    52  SER52       0.2116
     43  OG        45.7670   -2.5580   -1.3220 O.3    52  SER52      -0.2180
     44  N         45.2260    2.7650   11.3470 N.3    96  ARG96      -0.1231
     45  CA        44.9700    3.2400    9.9950 C.3    96  ARG96       0.1694
     46  C         45.1570    4.7550   10.0240 C.2    96  ARG96       0.2592
     47  O         44.4520    5.4650   10.7440 O.2    96  ARG96      -0.2718
     48  CB        43.5880    2.8500    9.4830 C.3    96  ARG96       0.0321
     49  CG        43.3090    3.5080    8.1340 C.3    96  ARG96       0.0489
     50  CD        42.8850    2.6090    6.9950 C.3    96  ARG96       0.2205
     51  NE        42.8890    3.4770    5.8190 N.pl3  96  ARG96      -0.0865
     52  CZ        43.9050    3.6630    4.9690 C.cat  96  ARG96       0.5346
     53  NH1       45.0090    2.9450    5.0400 N.pl3  96  ARG96       0.1354
     54  NH2       43.7960    4.5630    4.0080 N.pl3  96  ARG96       0.1354
     55  N         46.1540    5.2130    9.2780 N.am   97  MET97      -0.1965
     56  CA        46.5220    6.6320    9.1940 C.3    97  MET97       0.1736
     57  C         47.0010    6.9500    7.7810 C.2    97  MET97       0.2616
     58  O         47.0040    6.0760    6.9180 O.2    97  MET97      -0.2715
     59  CB        47.6040    6.9640   10.2310 C.3    97  MET97       0.0427
     60  CG        48.9560    6.3100   10.0160 C.3    97  MET97       0.0599
     61  SD        50.1050    6.5380   11.4140 S.3    97  MET97      -0.1393
     62  CE        49.9600    8.2760   11.6950 C.3    97  MET97       0.0692
     63  N         47.4140    8.1950    7.5540 N.am   98  ARG98      -0.1963
     64  CA        47.8860    8.6540    6.2520 C.3    98  ARG98       0.1729
     65  C         46.8080    8.4790    5.1820 C.2    98  ARG98       0.2616
     66  O         47.0110    7.8130    4.1520 O.2    98  ARG98      -0.2715
     67  CB        49.1690    7.9610    5.8340 C.3    98  ARG98       0.0348
     68  CG        49.9070    8.7760    4.7870 C.3    98  ARG98       0.0492
     69  CD        50.6280    7.8980    3.8040 C.3    98  ARG98       0.2205
     70  NE        49.7010    7.4630    2.7730 N.pl3  98  ARG98      -0.0865
     71  CZ        50.0630    6.9600    1.5940 C.cat  98  ARG98       0.5346
     72  NH1       51.3460    6.7580    1.2910 N.pl3  98  ARG98       0.1354
     73  NH2       49.1230    6.6210    0.7340 N.pl3  98  ARG98       0.1354
     74  N         45.6530    9.0640    5.4620 N.am   99  ILE99      -0.1963
     75  CA        44.4750    8.8450    4.6260 C.3    99  ILE99       0.1727
     76  C         44.4410    9.8390    3.4530 C.2    99  ILE99       0.2617
     77  O         44.9510   10.9680    3.5160 O.2    99  ILE99      -0.2715
     78  CB        43.1620    8.8190    5.4330 C.3    99  ILE99       0.0290
     79  CG1       42.8580   10.1840    5.9970 C.3    99  ILE99       0.0022
     80  CG2       43.2210    7.7250    6.5350 C.3    99  ILE99       0.0023
     81  CD1       41.4140   10.3150    6.4580 C.3    99  ILE99       0.0001
     82  N         43.8380    9.3860    2.3680 N.am  100  THR100     -0.1937
     83  CA        43.6270   10.2160    1.1880 C.3   100  THR100      0.2028
     84  C         42.1430   10.5480    1.1090 C.2   100  THR100      0.2643
     85  O         41.7740   11.7140    1.0720 O.2   100  THR100     -0.2714
     86  CB        44.0890    9.5060   -0.0970 C.3   100  THR100      0.1808
     87  OG1       45.4170    9.0040    0.0600 O.3   100  THR100     -0.2208
     88  CG2       44.0620   10.4680   -1.2920 C.3   100  THR100      0.0379
     89  N         41.3000    9.5200    1.0550 N.am  101  THR101     -0.1936
     90  CA        39.8590    9.7010    0.8520 C.3   101  THR101      0.2028
     91  C         38.9260    8.9470    1.8020 C.2   101  THR101      0.2642
     92  O         37.7370    9.2650    1.8650 O.2   101  THR101     -0.2714
     93  CB        39.4680    9.3300   -0.5940 C.3   101  THR101      0.1808
     94  OG1       39.9780    8.0320   -0.9240 O.3   101  THR101     -0.2208
     95  CG2       40.0140   10.3420   -1.5600 C.3   101  THR101      0.0379
     96  N         39.4330    7.9630    2.5310 N.am  102  ASP102     -0.1971
     97  CA        38.5570    7.0340    3.2450 C.3   102  ASP102      0.1709
     98  C         38.1960    7.5570    4.6350 C.2   102  ASP102      0.2293
     99  O         38.7680    8.5450    5.1110 O.2   102  ASP102     -0.2864
    100  CB        39.1900    5.6410    3.3230 C.3   102  ASP102      0.1436
    101  CG        40.4530    5.6170    4.1680 C.2   102  ASP102      0.3671
    102  OD1       41.5110    6.1130    3.6950 O.co2 102  ASP102     -0.2456
    103  OD2       40.3920    5.0750    5.3010 O.co2 102  ASP102     -0.2456
@<TRIPOS>BOND
     1    95    93    1
     2    43    42    1
     3    88    86    1
     4    94    93    1
     5     7     5    1
     6    93    90    1
     7     6     5    1
     8    40    41    2
     9    40    39    1
    10    86    87    1
    11    86    83    1
    12    42    39    1
    13     5     2    1
    14     2     1    1
    15     2     3    1
    16     4     3    2
    17    39    38    1
    18    73    71    1
    19    28    29    1
    20    28    25    1
    21     3     8   am
    22    90    89    1
    23    90    91    1
    24    30    29   ar
    25    30    32   ar
    26    38    26   am
    27    89    84   am
    28    85    84    2
    29    29    31   ar
    30    84    83    1
    31    19    18    1
    32    83    82    1
    33    72    71    1
    34    32    33   ar
    35    26    27    2
    36    26    25    1
    37    71    70    2
    38    31    33   ar
    39    31    34   ar
    40    18    16   ar
    41    18    17   ar
    42    91    92    2
    43    91    96   am
    44    33    35   ar
    45    16    14   ar
    46    25    24    1
    47     8     9    1
    48    34    36   ar
    49    35    37   ar
    50    17    15   ar
    51    82    76   am
    52    96    97    1
    53    14    13   ar
    54    36    37   ar
    55    70    69    1
    56     9    10    1
    57     9    12    1
    58    15    13   ar
    59    13    12    1
    60    97   100    1
    61    97    98    1
    62   100   101    1
    63    76    77    2
    64    76    75    1
    65    10    20   am
    66    10    11    2
    67   102   101   ar
    68    20    21    1
    69    69    68    1
    70    54    52    1
    71    66    65    2
    72   101   103   ar
    73    21    22    1
    74    75    78    1
    75    75    74    1
    76    98    99    2
    77    68    67    1
    78    52    53    1
    79    52    51    2
    80    65    74   am
    81    65    64    1
    82    78    79    1
    83    78    80    1
    84    51    50    1
    85    67    64    1
    86    22    23    2
    87    79    81    1
    88    64    63    1
    89    58    57    2
    90    50    49    1
    91    63    57   am
    92    57    56    1
    93    49    48    1
    94    56    55    1
    95    56    59    1
    96    55    46   am
    97    48    45    1
    98    45    46    1
    99    45    44    1
   100    60    59    1
   101    60    61    1
   102    46    47    2
   103    61    62    1
