@<TRIPOS>MOLECULE
tmp/6c5nB01.pdb
 74 68 0 0 0
SMALL
GASTEIGER

@<TRIPOS>ATOM
      1  N         14.5630    5.6870    9.3730 N.3   225  GLU225     -0.1245
      2  CA        14.5740    4.2330    9.5080 C.3   225  GLU225      0.1567
      3  C         13.5000    3.5690    8.6540 C.2   225  GLU225      0.2260
      4  O         13.7800    2.5890    7.9610 O.2   225  GLU225     -0.2867
      5  CB        14.4010    3.8410   10.9780 C.3   225  GLU225      0.0388
      6  CG        14.3710    2.3190   11.2430 C.3   225  GLU225      0.1160
      7  CD        15.7490    1.6320   11.1150 C.2   225  GLU225      0.3649
      8  OE1       16.7850    2.2610   11.4380 O.co2 225  GLU225     -0.2457
      9  OE2       15.7860    0.4470   10.7240 O.co2 225  GLU225     -0.2457
     10  N         15.1350    4.9790    4.3500 N.3   229  GLU229     -0.1245
     11  CA        15.9210    3.7750    4.1020 C.3   229  GLU229      0.1567
     12  C         15.1840    2.7690    3.2330 C.2   229  GLU229      0.2260
     13  O         15.8190    1.9060    2.6200 O.2   229  GLU229     -0.2867
     14  CB        16.3320    3.1190    5.4350 C.3   229  GLU229      0.0388
     15  CG        17.3050    1.9740    5.2250 C.3   229  GLU229      0.1160
     16  CD        18.0600    1.5680    6.4690 C.2   229  GLU229      0.3649
     17  OE1       18.8450    0.6070    6.3750 O.co2 229  GLU229     -0.2457
     18  OE2       17.8780    2.1850    7.5380 O.co2 229  GLU229     -0.2457
     19  N         16.5390    2.7510   -0.1760 N.3   232  LEU232     -0.1231
     20  CA        17.8470    2.1320   -0.3480 C.3   232  LEU232      0.1693
     21  C         17.7350    0.6120   -0.4070 C.2   232  LEU232      0.2591
     22  O         18.3300   -0.0360   -1.2900 O.2   232  LEU232     -0.2718
     23  CB        18.7800    2.5840    0.7850 C.3   232  LEU232      0.0284
     24  CG        18.9230    4.1100    0.8720 C.3   232  LEU232      0.0019
     25  CD1       19.6850    4.5320    2.1480 C.3   232  LEU232      0.0001
     26  CD2       19.6490    4.6690   -0.3560 C.3   232  LEU232      0.0001
     27  N         16.9610    0.0060    0.5060 N.am  233  ILE233     -0.1980
     28  CA        16.8640   -1.4500    0.4620 C.3   233  ILE233      0.1595
     29  C         16.0960   -1.8890   -0.7830 C.2   233  ILE233      0.2287
     30  O         16.4210   -2.9150   -1.3970 O.2   233  ILE233     -0.2864
     31  CB        16.2590   -2.0160    1.7670 C.3   233  ILE233      0.0276
     32  CG1       16.2790   -3.5560    1.7590 C.3   233  ILE233      0.0022
     33  CG2       14.8330   -1.5070    2.0370 C.3   233  ILE233      0.0022
     34  CD1       14.9480   -4.2030    1.2180 C.3   233  ILE233      0.0001
     35  N         18.2970   -2.1250   -3.7650 N.3   236  LEU236     -0.1245
     36  CA        19.0420   -3.3720   -3.8650 C.3   236  LEU236      0.1561
     37  C         18.1630   -4.5190   -4.3330 C.2   236  LEU236      0.2260
     38  O         18.6310   -5.4100   -5.0450 O.2   236  LEU236     -0.2867
     39  CB        19.6790   -3.7180   -2.5230 C.3   236  LEU236      0.0270
     40  CG        20.7300   -2.7390   -2.0090 C.3   236  LEU236      0.0019
     41  CD1       21.3500   -3.2980   -0.7110 C.3   236  LEU236      0.0001
     42  CD2       21.8040   -2.4690   -3.0630 C.3   236  LEU236      0.0001
     43  N         23.7040   -7.9450    1.3660 N.3   248  SER248     -0.1202
     44  CA        24.2200   -6.6630    1.8210 C.3   248  SER248      0.2020
     45  C         23.9810   -6.4560    3.3140 C.2   248  SER248      0.2619
     46  O         24.8700   -5.9760    4.0310 O.2   248  SER248     -0.2717
     47  CB        23.5730   -5.5510    0.9950 C.3   248  SER248      0.2103
     48  OG        23.5720   -5.9100   -0.3800 O.3   248  SER248     -0.2182
     49  N         22.8030   -6.8300    3.8050 N.am  249  ILE249     -0.1965
     50  CA        22.4370   -6.5150    5.1900 C.3   249  ILE249      0.1727
     51  C         23.2400   -7.3570    6.1780 C.2   249  ILE249      0.2616
     52  O         23.8600   -8.3550    5.8060 O.2   249  ILE249     -0.2715
     53  CB        20.9290   -6.7050    5.4430 C.3   249  ILE249      0.0290
     54  CG1       20.5900   -8.2010    5.4160 C.3   249  ILE249      0.0022
     55  CG2       20.1070   -5.9030    4.4580 C.3   249  ILE249      0.0023
     56  CD1       19.0930   -8.5020    5.4980 C.3   249  ILE249      0.0001
     57  N         23.2110   -6.9810    7.4530 N.am  250  SER250     -0.1950
     58  CA        23.9510   -7.7300    8.4650 C.3   250  SER250      0.1924
     59  C         23.2760   -9.0770    8.7390 C.2   250  SER250      0.2314
     60  O         22.0920   -9.2720    8.4590 O.2   250  SER250     -0.2863
     61  CB        24.0300   -6.9340    9.7690 C.3   250  SER250      0.2116
     62  OG        22.7410   -6.8840   10.4050 O.3   250  SER250     -0.2180
     63  N         22.5600   -9.9840   11.6380 N.3   252  THR252     -0.1203
     64  CA        21.5480   -9.6070   12.6190 C.3   252  THR252      0.1994
     65  C         20.2390   -9.2540   11.9320 C.2   252  THR252      0.2617
     66  O         19.1650   -9.7060   12.3360 O.2   252  THR252     -0.2717
     67  CB        22.0550   -8.4230   13.4320 C.3   252  THR252      0.1784
     68  OG1       23.4170   -8.6770   13.8240 O.3   252  THR252     -0.2211
     69  CG2       21.1820   -8.1840   14.6630 C.3   252  THR252      0.0376
     70  N         20.3230   -8.4630   10.8670 N.am  253  ALA253     -0.1979
     71  CA        19.1180   -8.0610   10.1430 C.3   253  ALA253      0.1597
     72  C         18.5130   -9.2210    9.3810 C.2   253  ALA253      0.2287
     73  O         17.2870   -9.3450    9.3040 O.2   253  ALA253     -0.2864
     74  CB        19.4700   -6.9310    9.1910 C.3   253  ALA253      0.0319
@<TRIPOS>BOND
     1    38    37    2
     2    37    36    1
     3    36    35    1
     4    36    39    1
     5    42    40    1
     6    39    40    1
     7    40    41    1
     8    30    29    2
     9    22    21    2
    10    29    28    1
    11    21    20    1
    12    21    27   am
    13    48    47    1
    14    26    24    1
    15    20    19    1
    16    20    23    1
    17    28    27    1
    18    28    31    1
    19    23    24    1
    20    24    25    1
    21    47    44    1
    22    34    32    1
    23    43    44    1
    24    32    31    1
    25    31    33    1
    26    44    45    1
    27    13    12    2
    28    12    11    1
    29    45    49   am
    30    45    46    2
    31    49    50    1
    32    11    10    1
    33    11    14    1
    34    55    53    1
    35    50    53    1
    36    50    51    1
    37    15    14    1
    38    15    16    1
    39    54    53    1
    40    54    56    1
    41    52    51    2
    42    51    57   am
    43    17    16   ar
    44    16    18   ar
    45    57    58    1
    46     4     3    2
    47    60    59    2
    48    58    59    1
    49    58    61    1
    50     3     2    1
    51    74    71    1
    52    73    72    2
    53     1     2    1
    54    72    71    1
    55     2     5    1
    56    61    62    1
    57    71    70    1
    58     9     7   ar
    59    70    65   am
    60     5     6    1
    61     7     6    1
    62     7     8   ar
    63    63    64    1
    64    65    66    2
    65    65    64    1
    66    64    67    1
    67    67    68    1
    68    67    69    1
