@<TRIPOS>MOLECULE
tmp/6c5nB03.pdb
 76 73 0 0 0
SMALL
GASTEIGER

@<TRIPOS>ATOM
      1  N         -9.4580    7.3340  -15.6230 N.3    81  ASP81      -0.1239
      2  CA       -10.3570    6.2620  -16.0650 C.3    81  ASP81       0.1674
      3  C        -11.8270    6.6700  -15.9830 C.2    81  ASP81       0.2266
      4  O        -12.6230    6.3270  -16.8640 O.2    81  ASP81      -0.2867
      5  CB       -10.0950    4.9950  -15.2630 C.3    81  ASP81       0.1410
      6  CG        -8.7350    4.4330  -15.5580 C.2    81  ASP81       0.3668
      7  OD1       -8.5260    4.0310  -16.7260 O.co2  81  ASP81      -0.2456
      8  OD2       -7.8780    4.4660  -14.6490 O.co2  81  ASP81      -0.2456
      9  N         -4.5160    1.1390  -19.4690 N.3   106  HIS106     -0.1241
     10  CA        -5.1390    0.3850  -18.3840 C.3   106  HIS106      0.1621
     11  C         -6.4000   -0.2300  -18.9830 C.2   106  HIS106      0.2264
     12  O         -7.1430    0.4630  -19.6830 O.2   106  HIS106     -0.2867
     13  CB        -5.4690    1.3240  -17.2000 C.3   106  HIS106      0.0745
     14  CG        -6.0250    0.6460  -15.9750 C.ar  106  HIS106      0.0817
     15  ND1       -5.6680   -0.6270  -15.5800 N.ar  106  HIS106     -0.2268
     16  CD2       -6.9100    1.0910  -15.0490 C.ar  106  HIS106      0.1154
     17  CE1       -6.2960   -0.9290  -14.4530 C.ar  106  HIS106      0.1986
     18  NE2       -7.0710    0.0900  -14.1200 N.ar  106  HIS106     -0.2212
     19  N          2.3300    0.7270  -18.9380 N.3   128  PRO128     -0.2102
     20  CA         3.5740    0.7260  -18.1670 C.3   128  PRO128      0.1504
     21  C          3.3080    0.3320  -16.7330 C.2   128  PRO128      0.2576
     22  O          2.3420    0.7820  -16.1060 O.2   128  PRO128     -0.2718
     23  CB         4.0670    2.1720  -18.2800 C.3   128  PRO128      0.0282
     24  CG         3.3770    2.7010  -19.5360 C.3   128  PRO128      0.0208
     25  CD         2.0210    2.0670  -19.4660 C.3   128  PRO128      0.0893
     26  N          4.1650   -0.5460  -16.2230 N.am  129  LYS129     -0.1966
     27  CA         4.1390   -0.9330  -14.8150 C.3   129  LYS129      0.1728
     28  C          4.9860    0.0500  -14.0040 C.2   129  LYS129      0.2617
     29  O          6.0130   -0.2760  -13.4080 O.2   129  LYS129     -0.2715
     30  CB         4.6110   -2.3730  -14.6770 C.3   129  LYS129      0.0311
     31  CG         3.8430   -3.3580  -15.5930 C.3   129  LYS129      0.0038
     32  CD         2.4280   -3.6540  -15.0520 C.3   129  LYS129      0.0206
     33  CE         1.3780   -2.7920  -15.7730 C.3   129  LYS129      0.1093
     34  NZ        -0.0090   -3.0340  -15.2690 N.3   129  LYS129     -0.1314
     35  N          4.5210    1.2900  -13.9900 N.am  130  GLY130     -0.1941
     36  CA         5.1440    2.3100  -13.1820 C.3   130  GLY130      0.1998
     37  C          4.4950    3.6550  -13.4000 C.2   130  GLY130      0.2480
     38  O          3.7070    3.8480  -14.3370 O.2   130  GLY130     -0.2729
     39  N          4.8300    4.6150  -12.5430 N.am  131  PRO131     -0.2726
     40  CA         4.2130    5.9410  -12.6210 C.3   131  PRO131      0.1402
     41  C          4.7140    6.7280  -13.8270 C.2   131  PRO131      0.2269
     42  O          5.8810    6.6390  -14.2030 O.2   131  PRO131     -0.2865
     43  CB         4.6330    6.6030  -11.3050 C.3   131  PRO131      0.0296
     44  CG         5.9680    5.9140  -10.9450 C.3   131  PRO131      0.0237
     45  CD         5.8710    4.5120  -11.4940 C.3   131  PRO131      0.0939
     46  N         -3.2820   -5.1390  -12.1710 N.3   189  ASP189     -0.1239
     47  CA        -2.9200   -3.7450  -11.9310 C.3   189  ASP189      0.1674
     48  C         -3.6790   -3.1780  -10.7450 C.2   189  ASP189      0.2266
     49  O         -3.0770   -2.5770   -9.8340 O.2   189  ASP189     -0.2867
     50  CB        -3.1940   -2.8990  -13.1800 C.3   189  ASP189      0.1410
     51  CG        -2.7100   -1.4810  -13.0160 C.2   189  ASP189      0.3668
     52  OD1       -1.5010   -1.2740  -13.2160 O.co2 189  ASP189     -0.2456
     53  OD2       -3.5280   -0.5830  -12.6950 O.co2 189  ASP189     -0.2456
     54  N         -1.6150   -2.0090   -7.1230 N.3   193  GLU193     -0.1245
     55  CA        -1.6670   -0.6910   -6.5090 C.3   193  GLU193      0.1567
     56  C         -2.4200   -0.7380   -5.1840 C.2   193  GLU193      0.2260
     57  O         -2.0410   -0.0500   -4.2320 O.2   193  GLU193     -0.2867
     58  CB        -2.2780    0.3480   -7.4630 C.3   193  GLU193      0.0388
     59  CG        -3.7460    0.0860   -7.8410 C.3   193  GLU193      0.1160
     60  CD        -4.1380    0.6380   -9.2000 C.2   193  GLU193      0.3649
     61  OE1       -5.3710    0.8110   -9.4220 O.co2 193  GLU193     -0.2457
     62  OE2       -3.2470    0.8510  -10.0620 O.co2 193  GLU193     -0.2457
     63  N          1.6020   -1.7330   -3.7760 N.3   197  LEU197     -0.1231
     64  CA         2.3970   -0.5510   -4.1470 C.3   197  LEU197      0.1693
     65  C          1.9340    0.7430   -3.5030 C.2   197  LEU197      0.2592
     66  O          2.7580    1.6340   -3.2510 O.2   197  LEU197     -0.2718
     67  CB         2.3850   -0.3500   -5.6620 C.3   197  LEU197      0.0284
     68  CG         2.8960   -1.5040   -6.5010 C.3   197  LEU197      0.0019
     69  CD1        2.5300   -1.2550   -7.9730 C.3   197  LEU197      0.0001
     70  CD2        4.4240   -1.6100   -6.3310 C.3   197  LEU197      0.0001
     71  N          0.6260    0.9290   -3.3390 N.am  198  CYS198     -0.1970
     72  CA         0.1010    2.1500   -2.7490 C.3   198  CYS198      0.1712
     73  C         -0.5590    1.8510   -1.4160 C.2   198  CYS198      0.2296
     74  O         -0.0620    2.2980   -0.3820 O.2   198  CYS198     -0.2864
     75  CB        -0.8990    2.8610   -3.6810 C.3   198  CYS198      0.0983
     76  SG        -0.1770    3.3670   -5.2660 S.3   198  CYS198     -0.0798
@<TRIPOS>BOND
     1    12    11    2
     2    24    25    1
     3    24    23    1
     4     9    10    1
     5    25    19    1
     6    11    10    1
     7    19    20    1
     8    10    13    1
     9    23    20    1
    10    20    21    1
    11    13    14    1
    12     4     3    2
    13    21    26   am
    14    21    22    2
    15     7     6   ar
    16    26    27    1
    17     2     3    1
    18     2     1    1
    19     2     5    1
    20    14    15   ar
    21    14    16   ar
    22    33    34    1
    23    33    32    1
    24    31    32    1
    25    31    30    1
    26    15    17   ar
    27     6     5    1
    28     6     8   ar
    29    16    18   ar
    30    27    30    1
    31    27    28    1
    32    17    18   ar
    33    38    37    2
    34    42    41    2
    35    28    35   am
    36    28    29    2
    37    35    36    1
    38    41    40    1
    39    37    36    1
    40    37    39   am
    41    52    51   ar
    42    50    51    1
    43    50    47    1
    44    51    53   ar
    45    40    39    1
    46    40    43    1
    47    39    45    1
    48    46    47    1
    49    47    48    1
    50    45    44    1
    51    43    44    1
    52    48    49    2
    53    62    60   ar
    54    61    60   ar
    55    60    59    1
    56    69    68    1
    57    59    58    1
    58    58    55    1
    59    54    55    1
    60    55    56    1
    61    68    70    1
    62    68    67    1
    63    67    64    1
    64    76    75    1
    65    56    57    2
    66    64    63    1
    67    64    65    1
    68    75    72    1
    69    65    71   am
    70    65    66    2
    71    71    72    1
    72    72    73    1
    73    73    74    2
