@<TRIPOS>MOLECULE
tmp/6c5qA01.pdb
 243 231 0 0 0
SMALL
GASTEIGER

@<TRIPOS>ATOM
      1  N         22.4250  -38.9160   16.0040 N.3    48  PHE48      -0.1241
      2  CA        21.0100  -39.0540   16.3130 C.3    48  PHE48       0.1605
      3  C         20.2180  -37.9820   15.5770 C.2    48  PHE48       0.2264
      4  O         20.6240  -36.8180   15.5160 O.2    48  PHE48      -0.2867
      5  CB        20.7810  -38.9450   17.8210 C.3    48  PHE48       0.0534
      6  CG        19.3830  -39.2900   18.2520 C.ar   48  PHE48      -0.0203
      7  CD1       18.3920  -38.3210   18.2880 C.ar   48  PHE48      -0.0042
      8  CD2       19.0620  -40.5820   18.6310 C.ar   48  PHE48      -0.0042
      9  CE1       17.1080  -38.6360   18.6860 C.ar   48  PHE48      -0.0003
     10  CE2       17.7790  -40.9020   19.0320 C.ar   48  PHE48      -0.0003
     11  CZ        16.8010  -39.9270   19.0590 C.ar   48  PHE48      -0.0000
     12  N         16.6380  -35.8960   14.9220 N.3    50  ILE50      -0.1245
     13  CA        15.4060  -35.4190   15.5370 C.3    50  ILE50       0.1561
     14  C         14.5290  -34.8550   14.4290 C.2    50  ILE50       0.2260
     15  O         14.8290  -33.7930   13.8690 O.2    50  ILE50      -0.2867
     16  CB        15.6830  -34.3680   16.6180 C.3    50  ILE50       0.0252
     17  CG1       16.5000  -34.9880   17.7540 C.3    50  ILE50       0.0019
     18  CG2       14.3860  -33.7780   17.1320 C.3    50  ILE50       0.0019
     19  CD1       16.9750  -33.9950   18.7830 C.3    50  ILE50       0.0001
     20  N         12.4170  -36.2610   19.3710 N.3    56  LEU56      -0.1245
     21  CA        12.9590  -35.2770   20.3010 C.3    56  LEU56       0.1561
     22  C         12.8260  -35.7460   21.7450 C.2    56  LEU56       0.2260
     23  O         13.7630  -35.5920   22.5360 O.2    56  LEU56      -0.2867
     24  CB        12.2680  -33.9260   20.1150 C.3    56  LEU56       0.0270
     25  CG        12.7850  -32.8180   21.0370 C.3    56  LEU56       0.0019
     26  CD1       14.2880  -32.6520   20.8890 C.3    56  LEU56       0.0001
     27  CD2       12.0790  -31.5110   20.7530 C.3    56  LEU56       0.0001
     28  N         15.4030  -38.1460   22.1130 N.3    59  GLY59      -0.1210
     29  CA        16.7080  -37.5150   22.1940 C.3    59  GLY59       0.1956
     30  C         16.9700  -36.8310   23.5170 C.2    59  GLY59       0.2611
     31  O         18.1230  -36.7410   23.9500 O.2    59  GLY59      -0.2717
     32  N         15.9180  -36.3370   24.1760 N.am   60  GLU60      -0.1979
     33  CA        16.0890  -35.7140   25.4840 C.3    60  GLU60       0.1602
     34  C         16.5170  -36.7280   26.5370 C.2    60  GLU60       0.2287
     35  O         17.2210  -36.3700   27.4890 O.2    60  GLU60      -0.2864
     36  CB        14.7940  -35.0210   25.9120 C.3    60  GLU60       0.0415
     37  CG        14.4500  -33.7780   25.1060 C.3    60  GLU60       0.1163
     38  CD        13.1270  -33.1600   25.5230 C.2    60  GLU60       0.3649
     39  OE1       12.3550  -33.8300   26.2410 O.co2  60  GLU60      -0.2457
     40  OE2       12.8590  -32.0040   25.1350 O.co2  60  GLU60      -0.2457
     41  N         18.6750  -38.9630   26.2550 N.3    62  LYS62      -0.1231
     42  CA        20.0990  -39.2420   26.1310 C.3    62  LYS62       0.1693
     43  C         20.9720  -38.1920   26.8070 C.2    62  LYS62       0.2591
     44  O         22.1970  -38.3490   26.8280 O.2    62  LYS62      -0.2718
     45  CB        20.4850  -39.3590   24.6520 C.3    62  LYS62       0.0285
     46  CG        19.6220  -40.3330   23.8940 C.3    62  LYS62       0.0035
     47  CD        20.0770  -41.7430   24.0980 C.3    62  LYS62       0.0206
     48  CE        19.3030  -42.7680   23.2800 C.3    62  LYS62       0.1093
     49  NZ        17.8620  -42.7640   23.4940 N.3    62  LYS62      -0.1314
     50  N         20.3800  -37.1370   27.3630 N.am   63  ILE63      -0.1980
     51  CA        21.1180  -36.0640   28.0200 C.3    63  ILE63       0.1595
     52  C         21.1220  -36.3140   29.5210 C.2    63  ILE63       0.2287
     53  O         20.0970  -36.6920   30.1030 O.2    63  ILE63      -0.2864
     54  CB        20.5080  -34.6900   27.6850 C.3    63  ILE63       0.0276
     55  CG1       20.4690  -34.4920   26.1680 C.3    63  ILE63       0.0022
     56  CG2       21.2910  -33.5690   28.3600 C.3    63  ILE63       0.0022
     57  CD1       19.8660  -33.1780   25.7360 C.3    63  ILE63       0.0001
     58  N         21.5600  -34.0790   31.9900 N.3    65  PHE65      -0.1227
     59  CA        20.6890  -33.1030   32.6280 C.3    65  PHE65       0.1736
     60  C         19.2340  -33.3820   32.2650 C.2    65  PHE65       0.2595
     61  O         18.9280  -33.9240   31.2000 O.2    65  PHE65      -0.2718
     62  CB        21.0700  -31.6820   32.2130 C.3    65  PHE65       0.0547
     63  CG        22.4440  -31.2620   32.6490 C.ar   65  PHE65      -0.0202
     64  CD1       22.6960  -30.9320   33.9700 C.ar   65  PHE65      -0.0042
     65  CD2       23.4810  -31.1780   31.7340 C.ar   65  PHE65      -0.0042
     66  CE1       23.9590  -30.5400   34.3720 C.ar   65  PHE65      -0.0003
     67  CE2       24.7450  -30.7860   32.1300 C.ar   65  PHE65      -0.0003
     68  CZ        24.9840  -30.4660   33.4510 C.ar   65  PHE65      -0.0000
     69  N         18.3290  -33.0050   33.1680 N.am   66  LYS66      -0.1966
     70  CA        16.9030  -33.2650   32.9970 C.3    66  LYS66       0.1728
     71  C         16.1430  -31.9840   32.6680 C.2    66  LYS66       0.2616
     72  O         15.6270  -31.8490   31.5560 O.2    66  LYS66      -0.2715
     73  CB        16.3310  -33.9410   34.2450 C.3    66  LYS66       0.0311
     74  CG        16.7790  -35.3850   34.4470 C.3    66  LYS66       0.0038
     75  CD        16.0440  -36.3430   33.5180 C.3    66  LYS66       0.0206
     76  CE        16.9620  -36.9300   32.4510 C.3    66  LYS66       0.1093
     77  NZ        18.0000  -37.8560   32.9990 N.3    66  LYS66      -0.1314
     78  N         16.0600  -31.0400   33.6090 N.am   67  HIS67      -0.1973
     79  CA        15.2740  -29.8200   33.4440 C.3    67  HIS67       0.1656
     80  C         13.8310  -30.1530   33.0870 C.2    67  HIS67       0.2291
     81  O         13.4500  -30.1300   31.9120 O.2    67  HIS67      -0.2864
     82  CB        15.8960  -28.9100   32.3810 C.3    67  HIS67       0.0771
     83  CG        15.0720  -27.7030   32.0530 C.ar   67  HIS67       0.0820
     84  ND1       14.2090  -27.1190   32.9560 N.ar   67  HIS67      -0.2267
     85  CD2       14.9730  -26.9770   30.9150 C.ar   67  HIS67       0.1154
     86  CE1       13.6180  -26.0830   32.3890 C.ar   67  HIS67       0.1986
     87  NE2       14.0640  -25.9740   31.1510 N.ar   67  HIS67      -0.2212
     88  N         10.7960  -28.6520   34.7420 N.3    69  THR69      -0.1218
     89  CA         9.9880  -27.4370   34.7710 C.3    69  THR69       0.1862
     90  C          8.5720  -27.7440   34.2740 C.2    69  THR69       0.2287
     91  O          8.1180  -27.1620   33.2840 O.2    69  THR69      -0.2866
     92  CB        10.6210  -26.3250   33.9510 C.3    69  THR69       0.1770
     93  OG1       11.8640  -25.9830   34.5910 O.3    69  THR69      -0.2211
     94  CG2        9.7270  -25.1030   33.8520 C.3    69  THR69       0.0375
     95  N          7.5940  -25.0880   26.1210 N.3    77  GLU77      -0.1245
     96  CA         8.6540  -25.8040   26.8260 C.3    77  GLU77       0.1567
     97  C          9.6690  -26.3800   25.8480 C.2    77  GLU77       0.2260
     98  O         10.8820  -26.2770   26.0650 O.2    77  GLU77      -0.2867
     99  CB         8.0540  -26.9160   27.6840 C.3    77  GLU77       0.0388
    100  CG         9.0650  -27.9170   28.2140 C.3    77  GLU77       0.1160
    101  CD         9.9610  -27.3350   29.2920 C.2    77  GLU77       0.3649
    102  OE1        9.4930  -26.4530   30.0430 O.co2  77  GLU77      -0.2457
    103  OE2       11.1330  -27.7590   29.3910 O.co2  77  GLU77      -0.2457
    104  N         11.5070  -23.3310   23.9730 N.3    80  ILE80      -0.1231
    105  CA        12.4940  -22.6940   24.8390 C.3    80  ILE80       0.1692
    106  C         13.6930  -23.6100   25.0450 C.2    80  ILE80       0.2592
    107  O         14.8470  -23.1650   25.0100 O.2    80  ILE80      -0.2718
    108  CB        11.8450  -22.2940   26.1760 C.3    80  ILE80       0.0266
    109  CG1       10.8890  -21.1180   25.9720 C.3    80  ILE80       0.0019
    110  CG2       12.9050  -21.9590   27.2170 C.3    80  ILE80       0.0020
    111  CD1       10.1260  -20.7350   27.2170 C.3    80  ILE80       0.0001
    112  N         13.4400  -24.9050   25.2520 N.am   81  ARG81      -0.1966
    113  CA        14.5270  -25.8540   25.4610 C.3    81  ARG81       0.1729
    114  C         15.4710  -25.8890   24.2640 C.2    81  ARG81       0.2616
    115  O         16.6960  -25.9020   24.4320 O.2    81  ARG81      -0.2715
    116  CB        13.9520  -27.2430   25.7440 C.3    81  ARG81       0.0348
    117  CG        14.9920  -28.3230   25.9640 C.3    81  ARG81       0.0492
    118  CD        14.6920  -29.1470   27.2070 C.3    81  ARG81       0.2205
    119  NE        13.4560  -29.9130   27.0800 N.pl3  81  ARG81      -0.0865
    120  CZ        12.9460  -30.6730   28.0440 C.cat  81  ARG81       0.5346
    121  NH1       13.5650  -30.7680   29.2130 N.pl3  81  ARG81       0.1354
    122  NH2       11.8150  -31.3360   27.8400 N.pl3  81  ARG81       0.1354
    123  N         14.9230  -25.8880   23.0480 N.am   82  ILE82      -0.1977
    124  CA        15.7700  -25.8870   21.8590 C.3    82  ILE82       0.1596
    125  C         16.5080  -24.5600   21.7280 C.2    82  ILE82       0.2287
    126  O         17.6990  -24.5270   21.3960 O.2    82  ILE82      -0.2864
    127  CB        14.9310  -26.1980   20.6050 C.3    82  ILE82       0.0276
    128  CG1       14.3170  -27.5940   20.7100 C.3    82  ILE82       0.0022
    129  CG2       15.7810  -26.0850   19.3480 C.3    82  ILE82       0.0022
    130  CD1       13.4370  -27.9580   19.5380 C.3    82  ILE82       0.0001
    131  N         17.3570  -22.3750   24.1140 N.3    84  GLN84      -0.1231
    132  CA        18.4070  -22.2900   25.1220 C.3    84  GLN84       0.1698
    133  C         19.5620  -23.2370   24.8280 C.2    84  GLN84       0.2592
    134  O         20.6850  -22.9870   25.2790 O.2    84  GLN84      -0.2718
    135  CB        17.8260  -22.5820   26.5060 C.3    84  GLN84       0.0381
    136  CG        16.8470  -21.5340   27.0040 C.3    84  GLN84       0.0905
    137  CD        17.5300  -20.3760   27.7060 C.2    84  GLN84       0.2608
    138  OE1       18.7420  -20.1910   27.5920 O.2    84  GLN84      -0.2717
    139  NE2       16.7520  -19.5910   28.4420 N.am   84  GLN84      -0.0878
    140  N         19.3140  -24.3080   24.0850 N.am   85  GLY85      -0.1957
    141  CA        20.3680  -25.2240   23.7000 C.3    85  GLY85       0.1869
    142  C         21.3520  -24.6100   22.7240 C.2    85  GLY85       0.2309
    143  O         22.5650  -24.7470   22.8890 O.2    85  GLY85      -0.2863
    144  N         23.2920  -21.6940   24.3360 N.3    87  PHE87      -0.1241
    145  CA        24.4580  -22.1520   25.0810 C.3    87  PHE87       0.1605
    146  C         25.6210  -22.4590   24.1460 C.2    87  PHE87       0.2264
    147  O         26.7700  -22.1080   24.4370 O.2    87  PHE87      -0.2867
    148  CB        24.0940  -23.3810   25.9130 C.3    87  PHE87       0.0534
    149  CG        25.1610  -23.7940   26.8820 C.ar   87  PHE87      -0.0203
    150  CD1       25.1970  -23.2610   28.1610 C.ar   87  PHE87      -0.0042
    151  CD2       26.1260  -24.7190   26.5180 C.ar   87  PHE87      -0.0042
    152  CE1       26.1750  -23.6410   29.0550 C.ar   87  PHE87      -0.0003
    153  CE2       27.1080  -25.1020   27.4080 C.ar   87  PHE87      -0.0003
    154  CZ        27.1320  -24.5630   28.6780 C.ar   87  PHE87      -0.0000
    155  N         23.9930  -30.5800   15.0210 N.3   141  ILE141     -0.1231
    156  CA        24.0410  -29.9100   16.3120 C.3   141  ILE141      0.1692
    157  C         24.8340  -30.7670   17.2880 C.2   141  ILE141      0.2592
    158  O         24.9490  -31.9870   17.1260 O.2   141  ILE141     -0.2718
    159  CB        22.6240  -29.6220   16.8630 C.3   141  ILE141      0.0266
    160  CG1       21.9120  -30.9280   17.2190 C.3   141  ILE141      0.0019
    161  CG2       21.7980  -28.8410   15.8520 C.3   141  ILE141      0.0020
    162  CD1       20.5440  -30.7350   17.8190 C.3   141  ILE141      0.0001
    163  N         25.4030  -30.1070   18.2980 N.am  142  SER142     -0.1952
    164  CA        26.1020  -30.7550   19.4090 C.3   142  SER142      0.1924
    165  C         27.2790  -31.6010   18.9100 C.2   142  SER142      0.2314
    166  O         27.2620  -32.8330   18.9510 O.2   142  SER142     -0.2863
    167  CB        25.1270  -31.6020   20.2360 C.3   142  SER142      0.2116
    168  OG        25.7900  -32.2530   21.3020 O.3   142  SER142     -0.2180
    169  N         26.9290  -34.6460   16.7600 N.3   145  GLN145     -0.1231
    170  CA        26.3110  -35.8550   17.2860 C.3   145  GLN145      0.1698
    171  C         24.7970  -35.8630   17.1340 C.2   145  GLN145      0.2592
    172  O         24.1750  -36.9110   17.3400 O.2   145  GLN145     -0.2718
    173  CB        26.6720  -36.0380   18.7640 C.3   145  GLN145      0.0381
    174  CG        28.1570  -36.2080   19.0270 C.3   145  GLN145      0.0905
    175  CD        28.4590  -36.4560   20.4900 C.2   145  GLN145      0.2608
    176  OE1       28.5980  -35.5170   21.2750 O.2   145  GLN145     -0.2717
    177  NE2       28.5560  -37.7250   20.8670 N.am  145  GLN145     -0.0878
    178  N         24.1920  -34.7280   16.7830 N.am  146  GLY146     -0.1957
    179  CA        22.7660  -34.6650   16.5660 C.3   146  GLY146      0.1869
    180  C         22.4500  -34.0010   15.2410 C.2   146  GLY146      0.2309
    181  O         23.2680  -33.2830   14.6640 O.2   146  GLY146     -0.2863
    182  N         18.9780  -32.0920   13.5830 N.3   148  MET148     -0.1245
    183  CA        17.6080  -31.6070   13.6890 C.3   148  MET148      0.1570
    184  C         17.1440  -31.1450   12.3150 C.2   148  MET148      0.2261
    185  O         17.7830  -30.2870   11.6980 O.2   148  MET148     -0.2867
    186  CB        17.5100  -30.4700   14.7070 C.3   148  MET148      0.0387
    187  CG        16.1000  -29.9810   14.9580 C.3   148  MET148      0.0595
    188  SD        15.9700  -29.0690   16.5040 S.3   148  MET148     -0.1393
    189  CE        16.5040  -30.3210   17.6660 C.3   148  MET148      0.0692
    190  N         11.2900  -13.5400   30.7140 N.3   262  ASP262     -0.1225
    191  CA        12.2760  -14.2530   31.5190 C.3   262  ASP262      0.1805
    192  C         13.0720  -15.1970   30.6280 C.2   262  ASP262      0.2597
    193  O         13.0100  -16.4190   30.7980 O.2   262  ASP262     -0.2718
    194  CB        11.6040  -15.0370   32.6500 C.3   262  ASP262      0.1424
    195  CG        12.6130  -15.6540   33.6080 C.2   262  ASP262      0.3668
    196  OD1       13.8180  -15.2210   33.6850 O.co2 262  ASP262     -0.2456
    197  OD2       12.1920  -16.4960   34.4140 O.co2 262  ASP262     -0.2456
    198  N         13.8060  -14.6460   29.6640 N.am  263  MET263     -0.1979
    199  CA        14.5680  -15.4580   28.7230 C.3   263  MET263      0.1605
    200  C         16.0710  -15.3200   28.8760 C.2   263  MET263      0.2287
    201  O         16.7900  -16.3030   28.6900 O.2   263  MET263     -0.2864
    202  CB        14.1830  -15.1140   27.2810 C.3   263  MET263      0.0413
    203  CG        14.4460  -16.2530   26.3140 C.3   263  MET263      0.0598
    204  SD        13.9300  -17.8250   27.0330 S.3   263  MET263     -0.1393
    205  CE        14.0330  -18.9030   25.6110 C.3   263  MET263      0.0692
    206  N         19.0740  -15.9690   30.2030 N.3   265  LEU265     -0.1231
    207  CA        19.4760  -16.9570   31.1970 C.3   265  LEU265      0.1693
    208  C         20.3440  -16.3140   32.2700 C.2   265  LEU265      0.2592
    209  O         21.2400  -15.5190   31.9720 O.2   265  LEU265     -0.2718
    210  CB        20.2290  -18.1070   30.5180 C.3   265  LEU265      0.0284
    211  CG        20.6440  -19.3000   31.3850 C.3   265  LEU265      0.0019
    212  CD1       19.4410  -19.9150   32.0750 C.3   265  LEU265      0.0001
    213  CD2       21.3630  -20.3380   30.5410 C.3   265  LEU265      0.0001
    214  N         20.0540  -16.6530   33.5240 N.am  266  HIS266     -0.1976
    215  CA        20.7490  -16.0440   34.6490 C.3   266  HIS266      0.1656
    216  C         22.2490  -16.3000   34.5340 C.2   266  HIS266      0.2291
    217  O         22.6600  -17.4390   34.2680 O.2   266  HIS266     -0.2864
    218  CB        20.2180  -16.5950   35.9710 C.3   266  HIS266      0.0771
    219  CG        18.8040  -16.1990   36.2680 C.ar  266  HIS266      0.0820
    220  ND1       17.9280  -15.7760   35.2920 N.ar  266  HIS266     -0.2267
    221  CD2       18.1180  -16.1550   37.4340 C.ar  266  HIS266      0.1154
    222  CE1       16.7610  -15.4920   35.8430 C.ar  266  HIS266      0.1986
    223  NE2       16.8500  -15.7130   37.1420 N.ar  266  HIS266     -0.2212
    224  N         23.6090  -19.1600   36.9570 N.3   269  LEU269     -0.1245
    225  CA        23.1460  -20.5000   36.6110 C.3   269  LEU269      0.1561
    226  C         23.7690  -20.9800   35.3060 C.2   269  LEU269      0.2260
    227  O         24.1080  -22.1620   35.1710 O.2   269  LEU269     -0.2867
    228  CB        21.6200  -20.5220   36.5200 C.3   269  LEU269      0.0270
    229  CG        20.9780  -21.8450   36.0940 C.3   269  LEU269      0.0019
    230  CD1       21.3380  -22.9620   37.0610 C.3   269  LEU269      0.0001
    231  CD2       19.4710  -21.6930   35.9840 C.3   269  LEU269      0.0001
    232  N         26.1720  -24.5680   34.6410 N.3   273  TYR273     -0.1241
    233  CA        26.0660  -25.5700   33.5860 C.3   273  TYR273      0.1605
    234  C         27.3640  -25.6960   32.7990 C.2   273  TYR273      0.2264
    235  O         27.6890  -26.7840   32.3100 O.2   273  TYR273     -0.2867
    236  CB        24.9070  -25.2310   32.6480 C.3   273  TYR273      0.0534
    237  CG        23.5400  -25.5790   33.1970 C.ar  273  TYR273     -0.0201
    238  CD1       23.1490  -26.9040   33.3500 C.ar  273  TYR273     -0.0009
    239  CD2       22.6340  -24.5860   33.5470 C.ar  273  TYR273     -0.0009
    240  CE1       21.8990  -27.2300   33.8450 C.ar  273  TYR273      0.0417
    241  CE2       21.3800  -24.9020   34.0430 C.ar  273  TYR273      0.0417
    242  CZ        21.0190  -26.2260   34.1900 C.ar  273  TYR273      0.1957
    243  OH        19.7730  -26.5490   34.6820 O.3   273  TYR273     -0.2866
@<TRIPOS>BOND
     1   185   184    2
     2   184   183    1
     3   182   183    1
     4   183   186    1
     5    15    14    2
     6    14    13    1
     7   181   180    2
     8   186   187    1
     9    12    13    1
    10   187   188    1
    11   155   156    1
    12   180   179    1
    13     4     3    2
    14    13    16    1
    15     3     2    1
    16   161   159    1
    17     1     2    1
    18   156   159    1
    19   156   157    1
    20     2     5    1
    21   188   189    1
    22   179   178    1
    23    16    18    1
    24    16    17    1
    25   169   170    1
    26   178   171   am
    27   159   160    1
    28   158   157    2
    29   171   170    1
    30   171   172    2
    31   160   162    1
    32   170   173    1
    33   157   163   am
    34    17    19    1
    35     5     6    1
    36     6     7   ar
    37     6     8   ar
    38     7     9   ar
    39   163   164    1
    40     8    10   ar
    41     9    11   ar
    42   173   174    1
    43   165   166    2
    44   165   164    1
    45   174   175    1
    46    10    11   ar
    47   129   127    1
    48    20    21    1
    49   164   167    1
    50   130   128    1
    51    24    21    1
    52    24    25    1
    53   167   168    1
    54    21    22    1
    55   175   177   am
    56   175   176    2
    57   127   128    1
    58   127   124    1
    59    27    25    1
    60    26    25    1
    61   126   125    2
    62   125   124    1
    63    22    23    2
    64   124   123    1
    65    28    29    1
    66    29    30    1
    67   142   143    2
    68   142   141    1
    69   123   114   am
    70    48    49    1
    71    48    47    1
    72    30    31    2
    73    30    32   am
    74   141   140    1
    75    46    47    1
    76    46    45    1
    77   104   105    1
    78   140   133   am
    79   131   132    1
    80   146   147    2
    81   146   145    1
    82    32    33    1
    83   114   115    2
    84   114   113    1
    85   144   145    1
    86    45    42    1
    87   133   132    1
    88   133   134    2
    89   105   106    1
    90   105   108    1
    91   107   106    2
    92   106   112   am
    93   145   148    1
    94    37    38    1
    95    37    36    1
    96   132   135    1
    97    40    38   ar
    98   112   113    1
    99   113   116    1
   100    33    36    1
   101    33    34    1
   102    38    39   ar
   103   205   204    1
   104    57    55    1
   105   116   117    1
   106    97    98    2
   107    97    96    1
   108   148   149    1
   109   117   118    1
   110   109   108    1
   111   109   111    1
   112    95    96    1
   113    42    41    1
   114    42    43    1
   115    55    54    1
   116   108   110    1
   117   203   204    1
   118   203   202    1
   119   135   136    1
   120   151   149   ar
   121   151   153   ar
   122    34    35    2
   123    43    44    2
   124    43    50   am
   125    96    99    1
   126   149   150   ar
   127   136   137    1
   128   119   118    1
   129   119   120    2
   130   202   199    1
   131    50    51    1
   132   153   154   ar
   133   138   137    2
   134    99   100    1
   135    54    51    1
   136    54    56    1
   137   137   139   am
   138   122   120    1
   139    51    52    1
   140   120   121    1
   141   150   152   ar
   142   100   101    1
   143   154   152   ar
   144   201   200    2
   145   199   200    1
   146   199   198    1
   147   101   103   ar
   148   101   102   ar
   149    52    53    2
   150   198   192   am
   151   206   207    1
   152   210   207    1
   153   210   211    1
   154   213   211    1
   155   192   193    2
   156   192   191    1
   157   190   191    1
   158    85    87   ar
   159    85    83   ar
   160    87    86   ar
   161   207   208    1
   162    61    60    2
   163   211   212    1
   164   191   194    1
   165    72    71    2
   166    65    67   ar
   167    65    63   ar
   168    81    80    2
   169   209   208    2
   170    58    59    1
   171    83    82    1
   172    83    84   ar
   173    67    68   ar
   174    62    59    1
   175    62    63    1
   176    60    59    1
   177    60    69   am
   178   208   214   am
   179   235   234    2
   180    82    79    1
   181    86    84   ar
   182    76    77    1
   183    76    75    1
   184   236   237    1
   185   236   233    1
   186    63    64   ar
   187   194   195    1
   188    71    70    1
   189    71    78   am
   190   234   233    1
   191    70    69    1
   192    70    73    1
   193    80    79    1
   194   237   238   ar
   195   237   239   ar
   196    91    90    2
   197   238   240   ar
   198    79    78    1
   199    68    66   ar
   200    75    74    1
   201   214   215    1
   202   239   241   ar
   203   233   232    1
   204   195   196   ar
   205   195   197   ar
   206   240   242   ar
   207    94    92    1
   208    92    93    1
   209    92    89    1
   210    64    66   ar
   211   241   242   ar
   212   242   243    1
   213    73    74    1
   214   217   216    2
   215    90    89    1
   216   216   215    1
   217   215   218    1
   218    88    89    1
   219   227   226    2
   220   220   222   ar
   221   220   219   ar
   222   226   225    1
   223   222   223   ar
   224   218   219    1
   225   231   229    1
   226   229   228    1
   227   229   230    1
   228   219   221   ar
   229   228   225    1
   230   225   224    1
   231   223   221   ar
