@<TRIPOS>MOLECULE
tmp/6c5qA00.pdb
 237 223 0 0 0
SMALL
GASTEIGER

@<TRIPOS>ATOM
      1  N         38.3890  -24.5690   15.8250 N.3    27  PHE27      -0.1241
      2  CA        37.0950  -25.2020   15.6110 C.3    27  PHE27       0.1605
      3  C         37.2700  -26.7030   15.4600 C.2    27  PHE27       0.2264
      4  O         37.9150  -27.1530   14.5010 O.2    27  PHE27      -0.2867
      5  CB        36.4090  -24.6170   14.3780 C.3    27  PHE27       0.0534
      6  CG        36.2810  -23.1210   14.4110 C.ar   27  PHE27      -0.0203
      7  CD1       35.3120  -22.5120   15.1910 C.ar   27  PHE27      -0.0042
      8  CD2       37.1290  -22.3230   13.6610 C.ar   27  PHE27      -0.0042
      9  CE1       35.1920  -21.1350   15.2240 C.ar   27  PHE27      -0.0003
     10  CE2       37.0130  -20.9460   13.6880 C.ar   27  PHE27      -0.0003
     11  CZ        36.0440  -20.3510   14.4720 C.ar   27  PHE27      -0.0000
     12  N         34.9300  -29.2410   14.8650 N.3    29  LEU29      -0.1245
     13  CA        34.1270  -29.8150   13.7870 C.3    29  LEU29       0.1561
     14  C         34.2770  -28.9450   12.5440 C.2    29  LEU29       0.2260
     15  O         33.6190  -27.9100   12.4110 O.2    29  LEU29      -0.2867
     16  CB        32.6690  -29.9390   14.2130 C.3    29  LEU29       0.0270
     17  CG        31.6950  -30.5180   13.1870 C.3    29  LEU29       0.0019
     18  CD1       32.1610  -31.8820   12.7010 C.3    29  LEU29       0.0001
     19  CD2       30.2970  -30.6070   13.7820 C.3    29  LEU29       0.0001
     20  N         20.3800  -37.1370   27.3630 N.3    63  ILE63      -0.1245
     21  CA        21.1180  -36.0640   28.0200 C.3    63  ILE63       0.1561
     22  C         21.1220  -36.3140   29.5210 C.2    63  ILE63       0.2260
     23  O         20.0970  -36.6920   30.1030 O.2    63  ILE63      -0.2867
     24  CB        20.5080  -34.6900   27.6850 C.3    63  ILE63       0.0252
     25  CG1       20.4690  -34.4920   26.1680 C.3    63  ILE63       0.0019
     26  CG2       21.2910  -33.5690   28.3600 C.3    63  ILE63       0.0019
     27  CD1       19.8660  -33.1780   25.7360 C.3    63  ILE63       0.0001
     28  N         21.5600  -34.0790   31.9900 N.3    65  PHE65      -0.1241
     29  CA        20.6890  -33.1030   32.6280 C.3    65  PHE65       0.1605
     30  C         19.2340  -33.3820   32.2650 C.2    65  PHE65       0.2264
     31  O         18.9280  -33.9240   31.2000 O.2    65  PHE65      -0.2867
     32  CB        21.0700  -31.6820   32.2130 C.3    65  PHE65       0.0534
     33  CG        22.4440  -31.2620   32.6490 C.ar   65  PHE65      -0.0203
     34  CD1       22.6960  -30.9320   33.9700 C.ar   65  PHE65      -0.0042
     35  CD2       23.4810  -31.1780   31.7340 C.ar   65  PHE65      -0.0042
     36  CE1       23.9590  -30.5400   34.3720 C.ar   65  PHE65      -0.0003
     37  CE2       24.7450  -30.7860   32.1300 C.ar   65  PHE65      -0.0003
     38  CZ        24.9840  -30.4660   33.4510 C.ar   65  PHE65      -0.0000
     39  N         13.4400  -24.9050   25.2520 N.3    81  ARG81      -0.1231
     40  CA        14.5270  -25.8540   25.4610 C.3    81  ARG81       0.1694
     41  C         15.4710  -25.8890   24.2640 C.2    81  ARG81       0.2591
     42  O         16.6960  -25.9020   24.4320 O.2    81  ARG81      -0.2718
     43  CB        13.9520  -27.2430   25.7440 C.3    81  ARG81       0.0321
     44  CG        14.9920  -28.3230   25.9640 C.3    81  ARG81       0.0489
     45  CD        14.6920  -29.1470   27.2070 C.3    81  ARG81       0.2205
     46  NE        13.4560  -29.9130   27.0800 N.pl3  81  ARG81      -0.0865
     47  CZ        12.9460  -30.6730   28.0440 C.cat  81  ARG81       0.5346
     48  NH1       13.5650  -30.7680   29.2130 N.pl3  81  ARG81       0.1354
     49  NH2       11.8150  -31.3360   27.8400 N.pl3  81  ARG81       0.1354
     50  N         14.9230  -25.8880   23.0480 N.am   82  ILE82      -0.1980
     51  CA        15.7700  -25.8870   21.8590 C.3    82  ILE82       0.1595
     52  C         16.5080  -24.5600   21.7280 C.2    82  ILE82       0.2287
     53  O         17.6990  -24.5270   21.3960 O.2    82  ILE82      -0.2864
     54  CB        14.9310  -26.1980   20.6050 C.3    82  ILE82       0.0276
     55  CG1       14.3170  -27.5940   20.7100 C.3    82  ILE82       0.0022
     56  CG2       15.7810  -26.0850   19.3480 C.3    82  ILE82       0.0022
     57  CD1       13.4370  -27.9580   19.5380 C.3    82  ILE82       0.0001
     58  N         17.3570  -22.3750   24.1140 N.3    84  GLN84      -0.1231
     59  CA        18.4070  -22.2900   25.1220 C.3    84  GLN84       0.1698
     60  C         19.5620  -23.2370   24.8280 C.2    84  GLN84       0.2592
     61  O         20.6850  -22.9870   25.2790 O.2    84  GLN84      -0.2718
     62  CB        17.8260  -22.5820   26.5060 C.3    84  GLN84       0.0381
     63  CG        16.8470  -21.5340   27.0040 C.3    84  GLN84       0.0905
     64  CD        17.5300  -20.3760   27.7060 C.2    84  GLN84       0.2608
     65  OE1       18.7420  -20.1910   27.5920 O.2    84  GLN84      -0.2717
     66  NE2       16.7520  -19.5910   28.4420 N.am   84  GLN84      -0.0878
     67  N         19.3140  -24.3080   24.0850 N.am   85  GLY85      -0.1957
     68  CA        20.3680  -25.2240   23.7000 C.3    85  GLY85       0.1869
     69  C         21.3520  -24.6100   22.7240 C.2    85  GLY85       0.2309
     70  O         22.5650  -24.7470   22.8890 O.2    85  GLY85      -0.2863
     71  N         21.5640  -21.3800   22.1510 N.3    86  GLN86      -0.1231
     72  CA        22.0770  -20.2100   22.8590 C.3    86  GLN86       0.1698
     73  C         23.3420  -20.5650   23.6270 C.2    86  GLN86       0.2592
     74  O         24.3370  -19.8410   23.5780 O.2    86  GLN86      -0.2718
     75  CB        21.0230  -19.6520   23.8190 C.3    86  GLN86       0.0381
     76  CG        20.1470  -18.5650   23.2230 C.3    86  GLN86       0.0905
     77  CD        20.7980  -17.1960   23.2780 C.2    86  GLN86       0.2608
     78  OE1       21.1320  -16.6990   24.3550 O.2    86  GLN86      -0.2717
     79  NE2       20.9840  -16.5790   22.1150 N.am   86  GLN86      -0.0878
     80  N         23.2920  -21.6940   24.3360 N.am   87  PHE87      -0.1962
     81  CA        24.4580  -22.1520   25.0810 C.3    87  PHE87       0.1771
     82  C         25.6210  -22.4590   24.1460 C.2    87  PHE87       0.2619
     83  O         26.7700  -22.1080   24.4370 O.2    87  PHE87      -0.2715
     84  CB        24.0940  -23.3810   25.9130 C.3    87  PHE87       0.0574
     85  CG        25.1610  -23.7940   26.8820 C.ar   87  PHE87      -0.0200
     86  CD1       25.1970  -23.2610   28.1610 C.ar   87  PHE87      -0.0042
     87  CD2       26.1260  -24.7190   26.5180 C.ar   87  PHE87      -0.0042
     88  CE1       26.1750  -23.6410   29.0550 C.ar   87  PHE87      -0.0003
     89  CE2       27.1080  -25.1020   27.4080 C.ar   87  PHE87      -0.0003
     90  CZ        27.1320  -24.5630   28.6780 C.ar   87  PHE87      -0.0000
     91  N         25.3410  -23.1120   23.0140 N.am   88  ARG88      -0.1963
     92  CA        26.3980  -23.4120   22.0530 C.3    88  ARG88       0.1729
     93  C         26.9970  -22.1400   21.4650 C.2    88  ARG88       0.2616
     94  O         28.2040  -22.0880   21.1980 O.2    88  ARG88      -0.2715
     95  CB        25.8560  -24.3160   20.9440 C.3    88  ARG88       0.0348
     96  CG        26.8270  -24.5430   19.7960 C.3    88  ARG88       0.0492
     97  CD        28.1310  -25.1530   20.2770 C.3    88  ARG88       0.2205
     98  NE        29.2110  -24.9310   19.3200 N.pl3  88  ARG88      -0.0865
     99  CZ        30.4820  -25.2510   19.5370 C.cat  88  ARG88       0.5346
    100  NH1       30.8420  -25.8130   20.6830 N.pl3  88  ARG88       0.1354
    101  NH2       31.3950  -25.0080   18.6050 N.pl3  88  ARG88       0.1354
    102  N         26.1740  -21.1070   21.2640 N.am   89  SER89      -0.1950
    103  CA        26.6840  -19.8360   20.7600 C.3    89  SER89       0.1924
    104  C         27.7810  -19.2810   21.6600 C.2    89  SER89       0.2314
    105  O         28.7590  -18.7030   21.1720 O.2    89  SER89      -0.2863
    106  CB        25.5430  -18.8300   20.6260 C.3    89  SER89       0.2116
    107  OG        24.5840  -19.2690   19.6810 O.3    89  SER89      -0.2180
    108  N         30.8490  -21.0290   20.8980 N.3    92  ALA92      -0.1245
    109  CA        31.3630  -20.5890   19.6060 C.3    92  ALA92       0.1562
    110  C         32.1070  -19.2660   19.7210 C.2    92  ALA92       0.2260
    111  O         33.0690  -19.0340   18.9810 O.2    92  ALA92      -0.2867
    112  CB        30.2220  -20.4750   18.5960 C.3    92  ALA92       0.0290
    113  N         35.7360  -18.5260   18.3740 N.3    96  ILE96      -0.1245
    114  CA        35.9720  -17.4520   17.4130 C.3    96  ILE96       0.1561
    115  C         36.9830  -16.4550   17.9670 C.2    96  ILE96       0.2260
    116  O         37.8470  -15.9550   17.2360 O.2    96  ILE96      -0.2867
    117  CB        34.6420  -16.7700   17.0390 C.3    96  ILE96       0.0252
    118  CG1       33.7600  -17.7150   16.2210 C.3    96  ILE96       0.0019
    119  CG2       34.8900  -15.4910   16.2530 C.3    96  ILE96       0.0019
    120  CD1       32.3710  -17.1720   15.9640 C.3    96  ILE96       0.0001
    121  N         29.0350  -16.8900   13.0770 N.3   126  ILE126     -0.1245
    122  CA        28.1290  -17.9860   13.4080 C.3   126  ILE126      0.1561
    123  C         27.1290  -18.1990   12.2800 C.2   126  ILE126      0.2260
    124  O         26.7980  -19.3380   11.9300 O.2   126  ILE126     -0.2867
    125  CB        27.4270  -17.7110   14.7500 C.3   126  ILE126      0.0252
    126  CG1       28.4480  -17.7050   15.8900 C.3   126  ILE126      0.0019
    127  CG2       26.3310  -18.7400   15.0040 C.3   126  ILE126      0.0019
    128  CD1       27.8510  -17.4170   17.2500 C.3   126  ILE126      0.0001
    129  N         29.4190  -20.0110    9.5360 N.3   129  MET129     -0.1230
    130  CA        29.8130  -21.3730    9.8770 C.3   129  MET129      0.1702
    131  C         28.6180  -22.2870   10.1000 C.2   129  MET129      0.2592
    132  O         28.7750  -23.5120   10.0630 O.2   129  MET129     -0.2718
    133  CB        30.6990  -21.3700   11.1210 C.3   129  MET129      0.0401
    134  CG        31.9100  -20.4700   11.0030 C.3   129  MET129      0.0596
    135  SD        33.0410  -20.6780   12.3870 S.3   129  MET129     -0.1393
    136  CE        33.6490  -22.3320   12.0650 C.3   129  MET129      0.0692
    137  N         27.4330  -21.7210   10.3400 N.am  130  LEU130     -0.1980
    138  CA        26.2330  -22.5420   10.4430 C.3   130  LEU130      0.1596
    139  C         25.9310  -23.2430    9.1250 C.2   130  LEU130      0.2287
    140  O         25.4120  -24.3640    9.1230 O.2   130  LEU130     -0.2864
    141  CB        25.0490  -21.6790   10.8800 C.3   130  LEU130      0.0297
    142  CG        24.0020  -22.3040   11.8040 C.3   130  LEU130      0.0022
    143  CD1       24.6530  -22.8840   13.0470 C.3   130  LEU130      0.0001
    144  CD2       22.9550  -21.2700   12.1870 C.3   130  LEU130      0.0001
    145  N         27.2970  -26.7640    8.6400 N.3   133  LEU133     -0.1245
    146  CA        26.6260  -27.8580    9.3270 C.3   133  LEU133      0.1561
    147  C         25.2760  -28.2080    8.7160 C.2   133  LEU133      0.2260
    148  O         24.5740  -29.0700    9.2540 O.2   133  LEU133     -0.2867
    149  CB        26.4370  -27.5090   10.8090 C.3   133  LEU133      0.0270
    150  CG        27.6760  -27.0540   11.5840 C.3   133  LEU133      0.0019
    151  CD1       27.3150  -26.6900   13.0180 C.3   133  LEU133      0.0001
    152  CD2       28.7570  -28.1230   11.5530 C.3   133  LEU133      0.0001
    153  N         20.3010  -29.5430   10.1460 N.3   139  VAL139     -0.1231
    154  CA        21.5430  -28.9500   10.6290 C.3   139  VAL139      0.1692
    155  C         22.1620  -29.8730   11.6710 C.2   139  VAL139      0.2592
    156  O         21.4570  -30.4430   12.5120 O.2   139  VAL139     -0.2718
    157  CB        21.2990  -27.5350   11.2020 C.3   139  VAL139      0.0266
    158  CG1       20.1820  -27.5580   12.2380 C.3   139  VAL139      0.0020
    159  CG2       22.5780  -26.9570   11.7930 C.3   139  VAL139      0.0020
    160  N         23.4830  -30.0350   11.5980 N.am  140  LEU140     -0.1966
    161  CA        24.2110  -30.7880   12.6110 C.3   140  LEU140      0.1728
    162  C         24.3260  -29.9660   13.8880 C.2   140  LEU140      0.2616
    163  O         24.7110  -28.7930   13.8530 O.2   140  LEU140     -0.2715
    164  CB        25.6030  -31.1640   12.1020 C.3   140  LEU140      0.0311
    165  CG        25.7110  -32.1710   10.9560 C.3   140  LEU140      0.0022
    166  CD1       27.1590  -32.3150   10.5050 C.3   140  LEU140      0.0001
    167  CD2       25.1440  -33.5160   11.3770 C.3   140  LEU140      0.0001
    168  N         23.9930  -30.5800   15.0210 N.am  141  ILE141     -0.1963
    169  CA        24.0410  -29.9100   16.3120 C.3   141  ILE141      0.1727
    170  C         24.8340  -30.7670   17.2880 C.2   141  ILE141      0.2616
    171  O         24.9490  -31.9870   17.1260 O.2   141  ILE141     -0.2715
    172  CB        22.6240  -29.6220   16.8630 C.3   141  ILE141      0.0290
    173  CG1       21.9120  -30.9280   17.2190 C.3   141  ILE141      0.0022
    174  CG2       21.7980  -28.8410   15.8520 C.3   141  ILE141      0.0023
    175  CD1       20.5440  -30.7350   17.8190 C.3   141  ILE141      0.0001
    176  N         25.4030  -30.1070   18.2980 N.am  142  SER142     -0.1950
    177  CA        26.1020  -30.7550   19.4090 C.3   142  SER142      0.1924
    178  C         27.2790  -31.6010   18.9100 C.2   142  SER142      0.2314
    179  O         27.2620  -32.8330   18.9510 O.2   142  SER142     -0.2863
    180  CB        25.1270  -31.6020   20.2360 C.3   142  SER142      0.2116
    181  OG        25.7900  -32.2530   21.3020 O.3   142  SER142     -0.2180
    182  N         18.9780  -32.0920   13.5830 N.3   148  MET148     -0.1245
    183  CA        17.6080  -31.6070   13.6890 C.3   148  MET148      0.1570
    184  C         17.1440  -31.1450   12.3150 C.2   148  MET148      0.2261
    185  O         17.7830  -30.2870   11.6980 O.2   148  MET148     -0.2867
    186  CB        17.5100  -30.4700   14.7070 C.3   148  MET148      0.0387
    187  CG        16.1000  -29.9810   14.9580 C.3   148  MET148      0.0595
    188  SD        15.9700  -29.0690   16.5040 S.3   148  MET148     -0.1393
    189  CE        16.5040  -30.3210   17.6660 C.3   148  MET148      0.0692
    190  N         12.1900  -27.8110   12.9500 N.3   153  LEU153     -0.1245
    191  CA        12.3980  -26.4520   13.4400 C.3   153  LEU153      0.1561
    192  C         11.3400  -25.5020   12.8990 C.2   153  LEU153      0.2260
    193  O         10.9560  -24.5440   13.5780 O.2   153  LEU153     -0.2867
    194  CB        13.7930  -25.9630   13.0550 C.3   153  LEU153      0.0270
    195  CG        14.9690  -26.5190   13.8590 C.3   153  LEU153      0.0019
    196  CD1       16.2810  -26.2320   13.1470 C.3   153  LEU153      0.0001
    197  CD2       14.9760  -25.9190   15.2560 C.3   153  LEU153      0.0001
    198  N         15.2620  -20.2590   12.5850 N.3   164  MET164     -0.1245
    199  CA        16.3190  -20.8730   11.7940 C.3   164  MET164      0.1570
    200  C         16.0800  -20.7900   10.2930 C.2   164  MET164      0.2261
    201  O         16.9990  -21.0900    9.5230 O.2   164  MET164     -0.2867
    202  CB        16.4950  -22.3430   12.1910 C.3   164  MET164      0.0387
    203  CG        17.0110  -22.5440   13.6010 C.3   164  MET164      0.0595
    204  SD        18.6380  -21.8070   13.8390 S.3   164  MET164     -0.1393
    205  CE        19.5980  -22.7350   12.6510 C.3   164  MET164      0.0692
    206  N         19.0740  -15.9690   30.2030 N.3   265  LEU265     -0.1245
    207  CA        19.4760  -16.9570   31.1970 C.3   265  LEU265      0.1561
    208  C         20.3440  -16.3140   32.2700 C.2   265  LEU265      0.2260
    209  O         21.2400  -15.5190   31.9720 O.2   265  LEU265     -0.2867
    210  CB        20.2290  -18.1070   30.5180 C.3   265  LEU265      0.0270
    211  CG        20.6440  -19.3000   31.3850 C.3   265  LEU265      0.0019
    212  CD1       19.4410  -19.9150   32.0750 C.3   265  LEU265      0.0001
    213  CD2       21.3630  -20.3380   30.5410 C.3   265  LEU265      0.0001
    214  N         26.1720  -24.5680   34.6410 N.3   273  TYR273     -0.1241
    215  CA        26.0660  -25.5700   33.5860 C.3   273  TYR273      0.1605
    216  C         27.3640  -25.6960   32.7990 C.2   273  TYR273      0.2264
    217  O         27.6890  -26.7840   32.3100 O.2   273  TYR273     -0.2867
    218  CB        24.9070  -25.2310   32.6480 C.3   273  TYR273      0.0534
    219  CG        23.5400  -25.5790   33.1970 C.ar  273  TYR273     -0.0201
    220  CD1       23.1490  -26.9040   33.3500 C.ar  273  TYR273     -0.0009
    221  CD2       22.6340  -24.5860   33.5470 C.ar  273  TYR273     -0.0009
    222  CE1       21.8990  -27.2300   33.8450 C.ar  273  TYR273      0.0417
    223  CE2       21.3800  -24.9020   34.0430 C.ar  273  TYR273      0.0417
    224  CZ        21.0190  -26.2260   34.1900 C.ar  273  TYR273      0.1957
    225  OH        19.7730  -26.5490   34.6820 O.3   273  TYR273     -0.2866
    226  N         29.1010  -29.6490   32.9300 N.3   277  TYR277     -0.1241
    227  CA        29.0520  -30.3490   31.6450 C.3   277  TYR277      0.1605
    228  C         28.7080  -31.8300   31.7850 C.2   277  TYR277      0.2264
    229  O         29.5060  -32.6970   31.4300 O.2   277  TYR277     -0.2867
    230  CB        30.3830  -30.1940   30.9030 C.3   277  TYR277      0.0534
    231  CG        30.5040  -28.9010   30.1290 C.ar  277  TYR277     -0.0201
    232  CD1       29.3730  -28.2100   29.7150 C.ar  277  TYR277     -0.0009
    233  CD2       31.7480  -28.3720   29.8080 C.ar  277  TYR277     -0.0009
    234  CE1       29.4760  -27.0300   29.0050 C.ar  277  TYR277      0.0417
    235  CE2       31.8610  -27.1900   29.0970 C.ar  277  TYR277      0.0417
    236  CZ        30.7210  -26.5230   28.6990 C.ar  277  TYR277      0.1957
    237  OH        30.8240  -25.3470   27.9920 O.3   277  TYR277     -0.2866
@<TRIPOS>BOND
     1   145   146    1
     2   147   148    2
     3   147   146    1
     4   140   139    2
     5   139   138    1
     6   146   149    1
     7   201   200    2
     8   129   130    1
     9   130   131    1
    10   130   133    1
    11   132   131    2
    12   131   137   am
    13   153   154    1
    14   200   199    1
    15   137   138    1
    16   138   141    1
    17   166   165    1
    18   154   157    1
    19   154   155    1
    20   149   150    1
    21   141   142    1
    22   165   167    1
    23   165   164    1
    24   134   133    1
    25   134   135    1
    26   157   159    1
    27   157   158    1
    28   152   150    1
    29   150   151    1
    30   160   155   am
    31   160   161    1
    32   155   156    2
    33   185   184    2
    34   199   202    1
    35   199   198    1
    36   142   144    1
    37   142   143    1
    38   124   123    2
    39   136   135    1
    40   164   161    1
    41   202   203    1
    42   123   122    1
    43   184   183    1
    44    15    14    2
    45    14    13    1
    46   161   162    1
    47   205   204    1
    48    18    17    1
    49   192   191    1
    50   192   193    2
    51   190   191    1
    52   194   191    1
    53   194   195    1
    54   121   122    1
    55   196   195    1
    56    17    19    1
    57    17    16    1
    58   122   125    1
    59   182   183    1
    60   203   204    1
    61     8    10   ar
    62     8     6   ar
    63    10    11   ar
    64   183   186    1
    65    13    16    1
    66    13    12    1
    67   163   162    2
    68   195   197    1
    69   162   168   am
    70     5     6    1
    71     5     2    1
    72     6     7   ar
    73    11     9   ar
    74     4     3    2
    75   186   187    1
    76   125   127    1
    77   125   126    1
    78   187   188    1
    79   168   169    1
    80     7     9   ar
    81     3     2    1
    82     2     1    1
    83   174   172    1
    84   126   128    1
    85   120   118    1
    86   118   117    1
    87   119   117    1
    88   169   172    1
    89   169   170    1
    90   188   189    1
    91   172   173    1
    92   117   114    1
    93   171   170    2
    94   173   175    1
    95   116   115    2
    96   170   176   am
    97   114   115    1
    98   114   113    1
    99   176   177    1
   100   112   109    1
   101   101    99    1
   102   178   179    2
   103   178   177    1
   104   111   110    2
   105    98    99    2
   106    98    97    1
   107    56    54    1
   108   177   180    1
   109    99   100    1
   110    57    55    1
   111   109   110    1
   112   109   108    1
   113   107   106    1
   114    96    97    1
   115    96    95    1
   116   180   181    1
   117    54    55    1
   118    54    51    1
   119   106   103    1
   120   103   102    1
   121   103   104    1
   122    95    92    1
   123   105   104    2
   124    94    93    2
   125   102    93   am
   126    53    52    2
   127    93    92    1
   128    52    51    1
   129    51    50    1
   130    92    91    1
   131    79    77   am
   132    71    72    1
   133    69    70    2
   134    69    68    1
   135    72    73    1
   136    72    75    1
   137    91    82   am
   138    50    41   am
   139    76    77    1
   140    76    75    1
   141    77    78    2
   142    74    73    2
   143    73    80   am
   144    68    67    1
   145    67    60   am
   146    58    59    1
   147    82    83    2
   148    82    81    1
   149    41    42    2
   150    41    40    1
   151    80    81    1
   152    60    59    1
   153    60    61    2
   154    81    84    1
   155    59    62    1
   156    39    40    1
   157    40    43    1
   158    27    25    1
   159    43    44    1
   160    84    85    1
   161    44    45    1
   162    25    24    1
   163    62    63    1
   164    87    85   ar
   165    87    89   ar
   166    85    86   ar
   167    63    64    1
   168    46    45    1
   169    46    47    2
   170    20    21    1
   171    89    90   ar
   172    65    64    2
   173    24    21    1
   174    24    26    1
   175    64    66   am
   176    49    47    1
   177   237   236    1
   178    21    22    1
   179    47    48    1
   180    86    88   ar
   181    90    88   ar
   182   236   234   ar
   183   236   235   ar
   184   234   232   ar
   185   235   233   ar
   186    22    23    2
   187   232   231   ar
   188   233   231   ar
   189   231   230    1
   190   206   207    1
   191   210   207    1
   192   210   211    1
   193   213   211    1
   194   230   227    1
   195   207   208    1
   196    31    30    2
   197   211   212    1
   198   229   228    2
   199   227   228    1
   200   227   226    1
   201    35    37   ar
   202    35    33   ar
   203   209   208    2
   204    28    29    1
   205    37    38   ar
   206    32    29    1
   207    32    33    1
   208    30    29    1
   209   217   216    2
   210   218   219    1
   211   218   215    1
   212    33    34   ar
   213   216   215    1
   214   219   220   ar
   215   219   221   ar
   216   220   222   ar
   217    38    36   ar
   218   221   223   ar
   219   215   214    1
   220   222   224   ar
   221    34    36   ar
   222   223   224   ar
   223   224   225    1
