@<TRIPOS>MOLECULE
tmp/6c5uA00.pdb
 195 184 0 0 0
SMALL
GASTEIGER

@<TRIPOS>ATOM
      1  N         45.7250   -5.9240   47.8510 N.3    28  ILE28      -0.1231
      2  CA        45.5770   -6.7500   49.0610 C.3    28  ILE28       0.1692
      3  C         44.5240   -6.2480   49.9800 C.2    28  ILE28       0.2593
      4  O         44.0630   -6.9960   50.8050 O.2    28  ILE28      -0.2718
      5  CB        46.8500   -6.8800   49.8900 C.3    28  ILE28       0.0266
      6  CG1       47.4930   -5.5200   49.9630 C.3    28  ILE28       0.0019
      7  CG2       47.6780   -7.9670   49.3150 C.3    28  ILE28       0.0020
      8  CD1       48.7130   -5.5500   50.7620 C.3    28  ILE28       0.0001
      9  N         44.2040   -4.9730   49.8910 N.am   29  GLY29      -0.1942
     10  CA        43.1780   -4.4150   50.7160 C.3    29  GLY29       0.2014
     11  C         42.6770   -3.0840   50.2360 C.2    29  GLY29       0.2640
     12  O         43.3860   -2.4230   49.4750 O.2    29  GLY29      -0.2714
     13  N         41.5150   -2.6720   50.7110 N.am   30  SER30      -0.1935
     14  CA        41.0270   -1.3230   50.4310 C.3    30  SER30       0.2055
     15  C         39.9580   -0.8210   51.4140 C.2    30  SER30       0.2643
     16  O         39.0330   -1.5320   51.7120 O.2    30  SER30      -0.2714
     17  CB        40.4650   -1.2670   49.0210 C.3    30  SER30       0.2130
     18  OG        39.2940   -2.0650   48.9490 O.3    30  SER30      -0.2179
     19  N         40.1210    0.4000   51.9070 N.am   31  GLY31      -0.1954
     20  CA        39.0730    1.1610   52.6020 C.3    31  GLY31       0.1869
     21  C         38.1360    1.8090   51.5920 C.2    31  GLY31       0.2309
     22  O         38.2010    1.5170   50.3860 O.2    31  GLY31      -0.2863
     23  N         38.3230    4.9340   50.9860 N.3    33  ASP33      -0.1225
     24  CA        39.0690    6.0710   50.4060 C.3    33  ASP33       0.1805
     25  C         40.5360    5.7420   50.0840 C.2    33  ASP33       0.2598
     26  O         41.2840    6.6310   49.6670 O.2    33  ASP33      -0.2718
     27  CB        38.9060    7.3990   51.2320 C.3    33  ASP33       0.1424
     28  CG        38.8060    7.1490   52.6690 C.2    33  ASP33       0.3668
     29  OD1       39.3100    6.0840   53.1090 O.co2  33  ASP33      -0.2456
     30  OD2       38.2350    7.9980   53.3870 O.co2  33  ASP33      -0.2456
     31  N         40.9180    4.4720   50.1650 N.am   34  SER34      -0.1952
     32  CA        42.2840    4.1100   49.9840 C.3    34  SER34       0.1924
     33  C         42.3800    2.7220   49.4130 C.2    34  SER34       0.2314
     34  O         41.4730    1.8960   49.6010 O.2    34  SER34      -0.2863
     35  CB        42.9910    4.1190   51.3800 C.3    34  SER34       0.2116
     36  OG        42.6560    2.9560   52.1300 O.3    34  SER34      -0.2180
     37  N         45.3470   -0.5580   49.0270 N.3    36  ALA36      -0.1245
     38  CA        46.6600   -1.0760   49.3560 C.3    36  ALA36       0.1562
     39  C         47.0810   -2.1830   48.3990 C.2    36  ALA36       0.2260
     40  O         46.2930   -3.0340   48.0460 O.2    36  ALA36      -0.2867
     41  CB        46.6830   -1.5790   50.7890 C.3    36  ALA36       0.0290
     42  N         54.3740   -3.5120   50.8630 N.3    44  ILE44      -0.1245
     43  CA        53.0500   -2.9580   50.8780 C.3    44  ILE44       0.1561
     44  C         53.1540   -1.5020   50.4740 C.2    44  ILE44       0.2260
     45  O         54.0260   -0.7630   50.9880 O.2    44  ILE44      -0.2867
     46  CB        52.4320   -2.9560   52.2810 C.3    44  ILE44       0.0252
     47  CG1       52.3460   -4.3710   52.8460 C.3    44  ILE44       0.0019
     48  CG2       51.0480   -2.3680   52.2600 C.3    44  ILE44       0.0019
     49  CD1       51.3450   -5.2660   52.2090 C.3    44  ILE44       0.0001
     50  N         50.5030    1.5570   50.5250 N.3    46  LYS46      -0.1245
     51  CA        49.2020    2.1490   50.8740 C.3    46  LYS46       0.1561
     52  C         49.0740    3.4240   50.0550 C.2    46  LYS46       0.2260
     53  O         50.0530    4.1960   49.9390 O.2    46  LYS46      -0.2867
     54  CB        49.1550    2.5710   52.3250 C.3    46  LYS46       0.0271
     55  CG        49.0860    1.4110   53.3030 C.3    46  LYS46       0.0035
     56  CD        48.8690    1.7700   54.7430 C.3    46  LYS46       0.0206
     57  CE        47.6530    2.5980   55.0020 C.3    46  LYS46       0.1093
     58  NZ        47.2700    2.4750   56.4800 N.3    46  LYS46      -0.1314
     59  N         46.3550    6.7620   48.6310 N.3    48  LYS48      -0.1245
     60  CA        45.1470    7.5000   48.8290 C.3    48  LYS48       0.1561
     61  C         45.1560    8.6580   47.8460 C.2    48  LYS48       0.2260
     62  O         46.2100    9.2340   47.6390 O.2    48  LYS48      -0.2867
     63  CB        45.2680    7.9910   50.2760 C.3    48  LYS48       0.0271
     64  CG        44.0680    8.6860   50.7750 C.3    48  LYS48       0.0035
     65  CD        44.0550    8.8390   52.2980 C.3    48  LYS48       0.0206
     66  CE        42.5860    9.1300   52.6610 C.3    48  LYS48       0.1093
     67  NZ        42.3350    9.3030   54.0970 N.3    48  LYS48      -0.1314
     68  N         48.4480   10.9860   54.4710 N.3    51  TYR51      -0.1241
     69  CA        49.3470   10.0760   55.1760 C.3    51  TYR51       0.1605
     70  C         50.6100   10.6660   55.9190 C.2    51  TYR51       0.2264
     71  O         51.5030    9.9540   56.3870 O.2    51  TYR51      -0.2867
     72  CB        49.8150    9.0210   54.1860 C.3    51  TYR51       0.0534
     73  CG        48.7820    7.9300   53.7940 C.ar   51  TYR51      -0.0201
     74  CD1       47.6600    7.6590   54.5970 C.ar   51  TYR51      -0.0009
     75  CD2       48.9350    7.1680   52.6170 C.ar   51  TYR51      -0.0009
     76  CE1       46.7430    6.7150   54.2190 C.ar   51  TYR51       0.0417
     77  CE2       47.9920    6.1760   52.2590 C.ar   51  TYR51       0.0417
     78  CZ        46.9200    5.9470   53.0550 C.ar   51  TYR51       0.1957
     79  OH        45.9640    4.9900   52.7820 O.3    51  TYR51      -0.2866
     80  N         50.5440    9.5270   59.6380 N.3    54  GLU54      -0.1245
     81  CA        50.8100    8.1100   59.7480 C.3    54  GLU54       0.1567
     82  C         52.3170    7.8530   59.6200 C.2    54  GLU54       0.2260
     83  O         52.9000    7.0720   60.3990 O.2    54  GLU54      -0.2867
     84  CB        49.9710    7.3420   58.7310 C.3    54  GLU54       0.0388
     85  CG        50.2290    5.8430   58.7240 C.3    54  GLU54       0.1160
     86  CD        49.1520    5.0130   58.0330 C.2    54  GLU54       0.3649
     87  OE1       48.0550    5.6000   57.6200 O.co2  54  GLU54      -0.2457
     88  OE2       49.3890    3.7760   57.9690 O.co2  54  GLU54      -0.2457
     89  N         56.4400    0.1740   52.4680 N.3    88  TYR88      -0.1241
     90  CA        57.2180   -0.4570   53.5080 C.3    88  TYR88       0.1605
     91  C         57.2140   -1.9480   53.2430 C.2    88  TYR88       0.2264
     92  O         56.3360   -2.4270   52.5030 O.2    88  TYR88      -0.2867
     93  CB        56.5900   -0.1680   54.9030 C.3    88  TYR88       0.0534
     94  CG        55.1500   -0.5490   55.0800 C.ar   88  TYR88      -0.0201
     95  CD1       54.7920   -1.8200   55.4800 C.ar   88  TYR88      -0.0009
     96  CD2       54.1180    0.3830   54.8870 C.ar   88  TYR88      -0.0009
     97  CE1       53.4510   -2.1560   55.7200 C.ar   88  TYR88       0.0417
     98  CE2       52.7380    0.0330   55.1280 C.ar   88  TYR88       0.0417
     99  CZ        52.4420   -1.2280   55.5260 C.ar   88  TYR88       0.1957
    100  OH        51.1390   -1.5850   55.6640 O.3    88  TYR88      -0.2866
    101  N         56.3590   -5.7010   53.6930 N.3    90  GLU90      -0.1231
    102  CA        55.2470   -6.4900   54.2030 C.3    90  GLU90       0.1699
    103  C         55.7130   -7.2210   55.4440 C.2    90  GLU90       0.2592
    104  O         56.7510   -7.8690   55.4370 O.2    90  GLU90      -0.2718
    105  CB        54.8100   -7.5590   53.1730 C.3    90  GLU90       0.0402
    106  CG        53.5750   -8.3840   53.5550 C.3    90  GLU90       0.1161
    107  CD        53.3400   -9.6050   52.6800 C.2    90  GLU90       0.3649
    108  OE1       54.3180  -10.2220   52.2710 O.co2  90  GLU90      -0.2457
    109  OE2       52.1670   -9.9660   52.3890 O.co2  90  GLU90      -0.2457
    110  N         54.9380   -7.1390   56.5150 N.am   91  ILE91      -0.1966
    111  CA        55.1700   -7.9520   57.6710 C.3    91  ILE91       0.1727
    112  C         54.4960   -9.2660   57.4110 C.2    91  ILE91       0.2616
    113  O         53.3190   -9.2840   57.0530 O.2    91  ILE91      -0.2715
    114  CB        54.6210   -7.2780   58.9150 C.3    91  ILE91       0.0290
    115  CG1       55.3620   -5.9650   59.1260 C.3    91  ILE91       0.0022
    116  CG2       54.8040   -8.1710   60.1290 C.3    91  ILE91       0.0023
    117  CD1       54.6510   -5.0420   60.0730 C.3    91  ILE91       0.0001
    118  N         55.2600  -10.3470   57.5790 N.am   92  LYS92      -0.1963
    119  CA        54.7870  -11.6870   57.2890 C.3    92  LYS92       0.1728
    120  C         54.1320  -12.2790   58.4860 C.2    92  LYS92       0.2616
    121  O         54.5910  -12.0940   59.6290 O.2    92  LYS92      -0.2715
    122  CB        55.9430  -12.6010   56.8500 C.3    92  LYS92       0.0311
    123  CG        56.8140  -12.0710   55.7260 C.3    92  LYS92       0.0038
    124  CD        56.3070  -12.3810   54.3330 C.3    92  LYS92       0.0206
    125  CE        57.3920  -11.9930   53.3270 C.3    92  LYS92       0.1093
    126  NZ        56.7590  -11.5270   52.0800 N.3    92  LYS92      -0.1314
    127  N         53.0670  -13.0310   58.2420 N.am   93  GLY93      -0.1955
    128  CA        52.2550  -13.5910   59.3260 C.3    93  GLY93       0.1869
    129  C         50.8550  -13.8560   58.8530 C.2    93  GLY93       0.2309
    130  O         50.5700  -13.6720   57.6940 O.2    93  GLY93      -0.2863
    131  N         46.7140  -13.1180   59.8510 N.3    95  PHE95      -0.1241
    132  CA        45.9010  -12.2220   60.6380 C.3    95  PHE95       0.1605
    133  C         45.0600  -12.9780   61.6180 C.2    95  PHE95       0.2264
    134  O         44.5160  -14.0030   61.2880 O.2    95  PHE95      -0.2867
    135  CB        45.0340  -11.3030   59.7530 C.3    95  PHE95       0.0534
    136  CG        45.7970  -10.1620   59.2000 C.ar   95  PHE95      -0.0203
    137  CD1       46.2500   -9.1440   60.0450 C.ar   95  PHE95      -0.0042
    138  CD2       46.1840  -10.1640   57.8720 C.ar   95  PHE95      -0.0042
    139  CE1       47.0350   -8.1170   59.5460 C.ar   95  PHE95      -0.0003
    140  CE2       46.9490   -9.1250   57.3630 C.ar   95  PHE95      -0.0003
    141  CZ        47.4000   -8.1220   58.2020 C.ar   95  PHE95      -0.0000
    142  N         41.8650   -7.7220   62.8530 N.3   192  ASN192     -0.1225
    143  CA        42.3430   -7.6060   61.4480 C.3   192  ASN192      0.1785
    144  C         43.6280   -6.7400   61.2560 C.2   192  ASN192      0.2597
    145  O         44.1020   -6.5640   60.1290 O.2   192  ASN192     -0.2718
    146  CB        41.2100   -7.1210   60.5270 C.3   192  ASN192      0.1169
    147  CG        40.9790   -5.6400   60.6250 C.2   192  ASN192      0.2627
    148  OD1       41.0130   -5.0720   61.6930 O.2   192  ASN192     -0.2716
    149  ND2       40.7960   -5.0060   59.5150 N.am  192  ASN192     -0.0877
    150  N         44.1820   -6.1840   62.3290 N.am  193  HIS193     -0.1975
    151  CA        45.4930   -5.5490   62.2820 C.3   193  HIS193      0.1656
    152  C         46.5640   -6.2770   63.0870 C.2   193  HIS193      0.2291
    153  O         47.6850   -5.7620   63.2190 O.2   193  HIS193     -0.2864
    154  CB        45.4050   -4.1190   62.7660 C.3   193  HIS193      0.0771
    155  CG        44.5430   -3.2500   61.9290 C.ar  193  HIS193      0.0820
    156  ND1       43.8060   -2.2200   62.4540 N.ar  193  HIS193     -0.2267
    157  CD2       44.3010   -3.2360   60.5950 C.ar  193  HIS193      0.1154
    158  CE1       43.1610   -1.5900   61.4790 C.ar  193  HIS193      0.1986
    159  NE2       43.4280   -2.2050   60.3450 N.ar  193  HIS193     -0.2212
    160  N         49.0230   -9.5850   63.5420 N.3   195  LEU195     -0.1245
    161  CA        49.6310  -10.6770   62.7960 C.3   195  LEU195      0.1561
    162  C         50.2250  -11.6990   63.7370 C.2   195  LEU195      0.2260
    163  O         50.9380  -11.3380   64.6680 O.2   195  LEU195     -0.2867
    164  CB        50.7100  -10.1410   61.8730 C.3   195  LEU195      0.0270
    165  CG        50.1840   -9.4630   60.6020 C.3   195  LEU195      0.0019
    166  CD1       51.2060   -8.5600   59.9520 C.3   195  LEU195      0.0001
    167  CD2       49.7090  -10.5060   59.5770 C.3   195  LEU195      0.0001
    168  N         49.8550   -3.7100   62.3240 N.3   206  ILE206     -0.1231
    169  CA        49.7920   -2.7780   61.2420 C.3   206  ILE206      0.1692
    170  C         48.7460   -1.7290   61.4880 C.2   206  ILE206      0.2592
    171  O         47.9640   -1.7720   62.4590 O.2   206  ILE206     -0.2718
    172  CB        49.5030   -3.4750   59.9010 C.3   206  ILE206      0.0266
    173  CG1       48.1230   -4.1810   59.9340 C.3   206  ILE206      0.0019
    174  CG2       50.6060   -4.4790   59.5390 C.3   206  ILE206      0.0020
    175  CD1       47.6710   -4.6540   58.5610 C.3   206  ILE206      0.0001
    176  N         48.7630   -0.7770   60.5950 N.am  207  ASP207     -0.1974
    177  CA        47.7510    0.2760   60.4670 C.3   207  ASP207      0.1709
    178  C         47.6460    1.1260   61.6920 C.2   207  ASP207      0.2293
    179  O         46.6620    1.0690   62.3910 O.2   207  ASP207     -0.2864
    180  CB        46.3970   -0.2530   60.0460 C.3   207  ASP207      0.1436
    181  CG        45.4640    0.8570   59.5420 C.2   207  ASP207      0.3671
    182  OD1       45.8740    2.0130   59.5830 O.co2 207  ASP207     -0.2456
    183  OD2       44.2920    0.5970   59.0720 O.co2 207  ASP207     -0.2456
    184  N         47.4090    4.2030   61.2130 N.3   209  GLY209     -0.1210
    185  CA        46.8740    5.4030   60.6250 C.3   209  GLY209      0.1956
    186  C         45.9210    6.2760   61.4610 C.2   209  GLY209      0.2611
    187  O         45.6780    7.4020   61.0950 O.2   209  GLY209     -0.2717
    188  N         45.3600    5.8020   62.5530 N.am  210  ASP210     -0.1973
    189  CA        44.5400    6.6390   63.3700 C.3   210  ASP210      0.1709
    190  C         45.2020    6.9300   64.7000 C.2   210  ASP210      0.2293
    191  O         44.5650    7.4850   65.5860 O.2   210  ASP210     -0.2864
    192  CB        43.1760    5.9470   63.5850 C.3   210  ASP210      0.1436
    193  CG        42.3090    5.9290   62.3170 C.2   210  ASP210      0.3671
    194  OD1       42.4880    6.7400   61.3550 O.co2 210  ASP210     -0.2456
    195  OD2       41.3950    5.0920   62.3460 O.co2 210  ASP210     -0.2456
@<TRIPOS>BOND
     1    62    61    2
     2    61    60    1
     3     1     2    1
     4    40    39    2
     5    39    38    1
     6    59    60    1
     7    60    63    1
     8    18    17    1
     9    17    14    1
    10    37    38    1
    11     2     5    1
    12     2     3    1
    13     7     5    1
    14    38    41    1
    15    33    34    2
    16    33    32    1
    17    12    11    2
    18    26    25    2
    19     5     6    1
    20     9     3   am
    21     9    10    1
    22    53    52    2
    23     6     8    1
    24     3     4    2
    25    32    31    1
    26    32    35    1
    27    52    51    1
    28    25    31   am
    29    25    24    1
    30    11    13   am
    31    11    10    1
    32    63    64    1
    33    22    21    2
    34    24    23    1
    35    24    27    1
    36    14    13    1
    37    14    15    1
    38    44    43    1
    39    44    45    2
    40    50    51    1
    41    64    65    1
    42    42    43    1
    43    51    54    1
    44    43    46    1
    45    27    28    1
    46    35    36    1
    47    15    16    2
    48    15    19   am
    49    21    20    1
    50    19    20    1
    51   126   125    1
    52    49    47    1
    53    77    75   ar
    54    77    78   ar
    55    48    46    1
    56   108   107   ar
    57    46    47    1
    58    65    66    1
    59    54    55    1
    60   109   107   ar
    61    89    90    1
    62    92    91    2
    63    75    73   ar
    64    66    67    1
    65    28    29   ar
    66    28    30   ar
    67   107   106    1
    68    79    78    1
    69    78    76   ar
    70   105   106    1
    71   105   102    1
    72    91    90    1
    73    55    56    1
    74   125   124    1
    75    90    93    1
    76   101   102    1
    77    73    72    1
    78    73    74   ar
    79    72    69    1
    80   102   103    1
    81    76    74   ar
    82   124   123    1
    83    68    69    1
    84    56    57    1
    85    96    94   ar
    86    96    98   ar
    87    93    94    1
    88    57    58    1
    89    94    95   ar
    90    98    99   ar
    91    69    70    1
    92   104   103    2
    93   103   110   am
    94    95    97   ar
    95    99   100    1
    96    99    97   ar
    97   123   122    1
    98    70    71    2
    99   110   111    1
   100   122   119    1
   101   113   112    2
   102   119   118    1
   103   119   120    1
   104   140   138   ar
   105   140   141   ar
   106   112   118   am
   107   112   111    1
   108    87    86   ar
   109   111   114    1
   110   130   129    2
   111   138   136   ar
   112    88    86   ar
   113    86    85    1
   114   141   139   ar
   115   127   120   am
   116   127   128    1
   117   120   121    2
   118   175   173    1
   119    85    84    1
   120    84    81    1
   121   129   128    1
   122   114   115    1
   123   114   116    1
   124   183   181   ar
   125   115   117    1
   126   136   135    1
   127   136   137   ar
   128   149   147   am
   129   174   172    1
   130   181   182   ar
   131   181   180    1
   132   139   137   ar
   133   167   165    1
   134    82    81    1
   135    82    83    2
   136    80    81    1
   137   135   132    1
   138   131   132    1
   139   172   173    1
   140   172   169    1
   141   166   165    1
   142   180   177    1
   143   145   144    2
   144   159   157   ar
   145   159   158   ar
   146   177   176    1
   147   177   178    1
   148   146   147    1
   149   146   143    1
   150   176   170   am
   151   157   155   ar
   152   165   164    1
   153   147   148    2
   154   185   184    1
   155   185   186    1
   156   132   133    1
   157   187   186    2
   158   169   170    1
   159   169   168    1
   160   144   143    1
   161   144   150   am
   162   134   133    2
   163   194   193   ar
   164   143   142    1
   165   186   188   am
   166   158   156   ar
   167   170   171    2
   168   178   179    2
   169   164   161    1
   170   155   156   ar
   171   155   154    1
   172   151   150    1
   173   151   154    1
   174   151   152    1
   175   193   195   ar
   176   193   192    1
   177   188   189    1
   178   161   160    1
   179   161   162    1
   180   152   153    2
   181   189   192    1
   182   189   190    1
   183   162   163    2
   184   190   191    2
