@<TRIPOS>MOLECULE
tmp/6c5uA01.pdb
 156 149 0 0 0
SMALL
GASTEIGER

@<TRIPOS>ATOM
      1  N         37.2810    2.7040   52.0810 N.3    32  TYR32      -0.1241
      2  CA        36.3810    3.4350   51.1750 C.3    32  TYR32       0.1605
      3  C         37.1470    4.5740   50.4750 C.2    32  TYR32       0.2264
      4  O         36.6840    5.0740   49.4400 O.2    32  TYR32      -0.2867
      5  CB        35.0820    3.9440   51.8510 C.3    32  TYR32       0.0534
      6  CG        34.2840    2.8410   52.4980 C.ar   32  TYR32      -0.0201
      7  CD1       33.6740    1.8510   51.7270 C.ar   32  TYR32      -0.0009
      8  CD2       34.1610    2.7690   53.8850 C.ar   32  TYR32      -0.0009
      9  CE1       32.9660    0.8140   52.3200 C.ar   32  TYR32       0.0417
     10  CE2       33.4530    1.7390   54.4900 C.ar   32  TYR32       0.0417
     11  CZ        32.8610    0.7630   53.7050 C.ar   32  TYR32       0.1957
     12  OH        32.1720   -0.2680   54.3020 O.3    32  TYR32      -0.2866
     13  N         43.0750    1.8660   66.4840 N.3   188  ASP188     -0.1239
     14  CA        42.1900    1.0280   65.6390 C.3   188  ASP188      0.1674
     15  C         42.5900   -0.4310   65.8190 C.2   188  ASP188      0.2266
     16  O         42.8430   -1.1600   64.8740 O.2   188  ASP188     -0.2867
     17  CB        42.3590    1.4920   64.1890 C.3   188  ASP188      0.1410
     18  CG        41.2770    1.0700   63.2820 C.2   188  ASP188      0.3668
     19  OD1       40.2760    0.4830   63.7310 O.co2 188  ASP188     -0.2456
     20  OD2       41.4780    1.3470   62.0690 O.co2 188  ASP188     -0.2456
     21  N         42.1170   -3.7000   66.3130 N.3   190  SER190     -0.1217
     22  CA        41.1620   -4.7630   66.0790 C.3   190  SER190      0.1889
     23  C         41.9210   -5.9280   65.5790 C.2   190  SER190      0.2288
     24  O         43.0770   -5.7720   65.1810 O.2   190  SER190     -0.2866
     25  CB        40.1910   -4.3090   65.0380 C.3   190  SER190      0.2089
     26  OG        40.8490   -3.6430   63.9790 O.3   190  SER190     -0.2183
     27  N         41.8650   -7.7220   62.8530 N.3   192  ASN192     -0.1225
     28  CA        42.3430   -7.6060   61.4480 C.3   192  ASN192      0.1785
     29  C         43.6280   -6.7400   61.2560 C.2   192  ASN192      0.2597
     30  O         44.1020   -6.5640   60.1290 O.2   192  ASN192     -0.2718
     31  CB        41.2100   -7.1210   60.5270 C.3   192  ASN192      0.1169
     32  CG        40.9790   -5.6400   60.6250 C.2   192  ASN192      0.2627
     33  OD1       41.0130   -5.0720   61.6930 O.2   192  ASN192     -0.2716
     34  ND2       40.7960   -5.0060   59.5150 N.am  192  ASN192     -0.0877
     35  N         44.1820   -6.1840   62.3290 N.am  193  HIS193     -0.1975
     36  CA        45.4930   -5.5490   62.2820 C.3   193  HIS193      0.1656
     37  C         46.5640   -6.2770   63.0870 C.2   193  HIS193      0.2291
     38  O         47.6850   -5.7620   63.2190 O.2   193  HIS193     -0.2864
     39  CB        45.4050   -4.1190   62.7660 C.3   193  HIS193      0.0771
     40  CG        44.5430   -3.2500   61.9290 C.ar  193  HIS193      0.0820
     41  ND1       43.8060   -2.2200   62.4540 N.ar  193  HIS193     -0.2267
     42  CD2       44.3010   -3.2360   60.5950 C.ar  193  HIS193      0.1154
     43  CE1       43.1610   -1.5900   61.4790 C.ar  193  HIS193      0.1986
     44  NE2       43.4280   -2.2050   60.3450 N.ar  193  HIS193     -0.2212
     45  N         38.0480   -2.5430   70.6410 N.3   222  TYR222     -0.1241
     46  CA        37.7390   -3.6910   69.7720 C.3   222  TYR222      0.1605
     47  C         38.0270   -5.0190   70.4540 C.2   222  TYR222      0.2264
     48  O         37.3230   -6.0050   70.2580 O.2   222  TYR222     -0.2867
     49  CB        38.3900   -3.5680   68.3700 C.3   222  TYR222      0.0534
     50  CG        38.0160   -2.2740   67.7030 C.ar  222  TYR222     -0.0201
     51  CD1       36.7270   -2.0350   67.3250 C.ar  222  TYR222     -0.0009
     52  CD2       38.9270   -1.2520   67.5470 C.ar  222  TYR222     -0.0009
     53  CE1       36.3360   -0.8120   66.7380 C.ar  222  TYR222      0.0417
     54  CE2       38.5670   -0.0490   66.9810 C.ar  222  TYR222      0.0417
     55  CZ        37.2580    0.1640   66.5720 C.ar  222  TYR222      0.1957
     56  OH        36.9130    1.3650   66.0130 O.3   222  TYR222     -0.2866
     57  N         34.8870   -5.9090   72.0630 N.3   225  GLU225     -0.1245
     58  CA        33.6740   -5.8940   71.2340 C.3   225  GLU225      0.1567
     59  C         33.0840   -7.2610   71.0590 C.2   225  GLU225      0.2260
     60  O         33.8000   -8.2620   70.8840 O.2   225  GLU225     -0.2867
     61  CB        34.0310   -5.3620   69.8450 C.3   225  GLU225      0.0388
     62  CG        32.8890   -5.1780   68.8720 C.3   225  GLU225      0.1160
     63  CD        33.3220   -4.6060   67.5370 C.2   225  GLU225      0.3649
     64  OE1       33.3900   -3.3680   67.4040 O.co2 225  GLU225     -0.2457
     65  OE2       33.5290   -5.4010   66.5690 O.co2 225  GLU225     -0.2457
     66  N         31.0590   -9.1670   68.5530 N.3   227  SER227     -0.1217
     67  CA        30.6960   -9.1400   67.1250 C.3   227  SER227      0.1889
     68  C         31.3510  -10.3060   66.3740 C.2   227  SER227      0.2288
     69  O         32.2870  -10.9130   66.8460 O.2   227  SER227     -0.2866
     70  CB        31.1500   -7.8270   66.4550 C.3   227  SER227      0.2089
     71  OG        32.5690   -7.7760   66.2710 O.3   227  SER227     -0.2183
     72  N         33.3120  -10.0130   63.7670 N.3   229  GLU229     -0.1231
     73  CA        34.6800   -9.6550   63.3770 C.3   229  GLU229      0.1699
     74  C         35.7280   -9.8010   64.5010 C.2   229  GLU229      0.2592
     75  O         36.9400   -9.9430   64.2370 O.2   229  GLU229     -0.2718
     76  CB        34.7270   -8.2060   62.8730 C.3   229  GLU229      0.0402
     77  CG        34.0910   -8.0110   61.5020 C.3   229  GLU229      0.1161
     78  CD        33.8990   -6.5220   61.1210 C.2   229  GLU229      0.3649
     79  OE1       34.6420   -5.5860   61.5660 O.co2 229  GLU229     -0.2457
     80  OE2       32.9730   -6.2820   60.3100 O.co2 229  GLU229     -0.2457
     81  N         35.2650   -9.6930   65.7450 N.am  230  GLU230     -0.1979
     82  CA        36.1810   -9.7020   66.8880 C.3   230  GLU230      0.1602
     83  C         35.9880  -10.9640   67.7340 C.2   230  GLU230      0.2287
     84  O         35.0090  -11.6810   67.5900 O.2   230  GLU230     -0.2864
     85  CB        36.0230   -8.4350   67.7390 C.3   230  GLU230      0.0415
     86  CG        36.2230   -7.1300   66.9970 C.3   230  GLU230      0.1163
     87  CD        37.5740   -6.9820   66.3080 C.2   230  GLU230      0.3649
     88  OE1       38.6010   -7.3730   66.8930 O.co2 230  GLU230     -0.2457
     89  OE2       37.5880   -6.4540   65.1670 O.co2 230  GLU230     -0.2457
     90  N         31.2340    4.4720   72.5500 N.3   258  VAL258     -0.1231
     91  CA        31.6950    4.5040   71.1710 C.3   258  VAL258      0.1692
     92  C         30.8260    3.6340   70.3160 C.2   258  VAL258      0.2591
     93  O         30.5440    3.9960   69.1980 O.2   258  VAL258     -0.2718
     94  CB        33.1540    4.0670   71.0980 C.3   258  VAL258      0.0266
     95  CG1       33.5670    3.6930   69.7030 C.3   258  VAL258      0.0020
     96  CG2       34.0310    5.2000   71.6590 C.3   258  VAL258      0.0020
     97  N         30.3880    2.4940   70.8200 N.am  259  GLU259     -0.1979
     98  CA        29.4950    1.6230   70.0490 C.3   259  GLU259      0.1602
     99  C         28.1560    2.3610   69.8230 C.2   259  GLU259      0.2287
    100  O         27.6220    2.3090   68.7370 O.2   259  GLU259     -0.2864
    101  CB        29.3120    0.2650   70.7080 C.3   259  GLU259      0.0415
    102  CG        28.3970   -0.7220   69.9480 C.3   259  GLU259      0.1163
    103  CD        28.9830   -1.2240   68.6190 C.2   259  GLU259      0.3649
    104  OE1       28.6780   -0.7180   67.4980 O.co2 259  GLU259     -0.2457
    105  OE2       29.7850   -2.1760   68.7020 O.co2 259  GLU259     -0.2457
    106  N         28.4330    4.8130   66.8550 N.3   262  TYR262     -0.1241
    107  CA        28.7460    4.3290   65.5250 C.3   262  TYR262      0.1605
    108  C         27.7800    4.7720   64.4370 C.2   262  TYR262      0.2264
    109  O         28.2230    5.2380   63.4350 O.2   262  TYR262     -0.2867
    110  CB        28.9000    2.8050   65.5530 C.3   262  TYR262      0.0534
    111  CG        29.1070    2.1470   64.2050 C.ar  262  TYR262     -0.0201
    112  CD1       30.2530    2.3760   63.4460 C.ar  262  TYR262     -0.0009
    113  CD2       28.1390    1.2550   63.6930 C.ar  262  TYR262     -0.0009
    114  CE1       30.4420    1.7430   62.2280 C.ar  262  TYR262      0.0417
    115  CE2       28.3280    0.6030   62.4790 C.ar  262  TYR262      0.0417
    116  CZ        29.4600    0.8550   61.7430 C.ar  262  TYR262      0.1957
    117  OH        29.6250    0.1830   60.5410 O.3   262  TYR262     -0.2866
    118  N         28.3970    8.3990   63.8000 N.3   265  GLU265     -0.1231
    119  CA        29.7010    8.5170   63.1530 C.3   265  GLU265      0.1699
    120  C         29.5460    8.2290   61.6590 C.2   265  GLU265      0.2592
    121  O         30.1610    8.8900   60.8400 O.2   265  GLU265     -0.2718
    122  CB        30.7150    7.5620   63.7840 C.3   265  GLU265      0.0402
    123  CG        32.1060    7.6300   63.2080 C.3   265  GLU265      0.1161
    124  CD        33.0030    6.4540   63.6480 C.2   265  GLU265      0.3649
    125  OE1       32.8170    5.3300   63.2110 O.co2 265  GLU265     -0.2457
    126  OE2       33.9740    6.6100   64.4000 O.co2 265  GLU265     -0.2457
    127  N         28.7100    7.2550   61.3290 N.am  266  THR266     -0.1953
    128  CA        28.4610    6.8640   59.9810 C.3   266  THR266      0.1897
    129  C         27.7480    8.0110   59.2380 C.2   266  THR266      0.2313
    130  O         28.1590    8.3800   58.1320 O.2   266  THR266     -0.2863
    131  CB        27.6980    5.5090   59.9230 C.3   266  THR266      0.1794
    132  OG1       28.4630    4.4630   60.5600 O.3   266  THR266     -0.2208
    133  CG2       27.4950    5.1080   58.4910 C.3   266  THR266      0.0378
    134  N         30.2200   10.9520   58.6420 N.3   269  TYR269     -0.1241
    135  CA        31.1130   10.6120   57.5400 C.3   269  TYR269      0.1605
    136  C         30.4130   10.8770   56.2030 C.2   269  TYR269      0.2264
    137  O         31.0310   11.3920   55.3150 O.2   269  TYR269     -0.2867
    138  CB        31.5300    9.1450   57.6240 C.3   269  TYR269      0.0534
    139  CG        32.4740    8.7500   56.5420 C.ar  269  TYR269     -0.0201
    140  CD1       33.8310    8.9430   56.6960 C.ar  269  TYR269     -0.0009
    141  CD2       32.0110    8.2050   55.3250 C.ar  269  TYR269     -0.0009
    142  CE1       34.7150    8.6140   55.6780 C.ar  269  TYR269      0.0417
    143  CE2       32.9000    7.8810   54.3040 C.ar  269  TYR269      0.0417
    144  CZ        34.2470    8.0830   54.5080 C.ar  269  TYR269      0.1957
    145  OH        35.1150    7.7560   53.5350 O.3   269  TYR269     -0.2866
    146  N         25.9560    6.6110   53.1280 N.3   278  PHE278     -0.1241
    147  CA        26.3840    6.5400   54.5100 C.3   278  PHE278      0.1605
    148  C         25.3840    7.2150   55.4350 C.2   278  PHE278      0.2264
    149  O         25.1230    6.7270   56.5420 O.2   278  PHE278     -0.2867
    150  CB        27.7910    7.1400   54.6650 C.3   278  PHE278      0.0534
    151  CG        28.8610    6.2470   54.1680 C.ar  278  PHE278     -0.0203
    152  CD1       29.3530    5.2270   54.9720 C.ar  278  PHE278     -0.0042
    153  CD2       29.3510    6.3770   52.8710 C.ar  278  PHE278     -0.0042
    154  CE1       30.3690    4.3960   54.5020 C.ar  278  PHE278     -0.0003
    155  CE2       30.3470    5.5410   52.3900 C.ar  278  PHE278     -0.0003
    156  CZ        30.8400    4.5320   53.1930 C.ar  278  PHE278     -0.0000
@<TRIPOS>BOND
     1     4     3    2
     2     3     2    1
     3     2     5    1
     4     2     1    1
     5     7     9   ar
     6     7     6   ar
     7     5     6    1
     8     9    11   ar
     9   155   153   ar
    10   155   156   ar
    11     6     8   ar
    12   153   151   ar
    13   146   147    1
    14   156   154   ar
    15   145   144    1
    16    11    12    1
    17    11    10   ar
    18     8    10   ar
    19   151   150    1
    20   151   152   ar
    21   143   144   ar
    22   143   141   ar
    23   154   152   ar
    24   144   142   ar
    25   147   150    1
    26   147   148    1
    27   137   136    2
    28   141   139   ar
    29   148   149    2
    30   142   140   ar
    31   136   135    1
    32   139   140   ar
    33   139   138    1
    34   135   138    1
    35   135   134    1
    36   130   129    2
    37   133   131    1
    38   129   128    1
    39    34    32   am
    40   131   128    1
    41   131   132    1
    42   128   127    1
    43    30    29    2
    44    80    78   ar
    45    44    42   ar
    46    44    43   ar
    47    31    32    1
    48    31    28    1
    49   117   116    1
    50    42    40   ar
    51    32    33    2
    52   121   120    2
    53    78    77    1
    54    78    79   ar
    55    29    28    1
    56    29    35   am
    57   127   120   am
    58    28    27    1
    59    43    41   ar
    60    77    76    1
    61   120   119    1
    62   116   114   ar
    63   116   115   ar
    64    40    41   ar
    65    40    39    1
    66    20    18   ar
    67   114   112   ar
    68    36    35    1
    69    36    39    1
    70    36    37    1
    71   115   113   ar
    72    76    73    1
    73    37    38    2
    74   119   122    1
    75   119   118    1
    76   123   124    1
    77   123   122    1
    78   125   124   ar
    79    18    19   ar
    80    18    17    1
    81    73    72    1
    82    73    74    1
    83   109   108    2
    84   112   111   ar
    85   124   126   ar
    86   113   111   ar
    87    26    25    1
    88    17    14    1
    89   111   110    1
    90    75    74    2
    91   108   107    1
    92    74    81   am
    93    16    15    2
    94    25    22    1
    95    89    87   ar
    96    24    23    2
    97   107   110    1
    98   107   106    1
    99    23    22    1
   100    14    15    1
   101    14    13    1
   102    81    82    1
   103    56    55    1
   104    22    21    1
   105    71    70    1
   106    87    88   ar
   107    87    86    1
   108    68    69    2
   109    68    67    1
   110    70    67    1
   111    65    63   ar
   112    55    53   ar
   113    55    54   ar
   114    53    51   ar
   115    82    83    1
   116    82    85    1
   117    54    52   ar
   118    86    85    1
   119    67    66    1
   120    51    50   ar
   121    64    63   ar
   122   104   103   ar
   123    63    62    1
   124    52    50   ar
   125    84    83    2
   126    50    49    1
   127    49    46    1
   128   103   105   ar
   129   103   102    1
   130   100    99    2
   131    62    61    1
   132    93    92    2
   133    95    94    1
   134    46    47    1
   135    46    45    1
   136    99    98    1
   137    61    58    1
   138   102   101    1
   139    98   101    1
   140    98    97    1
   141    48    47    2
   142    92    97   am
   143    92    91    1
   144    60    59    2
   145    59    58    1
   146    94    91    1
   147    94    96    1
   148    91    90    1
   149    58    57    1
