@<TRIPOS>MOLECULE
tmp/6c5vA00.pdb
 87 81 0 0 0
SMALL
GASTEIGER

@<TRIPOS>ATOM
      1  N        136.7970  157.1400  182.5290 N.3    39  GLU39      -0.1245
      2  CA       137.5320  157.5520  181.3420 C.3    39  GLU39       0.1567
      3  C        137.7370  159.0620  181.2930 C.2    39  GLU39       0.2260
      4  O        138.7680  159.5420  180.8190 O.2    39  GLU39      -0.2867
      5  CB       136.8220  157.1040  180.0690 C.3    39  GLU39       0.0388
      6  CG       136.7880  155.6100  179.8770 C.3    39  GLU39       0.1160
      7  CD       136.1510  155.1850  178.5840 C.2    39  GLU39       0.3649
      8  OE1      136.0510  155.9950  177.6830 O.co2  39  GLU39      -0.2457
      9  OE2      135.7550  154.0550  178.5000 O.co2  39  GLU39      -0.2457
     10  N        138.4430  161.0790  183.5600 N.3    41  ASN41      -0.1240
     11  CA       139.6520  161.4350  184.2760 C.3    41  ASN41       0.1653
     12  C        139.6780  162.9170  184.6300 C.2    41  ASN41       0.2266
     13  O        140.6440  163.6150  184.3530 O.2    41  ASN41      -0.2867
     14  CB       140.8730  161.0570  183.4720 C.3    41  ASN41       0.1155
     15  CG       142.0130  160.5980  184.3180 C.2    41  ASN41       0.2627
     16  OD1      142.1320  160.9810  185.4890 O.2    41  ASN41      -0.2716
     17  ND2      142.8360  159.7690  183.7470 N.am   41  ASN41      -0.0877
     18  N        140.2700  164.3540  187.1590 N.3    43  THR43      -0.1203
     19  CA       141.3330  164.6850  188.0870 C.3    43  THR43       0.1994
     20  C        142.6530  164.9430  187.3620 C.2    43  THR43       0.2618
     21  O        143.6550  165.3030  187.9850 O.2    43  THR43      -0.2717
     22  CB       141.5080  163.5610  189.1180 C.3    43  THR43       0.1784
     23  OG1      141.7890  162.3310  188.4380 O.3    43  THR43      -0.2211
     24  CG2      140.2350  163.4020  189.9280 C.3    43  THR43       0.0376
     25  N        142.6530  164.7370  186.0510 N.am   44  GLU44      -0.1965
     26  CA       143.8310  164.9250  185.2150 C.3    44  GLU44       0.1733
     27  C        144.3360  166.3680  185.2690 C.2    44  GLU44       0.2616
     28  O        143.5620  167.3080  185.0870 O.2    44  GLU44      -0.2715
     29  CB       143.4890  164.5530  183.7710 C.3    44  GLU44       0.0429
     30  CG       144.6410  164.5710  182.8410 C.3    44  GLU44       0.1163
     31  CD       144.2850  164.2500  181.4250 C.2    44  GLU44       0.3649
     32  OE1      143.4050  164.8870  180.8720 O.co2  44  GLU44      -0.2457
     33  OE2      144.8880  163.3510  180.8890 O.co2  44  GLU44      -0.2457
     34  N        145.6400  166.5470  185.4700 N.am   45  ASP45      -0.1971
     35  CA       146.1970  167.8920  185.5280 C.3    45  ASP45       0.1709
     36  C        146.4730  168.4490  184.1330 C.2    45  ASP45       0.2293
     37  O        146.2580  167.7760  183.1230 O.2    45  ASP45      -0.2864
     38  CB       147.4840  167.9160  186.3690 C.3    45  ASP45       0.1436
     39  CG       148.6610  167.1390  185.7440 C.2    45  ASP45       0.3671
     40  OD1      148.5760  166.7860  184.5910 O.co2  45  ASP45      -0.2456
     41  OD2      149.6320  166.9230  186.4280 O.co2  45  ASP45      -0.2456
     42  N        149.5890  166.4810  181.9530 N.3    48  SER48      -0.1217
     43  CA       149.3120  165.2370  181.2590 C.3    48  SER48       0.1889
     44  C        148.2810  165.4510  180.1710 C.2    48  SER48       0.2288
     45  O        148.3190  164.7910  179.1260 O.2    48  SER48      -0.2866
     46  CB       148.8290  164.1960  182.2280 C.3    48  SER48       0.2089
     47  OG       147.5500  164.4870  182.6500 O.3    48  SER48      -0.2183
     48  N        148.9900  164.5570  176.0720 N.3    52  ARG52      -0.1245
     49  CA       148.1710  163.8430  175.1180 C.3    52  ARG52       0.1563
     50  C        148.0110  164.6600  173.8520 C.2    52  ARG52       0.2260
     51  O        148.1740  164.1530  172.7410 O.2    52  ARG52      -0.2867
     52  CB       146.8120  163.5200  175.6940 C.3    52  ARG52       0.0307
     53  CG       145.8900  162.7600  174.7590 C.3    52  ARG52       0.0489
     54  CD       144.6980  162.2130  175.4720 C.3    52  ARG52       0.2205
     55  NE       143.8990  163.2560  176.0990 N.pl3  52  ARG52      -0.0865
     56  CZ       143.8660  163.5060  177.4230 C.cat  52  ARG52       0.5346
     57  NH1      144.6030  162.7980  178.2470 N.pl3  52  ARG52       0.1354
     58  NH2      143.0980  164.4670  177.8960 N.pl3  52  ARG52       0.1354
     59  N        142.6170  155.1410  172.7710 N.3   126  SER126     -0.1202
     60  CA       142.2460  155.5440  174.1220 C.3   126  SER126      0.2020
     61  C        142.5900  157.0100  174.3770 C.2   126  SER126      0.2618
     62  O        142.0350  157.6410  175.2690 O.2   126  SER126     -0.2717
     63  CB       142.9440  154.6560  175.1360 C.3   126  SER126      0.2103
     64  OG       144.3280  154.8010  175.0600 O.3   126  SER126     -0.2182
     65  N        143.4770  157.5470  173.5520 N.am  127  TYR127     -0.1975
     66  CA       143.9040  158.9280  173.6500 C.3   127  TYR127      0.1639
     67  C        143.1290  159.8230  172.6940 C.2   127  TYR127      0.2290
     68  O        143.4680  160.9920  172.5220 O.2   127  TYR127     -0.2864
     69  CB       145.3910  159.0260  173.3370 C.3   127  TYR127      0.0560
     70  CG       146.2590  158.3610  174.3400 C.ar  127  TYR127     -0.0198
     71  CD1      146.4710  157.0110  174.2560 C.ar  127  TYR127     -0.0009
     72  CD2      146.8660  159.0960  175.3360 C.ar  127  TYR127     -0.0009
     73  CE1      147.2800  156.3850  175.1660 C.ar  127  TYR127      0.0417
     74  CE2      147.6730  158.4760  176.2480 C.ar  127  TYR127      0.0417
     75  CZ       147.8840  157.1280  176.1680 C.ar  127  TYR127      0.1957
     76  OH       148.6950  156.5060  177.0840 O.3   127  TYR127     -0.2866
     77  N        137.6690  162.3210  173.0620 N.3   189  ARG189     -0.1245
     78  CA       138.1290  162.4110  174.4390 C.3   189  ARG189      0.1563
     79  C        138.8530  163.7060  174.7130 C.2   189  ARG189      0.2260
     80  O        139.7200  164.1180  173.9520 O.2   189  ARG189     -0.2867
     81  CB       139.0750  161.2650  174.7710 C.3   189  ARG189      0.0307
     82  CG       139.6820  161.3410  176.1750 C.3   189  ARG189      0.0489
     83  CD       140.6540  160.2680  176.4330 C.3   189  ARG189      0.2205
     84  NE       141.3100  160.4580  177.7260 N.pl3 189  ARG189     -0.0865
     85  CZ       142.4200  159.8110  178.1400 C.cat 189  ARG189      0.5346
     86  NH1      142.9990  158.9280  177.3680 N.pl3 189  ARG189      0.1354
     87  NH2      142.9250  160.0700  179.3350 N.pl3 189  ARG189      0.1354
@<TRIPOS>BOND
     1    68    67    2
     2    67    66    1
     3    51    50    2
     4    59    60    1
     5    77    78    1
     6    69    66    1
     7    69    70    1
     8    65    66    1
     9    65    61   am
    10    50    49    1
    11    80    79    2
    12    60    61    1
    13    60    63    1
    14    71    70   ar
    15    71    73   ar
    16    70    72   ar
    17    61    62    2
    18    78    79    1
    19    78    81    1
    20    53    54    1
    21    53    52    1
    22    81    82    1
    23    64    63    1
    24    49    52    1
    25    49    48    1
    26    73    75   ar
    27    72    74   ar
    28    54    55    1
    29    55    56    2
    30    75    74   ar
    31    75    76    1
    32    82    83    1
    33    83    84    1
    34    86    85    1
    35    56    58    1
    36    56    57    1
    37     8     7   ar
    38    84    85    2
    39    85    87    1
    40     9     7   ar
    41     7     6    1
    42    45    44    2
    43     6     5    1
    44     5     2    1
    45    44    43    1
    46     4     3    2
    47    32    31   ar
    48    33    31   ar
    49    43    42    1
    50    43    46    1
    51     3     2    1
    52     2     1    1
    53    31    30    1
    54    46    47    1
    55    30    29    1
    56    37    36    2
    57    14    11    1
    58    14    15    1
    59    10    11    1
    60    17    15   am
    61    29    26    1
    62    36    35    1
    63    11    12    1
    64    15    16    2
    65    13    12    2
    66    40    39   ar
    67    28    27    2
    68    26    27    1
    69    26    25    1
    70    27    34   am
    71    34    35    1
    72    35    38    1
    73    39    38    1
    74    39    41   ar
    75    25    20   am
    76    18    19    1
    77    20    21    2
    78    20    19    1
    79    19    22    1
    80    23    22    1
    81    22    24    1
