@<TRIPOS>MOLECULE
tmp/6c6bB00.pdb
 120 114 0 0 0
SMALL
GASTEIGER

@<TRIPOS>ATOM
      1  N         54.8570   -9.5160  -43.3540 N.3    33  SER33      -0.1202
      2  CA        55.2790   -8.7950  -42.1650 C.3    33  SER33       0.2020
      3  C         55.5840   -7.3540  -42.5400 C.2    33  SER33       0.2619
      4  O         56.1730   -7.0760  -43.5940 O.2    33  SER33      -0.2717
      5  CB        56.5130   -9.4590  -41.5450 C.3    33  SER33       0.2103
      6  OG        56.9550   -8.7610  -40.3970 O.3    33  SER33      -0.2182
      7  N         55.1760   -6.4250  -41.6690 N.am   34  ALA34      -0.1965
      8  CA        55.3340   -4.9790  -41.8470 C.3    34  ALA34       0.1728
      9  C         54.4900   -4.4010  -42.9840 C.2    34  ALA34       0.2617
     10  O         54.7040   -3.2420  -43.3650 O.2    34  ALA34      -0.2715
     11  CB        56.8010   -4.5840  -42.0480 C.3    34  ALA34       0.0334
     12  N         53.5270   -5.1580  -43.5450 N.am   35  SER35      -0.1936
     13  CA        52.6990   -4.5850  -44.6180 C.3    35  SER35       0.2055
     14  C         51.6900   -3.5470  -44.1110 C.2    35  SER35       0.2644
     15  O         51.2570   -2.6800  -44.8860 O.2    35  SER35      -0.2714
     16  CB        51.9630   -5.6830  -45.3950 C.3    35  SER35       0.2130
     17  OG        51.1260   -6.4450  -44.5470 O.3    35  SER35      -0.2179
     18  N         51.2810   -3.6350  -42.8440 N.am   36  GLY36      -0.1939
     19  CA        50.4220   -2.6630  -42.1870 C.3    36  GLY36       0.2014
     20  C         49.1480   -3.2540  -41.5890 C.2    36  GLY36       0.2639
     21  O         48.2020   -2.5120  -41.3040 O.2    36  GLY36      -0.2714
     22  N         49.1010   -4.5770  -41.3870 N.am   37  LYS37      -0.1963
     23  CA        47.8860   -5.2090  -40.8690 C.3    37  LYS37       0.1728
     24  C         47.5380   -4.6840  -39.4770 C.2    37  LYS37       0.2617
     25  O         46.4160   -4.2290  -39.2330 O.2    37  LYS37      -0.2715
     26  CB        48.0310   -6.7430  -40.8340 C.3    37  LYS37       0.0311
     27  CG        48.3150   -7.4370  -42.1880 C.3    37  LYS37       0.0038
     28  CD        48.5010   -8.9750  -42.0590 C.3    37  LYS37       0.0206
     29  CE        49.7110   -9.3380  -41.1590 C.3    37  LYS37       0.1093
     30  NZ        51.0600   -8.8760  -41.6560 N.3    37  LYS37      -0.1314
     31  N         48.4910   -4.7420  -38.5550 N.am   38  SER38      -0.1936
     32  CA        48.2160   -4.3450  -37.1790 C.3    38  SER38       0.2055
     33  C         47.9200   -2.8590  -37.0840 C.2    38  SER38       0.2644
     34  O         47.0730   -2.4460  -36.2860 O.2    38  SER38      -0.2714
     35  CB        49.3980   -4.7010  -36.2860 C.3    38  SER38       0.2130
     36  OG        49.2340   -4.1450  -34.9890 O.3    38  SER38      -0.2179
     37  N         48.6370   -2.0410  -37.8700 N.am   39  THR39      -0.1936
     38  CA        48.4090   -0.5990  -37.8760 C.3    39  THR39       0.2028
     39  C         47.0130   -0.2850  -38.3880 C.2    39  THR39       0.2642
     40  O         46.3090    0.5430  -37.8110 O.2    39  THR39      -0.2714
     41  CB        49.4820    0.1060  -38.7220 C.3    39  THR39       0.1808
     42  OG1       50.7830   -0.0840  -38.1270 O.3    39  THR39      -0.2208
     43  CG2       49.1940    1.5980  -38.8700 C.3    39  THR39       0.0379
     44  N         46.5800   -0.9690  -39.4460 N.am   40  ILE40      -0.1977
     45  CA        45.2350   -0.7480  -39.9760 C.3    40  ILE40       0.1596
     46  C         44.1790   -1.3480  -39.0430 C.2    40  ILE40       0.2287
     47  O         43.1050   -0.7630  -38.8420 O.2    40  ILE40      -0.2864
     48  CB        45.1360   -1.3090  -41.4090 C.3    40  ILE40       0.0276
     49  CG1       45.9600   -0.4450  -42.3750 C.3    40  ILE40       0.0022
     50  CG2       43.6970   -1.3930  -41.8860 C.3    40  ILE40       0.0022
     51  CD1       46.2070   -1.1090  -43.7450 C.3    40  ILE40       0.0001
     52  N         44.5030  -10.0910  -37.7970 N.3   102  ALA102     -0.1245
     53  CA        45.7080   -9.4580  -38.3500 C.3   102  ALA102      0.1562
     54  C         46.8850  -10.4440  -38.3030 C.2   102  ALA102      0.2260
     55  O         47.9260  -10.1420  -37.7550 O.2   102  ALA102     -0.2867
     56  CB        46.0460   -8.1680  -37.5930 C.3   102  ALA102      0.0290
     57  N         49.7310  -12.9000  -40.4730 N.3   104  ILE104     -0.1245
     58  CA        50.3150  -13.0380  -41.8120 C.3   104  ILE104      0.1561
     59  C         49.5080  -14.0450  -42.6300 C.2   104  ILE104      0.2260
     60  O         49.1610  -13.7990  -43.7950 O.2   104  ILE104     -0.2867
     61  CB        51.8140  -13.4110  -41.7250 C.3   104  ILE104      0.0252
     62  CG1       52.6360  -12.2460  -41.1410 C.3   104  ILE104      0.0019
     63  CG2       52.3730  -13.6940  -43.1230 C.3   104  ILE104      0.0019
     64  CD1       54.1410  -12.5540  -40.9860 C.3   104  ILE104      0.0001
     65  N         60.4910   -0.6360  -44.1030 N.3   142  ARG142     -0.1245
     66  CA        59.8120   -0.4080  -42.8390 C.3   142  ARG142      0.1563
     67  C         60.4760   -1.1750  -41.7020 C.2   142  ARG142      0.2260
     68  O         61.0020   -0.5610  -40.7680 O.2   142  ARG142     -0.2867
     69  CB        58.3440   -0.7880  -42.9710 C.3   142  ARG142      0.0307
     70  CG        57.6000    0.0290  -44.0220 C.3   142  ARG142      0.0489
     71  CD        56.2120   -0.5480  -44.3030 C.3   142  ARG142      0.2205
     72  NE        55.3990    0.3800  -45.0830 N.pl3 142  ARG142     -0.0865
     73  CZ        54.1850    0.1000  -45.5460 C.cat 142  ARG142      0.5346
     74  NH1       53.6470   -1.0870  -45.3020 N.pl3 142  ARG142      0.1354
     75  NH2       53.5190    1.0030  -46.2620 N.pl3 142  ARG142      0.1354
     76  N         59.8410   -2.5670  -38.8440 N.3   144  PRO144     -0.2102
     77  CA        59.8170   -1.8510  -37.5530 C.3   144  PRO144      0.1504
     78  C         60.3300   -2.6720  -36.3880 C.2   144  PRO144      0.2575
     79  O         60.5300   -2.1140  -35.3020 O.2   144  PRO144     -0.2718
     80  CB        58.3310   -1.5080  -37.3510 C.3   144  PRO144      0.0282
     81  CG        57.6610   -1.8260  -38.6840 C.3   144  PRO144      0.0208
     82  CD        58.4900   -2.8860  -39.3200 C.3   144  PRO144      0.0893
     83  N         60.5540   -3.9670  -36.5720 N.am  145  LYS145     -0.1980
     84  CA        61.0690   -4.8120  -35.5090 C.3   145  LYS145      0.1596
     85  C         62.3850   -5.4620  -35.8980 C.2   145  LYS145      0.2287
     86  O         62.9010   -6.2930  -35.1410 O.2   145  LYS145     -0.2864
     87  CB        60.0350   -5.8730  -35.1270 C.3   145  LYS145      0.0298
     88  CG        58.6830   -5.2900  -34.8130 C.3   145  LYS145      0.0038
     89  CD        58.6220   -4.7650  -33.4150 C.3   145  LYS145      0.0206
     90  CE        57.2490   -4.2490  -33.0050 C.3   145  LYS145      0.1093
     91  NZ        56.7040   -3.2040  -33.8630 N.3   145  LYS145     -0.1314
     92  N         49.1890   -0.5860  -49.4440 N.3   175  THR175     -0.1218
     93  CA        49.5260    0.3640  -48.3880 C.3   175  THR175      0.1862
     94  C         50.7120    1.2520  -48.7300 C.2   175  THR175      0.2287
     95  O         51.0270    2.1520  -47.9440 O.2   175  THR175     -0.2866
     96  CB        49.8000   -0.3550  -47.0710 C.3   175  THR175      0.1770
     97  OG1       50.8620   -1.3020  -47.2450 O.3   175  THR175     -0.2211
     98  CG2       48.5450   -1.0670  -46.5590 C.3   175  THR175      0.0375
     99  N         48.1140    4.0130  -50.2730 N.3   178  VAL178     -0.1231
    100  CA        47.0170    4.5320  -49.4760 C.3   178  VAL178      0.1692
    101  C         47.5280    4.6680  -48.0550 C.2   178  VAL178      0.2592
    102  O         48.2950    3.8180  -47.5870 O.2   178  VAL178     -0.2718
    103  CB        45.8070    3.5780  -49.5290 C.3   178  VAL178      0.0266
    104  CG1       44.6320    4.1680  -48.7900 C.3   178  VAL178      0.0020
    105  CG2       45.4570    3.2350  -50.9740 C.3   178  VAL178      0.0020
    106  N         47.1230    5.7350  -47.3700 N.am  179  ASP179     -0.1960
    107  CA        47.5120    5.8930  -45.9820 C.3   179  ASP179      0.1840
    108  C         46.5970    5.0650  -45.0840 C.2   179  ASP179      0.2621
    109  O         45.6480    4.4190  -45.5420 O.2   179  ASP179     -0.2715
    110  CB        47.5390    7.3810  -45.5950 C.3   179  ASP179      0.1450
    111  CG        46.1870    8.0700  -45.7170 C.2   179  ASP179      0.3671
    112  OD1       45.1410    7.4040  -45.7520 O.co2 179  ASP179     -0.2456
    113  OD2       46.1720    9.3210  -45.7450 O.co2 179  ASP179     -0.2456
    114  N         46.8640    5.1110  -43.7760 N.am  180  VAL180     -0.1977
    115  CA        46.0990    4.2820  -42.8410 C.3   180  VAL180      0.1596
    116  C         44.6330    4.7060  -42.8370 C.2   180  VAL180      0.2287
    117  O         43.7330    3.8680  -42.9540 O.2   180  VAL180     -0.2864
    118  CB        46.7140    4.3340  -41.4320 C.3   180  VAL180      0.0276
    119  CG1       45.9060    3.4260  -40.4440 C.3   180  VAL180      0.0022
    120  CG2       48.1750    3.9020  -41.4860 C.3   180  VAL180      0.0022
@<TRIPOS>BOND
     1   105   103    1
     2    99   100    1
     3   103   100    1
     4   103   104    1
     5   100   101    1
     6    92    93    1
     7    94    93    1
     8    94    95    2
     9    93    96    1
    10   101   102    2
    11   101   106   am
    12   106   107    1
    13    97    96    1
    14    96    98    1
    15    75    73    1
    16   107   110    1
    17   107   108    1
    18   112   111   ar
    19   113   111   ar
    20   111   110    1
    21    73    74    1
    22    73    72    2
    23   109   108    2
    24    16    13    1
    25    16    17    1
    26   108   114   am
    27    72    71    1
    28    15    14    2
    29    13    14    1
    30    13    12    1
    31    71    70    1
    32    14    18   am
    33    65    66    1
    34    70    69    1
    35    60    59    2
    36   114   115    1
    37    51    49    1
    38     4     3    2
    39    12     9   am
    40    10     9    2
    41     1     2    1
    42    63    61    1
    43     9     8    1
    44    69    66    1
    45   117   116    2
    46    18    19    1
    47   115   116    1
    48   115   118    1
    49    66    67    1
    50    59    58    1
    51     3     2    1
    52     3     7   am
    53    49    48    1
    54    27    28    1
    55    27    26    1
    56    19    20    1
    57     2     5    1
    58    28    29    1
    59    11     8    1
    60    50    48    1
    61     8     7    1
    62    58    61    1
    63    58    57    1
    64    61    62    1
    65    67    68    2
    66    30    29    1
    67    20    22   am
    68    20    21    2
    69     5     6    1
    70   120   118    1
    71   118   119    1
    72    48    45    1
    73    22    23    1
    74    62    64    1
    75    23    26    1
    76    23    24    1
    77    45    44    1
    78    45    46    1
    79    24    25    2
    80    24    31   am
    81    44    39   am
    82    82    76    1
    83    82    81    1
    84    46    47    2
    85    43    41    1
    86    76    77    1
    87    41    42    1
    88    41    38    1
    89    81    80    1
    90    31    32    1
    91    39    38    1
    92    39    40    2
    93    53    54    1
    94    53    52    1
    95    53    56    1
    96    54    55    2
    97    38    37    1
    98    37    33   am
    99    77    80    1
   100    77    78    1
   101    32    33    1
   102    32    35    1
   103    33    34    2
   104    83    78   am
   105    83    84    1
   106    78    79    2
   107    35    36    1
   108    85    84    1
   109    85    86    2
   110    84    87    1
   111    87    88    1
   112    88    89    1
   113    91    90    1
   114    89    90    1
