@<TRIPOS>MOLECULE
tmp/6c6oA00.pdb
 157 149 0 0 0
SMALL
GASTEIGER

@<TRIPOS>ATOM
      1  N         26.6080   81.4120   61.6560 N.3   112  VAL112     -0.1245
      2  CA        27.5220   81.1800   60.5370 C.3   112  VAL112      0.1561
      3  C         27.2230   79.8220   59.9200 C.2   112  VAL112      0.2260
      4  O         27.2120   78.8090   60.6370 O.2   112  VAL112     -0.2867
      5  CB        28.9970   81.2480   60.9610 C.3   112  VAL112      0.0252
      6  CG1       29.9240   80.9070   59.8220 C.3   112  VAL112      0.0019
      7  CG2       29.3100   82.6350   61.4900 C.3   112  VAL112      0.0019
      8  N         36.4170   78.9250   56.2810 N.3   268  ASP268     -0.1225
      9  CA        36.8100   77.7450   57.0440 C.3   268  ASP268      0.1805
     10  C         35.7280   76.6890   57.1650 C.2   268  ASP268      0.2598
     11  O         36.0440   75.5630   57.5490 O.2   268  ASP268     -0.2718
     12  CB        37.2940   78.1650   58.4370 C.3   268  ASP268      0.1424
     13  CG        38.7610   78.5010   58.4300 C.2   268  ASP268      0.3668
     14  OD1       39.3350   78.7730   59.5080 O.co2 268  ASP268     -0.2456
     15  OD2       39.3330   78.4870   57.2980 O.co2 268  ASP268     -0.2456
     16  N         34.4790   77.0020   56.8640 N.am  269  SER269     -0.1952
     17  CA        33.4480   75.9800   56.8710 C.3   269  SER269      0.1924
     18  C         33.1550   75.3930   55.4910 C.2   269  SER269      0.2314
     19  O         32.3250   74.4890   55.4020 O.2   269  SER269     -0.2863
     20  CB        32.1560   76.5350   57.4770 C.3   269  SER269      0.2116
     21  OG        31.1400   75.5440   57.4380 O.3   269  SER269     -0.2180
     22  N         31.7190   86.0320   54.4240 N.3   320  ARG320     -0.1245
     23  CA        33.1170   85.9740   54.8110 C.3   320  ARG320      0.1563
     24  C         33.9230   85.5140   53.5900 C.2   320  ARG320      0.2260
     25  O         33.8150   84.3640   53.1510 O.2   320  ARG320     -0.2867
     26  CB        33.3160   85.0860   56.0540 C.3   320  ARG320      0.0307
     27  CG        34.7630   85.0700   56.5090 C.3   320  ARG320      0.0489
     28  CD        34.9820   84.5510   57.9120 C.3   320  ARG320      0.2205
     29  NE        34.5930   83.1560   58.0690 N.pl3 320  ARG320     -0.0865
     30  CZ        34.8400   82.4200   59.1560 C.cat 320  ARG320      0.5346
     31  NH1       35.4920   82.9510   60.1820 N.pl3 320  ARG320      0.1354
     32  NH2       34.4290   81.1570   59.2200 N.pl3 320  ARG320      0.1354
     33  N         38.5100   90.2380   61.9010 N.3   410  MET410     -0.1245
     34  CA        38.5870   89.0310   62.7360 C.3   410  MET410      0.1570
     35  C         39.8710   89.0730   63.5730 C.2   410  MET410      0.2261
     36  O         40.9710   88.8410   63.0560 O.2   410  MET410     -0.2867
     37  CB        38.5240   87.7640   61.8770 C.3   410  MET410      0.0387
     38  CG        37.1910   87.5050   61.1760 C.3   410  MET410      0.0595
     39  SD        35.8230   86.9370   62.2320 S.3   410  MET410     -0.1393
     40  CE        36.6520   85.6720   63.2200 C.3   410  MET410      0.0692
     41  N         41.8310   87.1830   65.1240 N.3   412  GLU412     -0.1245
     42  CA        42.1780   85.7710   65.1960 C.3   412  GLU412      0.1567
     43  C         43.6320   85.5180   64.8210 C.2   412  GLU412      0.2260
     44  O         44.0100   84.3640   64.6040 O.2   412  GLU412     -0.2867
     45  CB        41.2790   84.9130   64.3180 C.3   412  GLU412      0.0388
     46  CG        41.1330   85.3500   62.8370 C.3   412  GLU412      0.1160
     47  CD        40.0770   84.5010   62.1460 C.2   412  GLU412      0.3649
     48  OE1       39.2650   83.8620   62.8680 O.co2 412  GLU412     -0.2457
     49  OE2       40.0070   84.4920   60.9190 O.co2 412  GLU412     -0.2457
     50  N         36.6060   88.0840   68.4340 N.3   436  THR436     -0.1203
     51  CA        37.6560   87.1800   68.8980 C.3   436  THR436      0.1994
     52  C         37.4310   85.8020   68.2760 C.2   436  THR436      0.2618
     53  O         36.6220   85.0040   68.7720 O.2   436  THR436     -0.2717
     54  CB        37.6850   87.0860   70.4320 C.3   436  THR436      0.1784
     55  OG1       36.3550   87.0420   70.9620 O.3   436  THR436     -0.2211
     56  CG2       38.4160   88.2690   71.0470 C.3   436  THR436      0.0376
     57  N         38.1540   85.5170   67.1860 N.am  437  GLY437     -0.1942
     58  CA        38.2420   84.1690   66.6490 C.3   437  GLY437      0.2014
     59  C         39.1920   83.2750   67.4270 C.2   437  GLY437      0.2639
     60  O         40.3090   82.9910   66.9750 O.2   437  GLY437     -0.2714
     61  N         38.7250   82.7770   68.5810 N.am  438  PHE438     -0.1959
     62  CA        39.6150   82.2200   69.6040 C.3   438  PHE438      0.1771
     63  C         40.2190   80.8820   69.1960 C.2   438  PHE438      0.2619
     64  O         41.2760   80.5020   69.7190 O.2   438  PHE438     -0.2715
     65  CB        38.8630   82.0770   70.9400 C.3   438  PHE438      0.0574
     66  CG        37.9260   80.8910   70.9970 C.ar  438  PHE438     -0.0200
     67  CD1       38.2700   79.7540   71.7260 C.ar  438  PHE438     -0.0042
     68  CD2       36.6930   80.9240   70.3510 C.ar  438  PHE438     -0.0042
     69  CE1       37.4130   78.6580   71.7930 C.ar  438  PHE438     -0.0003
     70  CE2       35.8270   79.8460   70.4200 C.ar  438  PHE438     -0.0003
     71  CZ        36.1880   78.7030   71.1540 C.ar  438  PHE438     -0.0000
     72  N         39.5810   80.1700   68.2630 N.am  439  LEU439     -0.1963
     73  CA        40.1570   78.9340   67.7400 C.3   439  LEU439      0.1728
     74  C         41.3030   79.2230   66.7660 C.2   439  LEU439      0.2616
     75  O         42.4420   78.7970   66.9930 O.2   439  LEU439     -0.2715
     76  CB        39.0690   78.0870   67.0850 C.3   439  LEU439      0.0311
     77  CG        37.9190   77.6980   68.0170 C.3   439  LEU439      0.0022
     78  CD1       36.6550   77.3740   67.2330 C.3   439  LEU439      0.0001
     79  CD2       38.2910   76.5190   68.9010 C.3   439  LEU439      0.0001
     80  N         41.0220   79.9610   65.6870 N.am  440  ASP440     -0.1971
     81  CA        42.0930   80.4860   64.8360 C.3   440  ASP440      0.1709
     82  C         43.1510   81.1750   65.6790 C.2   440  ASP440      0.2293
     83  O         44.3570   81.0080   65.4410 O.2   440  ASP440     -0.2864
     84  CB        41.5380   81.4760   63.8040 C.3   440  ASP440      0.1436
     85  CG        41.3420   80.8440   62.4180 C.2   440  ASP440      0.3671
     86  OD1       42.1820   80.0020   62.0340 O.co2 440  ASP440     -0.2456
     87  OD2       40.3360   81.1760   61.7400 O.co2 440  ASP440     -0.2456
     88  N         33.2230   84.4570   70.2710 N.3   492  GLY492     -0.1210
     89  CA        33.4230   83.2800   69.4610 C.3   492  GLY492      0.1956
     90  C         32.3480   82.2300   69.6210 C.2   492  GLY492      0.2611
     91  O         31.2930   82.4430   70.2220 O.2   492  GLY492     -0.2717
     92  N         32.6560   81.0600   69.0800 N.am  493  MET493     -0.1979
     93  CA        31.6740   80.0470   68.7410 C.3   493  MET493      0.1605
     94  C         31.5810   78.9260   69.7860 C.2   493  MET493      0.2287
     95  O         32.5920   78.4100   70.2710 O.2   493  MET493     -0.2864
     96  CB        32.0300   79.4450   67.3860 C.3   493  MET493      0.0413
     97  CG        31.2840   78.2030   67.0450 C.3   493  MET493      0.0598
     98  SD        29.6540   78.5260   66.3100 S.3   493  MET493     -0.1393
     99  CE        29.3730   76.8390   65.8700 C.3   493  MET493      0.0692
    100  N         30.9870   75.1660   69.9730 N.3   495  THR495     -0.1218
    101  CA        31.1350   74.0420   69.0420 C.3   495  THR495      0.1862
    102  C         30.2840   72.8240   69.3710 C.2   495  THR495      0.2287
    103  O         30.0890   71.9740   68.4920 O.2   495  THR495     -0.2866
    104  CB        32.5890   73.5790   68.9850 C.3   495  THR495      0.1770
    105  OG1       33.0480   73.3250   70.3210 O.3   495  THR495     -0.2211
    106  CG2       33.4590   74.6290   68.3360 C.3   495  THR495      0.0375
    107  N         28.8510   83.9080   68.3740 N.3   519  TRP519     -0.1241
    108  CA        28.6030   83.0160   67.2570 C.3   519  TRP519      0.1605
    109  C         27.9120   81.7280   67.6850 C.2   519  TRP519      0.2264
    110  O         28.2180   81.1510   68.7270 O.2   519  TRP519     -0.2867
    111  CB        29.9050   82.7030   66.5080 C.3   519  TRP519      0.0550
    112  CG        30.3520   83.8610   65.6240 C.ar  519  TRP519      0.0003
    113  CD1       29.7940   85.1010   65.5600 C.ar  519  TRP519      0.0946
    114  CD2       31.4530   83.8750   64.7180 C.ar  519  TRP519      0.0152
    115  NE1       30.4760   85.8840   64.6780 N.ar  519  TRP519     -0.2442
    116  CE2       31.5030   85.1530   64.1450 C.ar  519  TRP519      0.0810
    117  CE3       32.3980   82.9210   64.3270 C.ar  519  TRP519      0.0012
    118  CZ2       32.4630   85.5090   63.2000 C.ar  519  TRP519      0.0191
    119  CZ3       33.3530   83.2780   63.3840 C.ar  519  TRP519      0.0001
    120  CH2       33.3810   84.5640   62.8410 C.ar  519  TRP519      0.0015
    121  N         31.4940   70.3210   66.5690 N.3   606  MET606     -0.1230
    122  CA        31.4330   70.8550   65.2140 C.3   606  MET606      0.1702
    123  C         32.8130   71.4000   64.8580 C.2   606  MET606      0.2592
    124  O         33.3010   72.3530   65.4850 O.2   606  MET606     -0.2718
    125  CB        30.3500   71.9280   65.1060 C.3   606  MET606      0.0401
    126  CG        30.2150   72.5910   63.7200 C.3   606  MET606      0.0596
    127  SD        29.3380   71.6050   62.4710 S.3   606  MET606     -0.1393
    128  CE        27.6310   71.9840   62.9280 C.3   606  MET606      0.0692
    129  N         33.4630   70.7500   63.9020 N.am  607  GLU607     -0.1966
    130  CA        34.8050   71.0940   63.4640 C.3   607  GLU607      0.1733
    131  C         34.7510   71.9670   62.2140 C.2   607  GLU607      0.2616
    132  O         33.7650   71.9860   61.4750 O.2   607  GLU607     -0.2715
    133  CB        35.6150   69.8250   63.1900 C.3   607  GLU607      0.0429
    134  CG        35.8350   68.9410   64.4270 C.3   607  GLU607      0.1163
    135  CD        36.4610   69.7000   65.5910 C.2   607  GLU607      0.3649
    136  OE1       35.7290   70.1430   66.5260 O.co2 607  GLU607     -0.2457
    137  OE2       37.7010   69.8460   65.5690 O.co2 607  GLU607     -0.2457
    138  N         35.8290   72.7150   62.0130 N.am  608  ASP608     -0.1971
    139  CA        36.0990   73.5060   60.8200 C.3   608  ASP608      0.1709
    140  C         37.6160   73.5740   60.6850 C.2   608  ASP608      0.2293
    141  O         38.3340   72.7910   61.3160 O.2   608  ASP608     -0.2864
    142  CB        35.4120   74.8760   60.9200 C.3   608  ASP608      0.1436
    143  CG        36.2630   75.9270   61.6360 C.2   608  ASP608      0.3671
    144  OD1       36.9480   75.6060   62.6510 O.co2 608  ASP608     -0.2456
    145  OD2       36.2130   77.0960   61.1850 O.co2 608  ASP608     -0.2456
    146  N         39.6540   76.0440   61.6770 N.3   610  ALA610     -0.1231
    147  CA        40.3020   76.5760   62.8870 C.3   610  ALA610      0.1694
    148  C         40.5850   75.4640   63.8900 C.2   610  ALA610      0.2592
    149  O         41.7080   75.3380   64.3900 O.2   610  ALA610     -0.2718
    150  CB        39.4500   77.6710   63.5380 C.3   610  ALA610      0.0304
    151  N         39.5890   74.6220   64.1640 N.am  611  THR611     -0.1953
    152  CA        39.7710   73.5910   65.1810 C.3   611  THR611      0.1897
    153  C         40.8180   72.5810   64.7420 C.2   611  THR611      0.2313
    154  O         41.6200   72.1110   65.5620 O.2   611  THR611     -0.2863
    155  CB        38.4490   72.8820   65.4770 C.3   611  THR611      0.1794
    156  OG1       38.0340   72.1540   64.3180 O.3   611  THR611     -0.2208
    157  CG2       37.3630   73.8720   65.8490 C.3   611  THR611      0.0378
@<TRIPOS>BOND
     1    25    24    2
     2    24    23    1
     3    22    23    1
     4    23    26    1
     5    19    18    2
     6    18    17    1
     7    26    27    1
     8     8     9    1
     9    27    28    1
    10    16    17    1
    11    16    10   am
    12    17    20    1
    13     9    10    1
    14     9    12    1
    15    10    11    2
    16    15    13   ar
    17    21    20    1
    18    28    29    1
    19    29    30    2
    20    13    12    1
    21    13    14   ar
    22    30    32    1
    23    30    31    1
    24     6     5    1
    25     3     2    1
    26     3     4    2
    27     2     5    1
    28     2     1    1
    29   140   139    1
    30   140   141    2
    31   139   142    1
    32   139   138    1
    33    49    47   ar
    34   142   143    1
    35     5     7    1
    36    38    37    1
    37    38    39    1
    38   145   143   ar
    39   132   131    2
    40   143   144   ar
    41   146   147    1
    42    87    85   ar
    43    37    34    1
    44    33    34    1
    45   138   131   am
    46    86    85   ar
    47    47    46    1
    48    47    48   ar
    49   131   130    1
    50    39    40    1
    51    85    84    1
    52   127   128    1
    53   127   126    1
    54    34    35    1
    55    46    45    1
    56   120   118   ar
    57   120   119   ar
    58   147   150    1
    59   147   148    1
    60    36    35    2
    61   133   130    1
    62   133   134    1
    63   118   116   ar
    64   119   117   ar
    65   130   129    1
    66   126   125    1
    67    84    81    1
    68   148   151   am
    69   148   149    2
    70   129   123   am
    71   116   115   ar
    72   116   114   ar
    73   151   152    1
    74    45    42    1
    75   156   155    1
    76   117   114   ar
    77   134   135    1
    78    44    43    2
    79   115   113   ar
    80   114   112   ar
    81   153   152    1
    82   153   154    2
    83    43    42    1
    84    81    82    1
    85    81    80    1
    86   123   122    1
    87   123   124    2
    88   125   122    1
    89    41    42    1
    90   152   155    1
    91   122   121    1
    92    83    82    2
    93   155   157    1
    94   113   112   ar
    95   137   135   ar
    96   135   136   ar
    97   112   111    1
    98    80    74   am
    99    99    98    1
   100    98    97    1
   101   111   108    1
   102    58    57    1
   103    58    59    1
   104    74    75    2
   105    74    73    1
   106    60    59    2
   107    97    96    1
   108    76    73    1
   109    76    77    1
   110    57    52   am
   111    78    77    1
   112   108   109    1
   113   108   107    1
   114    96    93    1
   115    59    61   am
   116   109   110    2
   117    73    72    1
   118    77    79    1
   119    72    63   am
   120    52    53    2
   121    52    51    1
   122   106   104    1
   123    50    51    1
   124   103   102    2
   125    61    62    1
   126    93    92    1
   127    93    94    1
   128    51    54    1
   129   104   101    1
   130   104   105    1
   131   101   102    1
   132   101   100    1
   133    92    90   am
   134    63    62    1
   135    63    64    2
   136    89    90    1
   137    89    88    1
   138    62    65    1
   139    90    91    2
   140    94    95    2
   141    68    70   ar
   142    68    66   ar
   143    70    71   ar
   144    54    55    1
   145    54    56    1
   146    65    66    1
   147    66    67   ar
   148    71    69   ar
   149    67    69   ar
