@<TRIPOS>MOLECULE
tmp/6c71C00.pdb
 107 106 0 0 0
SMALL
GASTEIGER

@<TRIPOS>ATOM
      1  N         27.1070   90.9300   42.8020 N.3    59  TRP59      -0.1241
      2  CA        26.8110   91.7830   41.6600 C.3    59  TRP59       0.1605
      3  C         27.3570   91.1930   40.3670 C.2    59  TRP59       0.2264
      4  O         28.4900   90.7040   40.3200 O.2    59  TRP59      -0.2867
      5  CB        27.3740   93.1880   41.8770 C.3    59  TRP59       0.0550
      6  CG        26.7500   93.8960   43.0420 C.ar   59  TRP59       0.0003
      7  CD1       25.4740   94.3730   43.1200 C.ar   59  TRP59       0.0946
      8  CD2       27.3680   94.1980   44.3000 C.ar   59  TRP59       0.0152
      9  NE1       25.2600   94.9570   44.3450 N.ar   59  TRP59      -0.2442
     10  CE2       26.4080   94.8640   45.0870 C.ar   59  TRP59       0.0810
     11  CE3       28.6410   93.9750   44.8330 C.ar   59  TRP59       0.0012
     12  CZ2       26.6800   95.3050   46.3810 C.ar   59  TRP59       0.0191
     13  CZ3       28.9090   94.4160   46.1170 C.ar   59  TRP59       0.0001
     14  CH2       27.9330   95.0730   46.8760 C.ar   59  TRP59       0.0015
     15  N         40.9980   97.2950   48.1470 N.3   168  LEU168     -0.1231
     16  CA        39.8720   96.3850   48.3190 C.3   168  LEU168      0.1693
     17  C         39.9470   95.2350   47.3300 C.2   168  LEU168      0.2592
     18  O         39.7280   94.0770   47.7030 O.2   168  LEU168     -0.2718
     19  CB        38.5450   97.1180   48.1620 C.3   168  LEU168      0.0284
     20  CG        37.3880   96.1680   48.4780 C.3   168  LEU168      0.0019
     21  CD1       36.5440   96.7190   49.6060 C.3   168  LEU168      0.0001
     22  CD2       36.5470   95.8900   47.2420 C.3   168  LEU168      0.0001
     23  N         40.2630   95.5240   46.0670 N.am  169  TYR169     -0.1976
     24  CA        40.3690   94.4310   45.1080 C.3   169  TYR169      0.1639
     25  C         41.5400   93.5100   45.4190 C.2   169  TYR169      0.2290
     26  O         41.5160   92.3400   45.0230 O.2   169  TYR169     -0.2864
     27  CB        40.4650   94.9780   43.6860 C.3   169  TYR169      0.0560
     28  CG        39.1080   95.0730   43.0390 C.ar  169  TYR169     -0.0198
     29  CD1       38.1150   95.8660   43.5980 C.ar  169  TYR169     -0.0009
     30  CD2       38.8060   94.3530   41.8940 C.ar  169  TYR169     -0.0009
     31  CE1       36.8680   95.9510   43.0280 C.ar  169  TYR169      0.0417
     32  CE2       37.5580   94.4340   41.3130 C.ar  169  TYR169      0.0417
     33  CZ        36.5930   95.2370   41.8860 C.ar  169  TYR169      0.1957
     34  OH        35.3460   95.3270   41.3200 O.3   169  TYR169     -0.2866
     35  N         30.5410   96.0660   38.4460 N.3   200  GLU200     -0.1231
     36  CA        31.0930   95.4460   39.6450 C.3   200  GLU200      0.1699
     37  C         30.1860   95.5160   40.8700 C.2   200  GLU200      0.2592
     38  O         30.1760   94.5650   41.6610 O.2   200  GLU200     -0.2718
     39  CB        32.4580   96.0590   39.9620 C.3   200  GLU200      0.0402
     40  CG        33.4930   95.8180   38.8620 C.3   200  GLU200      0.1161
     41  CD        33.7510   94.3410   38.5980 C.2   200  GLU200      0.3649
     42  OE1       33.2590   93.8110   37.5860 O.co2 200  GLU200     -0.2457
     43  OE2       34.4530   93.7010   39.4180 O.co2 200  GLU200     -0.2457
     44  N         29.4340   96.6070   41.0780 N.am  201  THR201     -0.1953
     45  CA        28.6080   96.6890   42.2800 C.3   201  THR201      0.1897
     46  C         27.2120   97.2570   42.0340 C.2   201  THR201      0.2313
     47  O         26.5860   97.7520   42.9810 O.2   201  THR201     -0.2863
     48  CB        29.2740   97.5510   43.3650 C.3   201  THR201      0.1794
     49  OG1       29.5990   98.8390   42.8250 O.3   201  THR201     -0.2208
     50  CG2       30.5310   96.8900   43.9030 C.3   201  THR201      0.0378
     51  N         32.7490   90.6930   54.7470 N.3   291  LYS291     -0.1245
     52  CA        31.5990   91.5160   54.3910 C.3   291  LYS291      0.1561
     53  C         30.7320   91.7860   55.6110 C.2   291  LYS291      0.2260
     54  O         30.4870   90.8930   56.4250 O.2   291  LYS291     -0.2867
     55  CB        30.7580   90.8720   53.2830 C.3   291  LYS291      0.0271
     56  CG        29.7420   91.8350   52.6830 C.3   291  LYS291      0.0035
     57  CD        29.5260   91.5990   51.1980 C.3   291  LYS291      0.0206
     58  CE        28.4180   92.4980   50.6640 C.3   291  LYS291      0.1093
     59  NZ        27.8870   92.0310   49.3540 N.3   291  LYS291     -0.1314
     60  N         34.8750   99.8160   51.5240 N.3   315  TRP315     -0.1241
     61  CA        33.8460  100.0370   50.5070 C.3   315  TRP315      0.1605
     62  C         32.4860  100.1240   51.1850 C.2   315  TRP315      0.2264
     63  O         32.0070   99.1360   51.7470 O.2   315  TRP315     -0.2867
     64  CB        33.8570   98.9280   49.4550 C.3   315  TRP315      0.0550
     65  CG        33.0140   99.2190   48.2450 C.ar  315  TRP315      0.0003
     66  CD1       31.6530   99.3150   48.1990 C.ar  315  TRP315      0.0946
     67  CD2       33.4770   99.4450   46.9070 C.ar  315  TRP315      0.0152
     68  NE1       31.2400   99.5890   46.9170 N.ar  315  TRP315     -0.2442
     69  CE2       32.3400   99.6740   46.1050 C.ar  315  TRP315      0.0810
     70  CE3       34.7400   99.4780   46.3100 C.ar  315  TRP315      0.0012
     71  CZ2       32.4300   99.9310   44.7390 C.ar  315  TRP315      0.0191
     72  CZ3       34.8270   99.7340   44.9530 C.ar  315  TRP315      0.0001
     73  CH2       33.6790   99.9570   44.1830 C.ar  315  TRP315      0.0015
     74  N         32.2290   96.3880   52.4550 N.3   332  THR332     -0.1218
     75  CA        33.2390   95.3950   52.1310 C.3   332  THR332      0.1862
     76  C         34.5650   95.8300   52.7380 C.2   332  THR332      0.2287
     77  O         34.9930   96.9820   52.5620 O.2   332  THR332     -0.2866
     78  CB        33.3750   95.2120   50.6190 C.3   332  THR332      0.1770
     79  OG1       32.0730   95.1580   50.0230 O.3   332  THR332     -0.2211
     80  CG2       34.1280   93.9300   50.3040 C.3   332  THR332      0.0375
     81  N         37.6430   87.1060   47.4420 N.3   378  TRP378     -0.1241
     82  CA        37.7730   87.0500   45.9920 C.3   378  TRP378      0.1605
     83  C         39.2120   86.7550   45.5770 C.2   378  TRP378      0.2264
     84  O         40.1560   86.9150   46.3480 O.2   378  TRP378     -0.2867
     85  CB        37.3300   88.3820   45.3930 C.3   378  TRP378      0.0550
     86  CG        37.9010   89.5300   46.1640 C.ar  378  TRP378      0.0003
     87  CD1       39.0920   90.1560   45.9430 C.ar  378  TRP378      0.0946
     88  CD2       37.3260   90.1570   47.3180 C.ar  378  TRP378      0.0152
     89  NE1       39.2860   91.1480   46.8750 N.ar  378  TRP378     -0.2442
     90  CE2       38.2150   91.1680   47.7300 C.ar  378  TRP378      0.0810
     91  CE3       36.1400   89.9690   48.0340 C.ar  378  TRP378      0.0012
     92  CZ2       37.9560   91.9860   48.8290 C.ar  378  TRP378      0.0191
     93  CZ3       35.8860   90.7830   49.1240 C.ar  378  TRP378      0.0001
     94  CH2       36.7900   91.7790   49.5090 C.ar  378  TRP378      0.0015
     95  N         38.1270   87.7580   39.4470 N.3   412  ALA412     -0.1231
     96  CA        37.6930   88.1990   40.7640 C.3   412  ALA412      0.1694
     97  C         36.1790   88.1660   40.9170 C.2   412  ALA412      0.2592
     98  O         35.6440   88.7840   41.8460 O.2   412  ALA412     -0.2718
     99  CB        38.2190   89.6070   41.0500 C.3   412  ALA412      0.0304
    100  N         35.4780   87.4550   40.0360 N.am  413  ASN413     -0.1974
    101  CA        34.0360   87.5830   39.9150 C.3   413  ASN413      0.1688
    102  C         33.3720   86.2150   39.8150 C.2   413  ASN413      0.2292
    103  O         34.0300   85.1770   39.7010 O.2   413  ASN413     -0.2864
    104  CB        33.6730   88.4370   38.6940 C.3   413  ASN413      0.1181
    105  CG        34.2510   89.8340   38.7730 C.2   413  ASN413      0.2629
    106  OD1       35.4100   90.0580   38.4230 O.2   413  ASN413     -0.2716
    107  ND2       33.4480   90.7820   39.2370 N.am  413  ASN413     -0.0877
@<TRIPOS>BOND
     1    42    41   ar
     2   106   105    2
     3    35    36    1
     4    41    40    1
     5    41    43   ar
     6   104   105    1
     7   104   101    1
     8   105   107   am
     9    40    39    1
    10    95    96    1
    11    36    39    1
    12    36    37    1
    13   103   102    2
    14   102   101    1
    15   101   100    1
    16   100    97   am
    17     4     3    2
    18     3     2    1
    19    96    97    1
    20    96    99    1
    21    37    44   am
    22    37    38    2
    23    97    98    2
    24    44    45    1
    25    32    33   ar
    26    32    30   ar
    27    34    33    1
    28     2     5    1
    29     2     1    1
    30     5     6    1
    31    33    31   ar
    32    30    28   ar
    33    46    45    1
    34    46    47    2
    35    45    48    1
    36    49    48    1
    37    31    29   ar
    38    28    29   ar
    39    28    27    1
    40     6     7   ar
    41     6     8   ar
    42     7     9   ar
    43    48    50    1
    44    27    24    1
    45    73    71   ar
    46    73    72   ar
    47     8    11   ar
    48     8    10   ar
    49     9    10   ar
    50    71    69   ar
    51    11    13   ar
    52    72    70   ar
    53    26    25    2
    54    10    12   ar
    55    24    25    1
    56    24    23    1
    57    85    82    1
    58    85    86    1
    59    83    82    1
    60    83    84    2
    61    87    86   ar
    62    87    89   ar
    63    82    81    1
    64    23    17   am
    65    69    67   ar
    66    69    68   ar
    67    13    14   ar
    68    86    88   ar
    69    70    67   ar
    70    12    14   ar
    71    89    90   ar
    72    67    65   ar
    73    68    66   ar
    74    22    20    1
    75    88    90   ar
    76    88    91   ar
    77    17    18    2
    78    17    16    1
    79    90    92   ar
    80    91    93   ar
    81    15    16    1
    82    19    16    1
    83    19    20    1
    84    66    65   ar
    85    65    64    1
    86    20    21    1
    87    92    94   ar
    88    93    94   ar
    89    59    58    1
    90    64    61    1
    91    79    78    1
    92    80    78    1
    93    61    62    1
    94    61    60    1
    95    78    75    1
    96    58    57    1
    97    62    63    2
    98    57    56    1
    99    75    74    1
   100    75    76    1
   101    77    76    2
   102    56    55    1
   103    55    52    1
   104    52    51    1
   105    52    53    1
   106    53    54    2
