@<TRIPOS>MOLECULE
tmp/6c74A00.pdb
 94 89 0 0 0
SMALL
GASTEIGER

@<TRIPOS>ATOM
      1  N          2.0680    4.0520    6.3590 N.3    34  TYR34      -0.1241
      2  CA         1.6250    4.0550    4.9760 C.3    34  TYR34       0.1605
      3  C          2.5870    3.3320    4.0410 C.2    34  TYR34       0.2264
      4  O          3.7460    3.0490    4.3740 O.2    34  TYR34      -0.2867
      5  CB         1.3660    5.4670    4.4560 C.3    34  TYR34       0.0534
      6  CG         2.5530    6.4040    4.3640 C.ar   34  TYR34      -0.0201
      7  CD1        3.4150    6.3920    3.2730 C.ar   34  TYR34      -0.0009
      8  CD2        2.7670    7.3770    5.3420 C.ar   34  TYR34      -0.0009
      9  CE1        4.4770    7.2970    3.1740 C.ar   34  TYR34       0.0417
     10  CE2        3.8160    8.2740    5.2370 C.ar   34  TYR34       0.0417
     11  CZ         4.6590    8.2220    4.1530 C.ar   34  TYR34       0.1957
     12  OH         5.7140    9.0980    4.0300 O.3    34  TYR34      -0.2866
     13  N          3.7260    3.7350   -0.0240 N.3    36  CYS36      -0.1235
     14  CA         3.7510    4.7950   -1.0170 C.3    36  CYS36       0.1677
     15  C          4.4940    4.2830   -2.2420 C.2    36  CYS36       0.2270
     16  O          5.4860    3.5630   -2.1100 O.2    36  CYS36      -0.2867
     17  CB         4.5310    5.9810   -0.4240 C.3    36  CYS36       0.0956
     18  SG         4.1110    7.6390   -1.0000 S.3    36  CYS36      -0.0801
     19  N         10.9110   10.4950   -4.4240 N.3    41  GLN41      -0.1231
     20  CA        10.6060    9.9830   -3.0920 C.3    41  GLN41       0.1698
     21  C          9.5210   10.7860   -2.3840 C.2    41  GLN41       0.2592
     22  O          8.5800   10.2020   -1.8400 O.2    41  GLN41      -0.2718
     23  CB        11.8890    9.9680   -2.2620 C.3    41  GLN41       0.0381
     24  CG        11.6980    9.5850   -0.8140 C.3    41  GLN41       0.0905
     25  CD        12.9680    9.4950    0.0160 C.2    41  GLN41       0.2608
     26  OE1       12.9080    9.5280    1.2500 O.2    41  GLN41      -0.2717
     27  NE2       14.0980    9.3740   -0.6280 N.am   41  GLN41      -0.0878
     28  N          9.6690   12.1190   -2.3040 N.am   42  ARG42      -0.1966
     29  CA         8.7520   12.8980   -1.4740 C.3    42  ARG42       0.1729
     30  C          7.4590   13.2010   -2.2130 C.2    42  ARG42       0.2617
     31  O          6.5860   13.8740   -1.6520 O.2    42  ARG42      -0.2715
     32  CB         9.3950   14.1960   -0.9530 C.3    42  ARG42       0.0348
     33  CG        10.6170   13.9760   -0.0600 C.3    42  ARG42       0.0492
     34  CD        10.2640   13.5250    1.3610 C.3    42  ARG42       0.2205
     35  NE        11.4430   12.9990    2.0310 N.pl3  42  ARG42      -0.0865
     36  CZ        11.4610   12.4130    3.2160 C.cat  42  ARG42       0.5346
     37  NH1       10.3470   12.3090    3.9270 N.pl3  42  ARG42       0.1354
     38  NH2       12.6130   11.9360    3.6810 N.pl3  42  ARG42       0.1354
     39  N          7.3450   12.7340   -3.4600 N.am   43  SER43      -0.1936
     40  CA         6.1500   12.8890   -4.2800 C.3    43  SER43       0.2055
     41  C          5.5050   11.5450   -4.6180 C.2    43  SER43       0.2643
     42  O          4.6940   11.4680   -5.5410 O.2    43  SER43      -0.2714
     43  CB         6.5040   13.6490   -5.5590 C.3    43  SER43       0.2130
     44  OG         7.2210   14.8210   -5.2380 O.3    43  SER43      -0.2179
     45  N          5.8600   10.4880   -3.9020 N.am   44  CYS44      -0.1967
     46  CA         5.2850    9.1740   -4.1490 C.3    44  CYS44       0.1712
     47  C          3.7790    9.2220   -3.8670 C.2    44  CYS44       0.2296
     48  O          3.2740   10.0990   -3.1420 O.2    44  CYS44      -0.2864
     49  CB         6.0110    8.1210   -3.2930 C.3    44  CYS44       0.0983
     50  SG         5.9500    8.3450   -1.5360 S.3    44  CYS44      -0.0798
     51  N          0.5840    7.8040   -2.1390 N.3    46  THR46      -0.1218
     52  CA         0.1790    6.9810   -1.0040 C.3    46  THR46       0.1862
     53  C         -0.9610    6.0760   -1.4400 C.2    46  THR46       0.2287
     54  O         -2.0250    6.5640   -1.8340 O.2    46  THR46      -0.2866
     55  CB        -0.2530    7.8800    0.1520 C.3    46  THR46       0.1770
     56  OG1        0.8940    8.5760    0.6500 O.3    46  THR46      -0.2211
     57  CG2       -0.8770    7.0810    1.3080 C.3    46  THR46       0.0375
     58  N          4.1750   12.1750    9.8410 N.3    94  LYS94      -0.1245
     59  CA         4.2880   13.1380   10.9210 C.3    94  LYS94       0.1561
     60  C          4.3380   14.5270   10.3220 C.2    94  LYS94       0.2260
     61  O          4.5520   14.7030    9.1230 O.2    94  LYS94      -0.2867
     62  CB         5.5170   12.8610   11.7860 C.3    94  LYS94       0.0271
     63  CG         6.8050   13.0320   11.0610 C.3    94  LYS94       0.0035
     64  CD         8.0050   12.6930   11.9320 C.3    94  LYS94       0.0206
     65  CE         8.2150   13.6600   13.0800 C.3    94  LYS94       0.1093
     66  NZ         8.5230   15.0660   12.6320 N.3    94  LYS94      -0.1314
     67  N          6.1560   17.7460    9.3990 N.3    96  GLY96      -0.1210
     68  CA         7.5130   17.8210    8.9210 C.3    96  GLY96       0.1956
     69  C          7.8770   16.5850    8.1180 C.2    96  GLY96       0.2612
     70  O          7.0250   15.8800    7.5910 O.2    96  GLY96      -0.2717
     71  N          9.1660   16.3150    8.0780 N.am   97  LEU97      -0.1965
     72  CA         9.7340   15.2620    7.2380 C.3    97  LEU97       0.1728
     73  C          9.3140   13.8860    7.7510 C.2    97  LEU97       0.2616
     74  O          9.5990   13.5350    8.8940 O.2    97  LEU97      -0.2715
     75  CB        11.2500   15.3850    7.3080 C.3    97  LEU97       0.0311
     76  CG        12.0110   14.5920    6.2560 C.3    97  LEU97       0.0022
     77  CD1       11.9340   15.3210    4.9480 C.3    97  LEU97       0.0001
     78  CD2       13.4910   14.3340    6.6600 C.3    97  LEU97       0.0001
     79  N          8.6990   13.0740    6.8860 N.am   98  ASP98      -0.1971
     80  CA         8.2580   11.7450    7.3010 C.3    98  ASP98       0.1709
     81  C          9.4260   10.7560    7.3190 C.2    98  ASP98       0.2293
     82  O         10.2330   10.7270    6.3730 O.2    98  ASP98      -0.2864
     83  CB         7.3050   11.1910    6.2730 C.3    98  ASP98       0.1436
     84  CG         5.9220   11.7530    6.3410 C.2    98  ASP98       0.3671
     85  OD1        5.6180   12.6730    7.1440 O.co2  98  ASP98      -0.2456
     86  OD2        5.1350   11.2790    5.5020 O.co2  98  ASP98      -0.2456
     87  N         10.8810    7.4090    6.1730 N.3   100  MET100     -0.1245
     88  CA        10.6080    6.6060    4.9780 C.3   100  MET100      0.1570
     89  C         11.7000    5.5670    4.7850 C.2   100  MET100      0.2261
     90  O         12.8690    5.8250    5.0820 O.2   100  MET100     -0.2867
     91  CB        10.5540    7.4560    3.7020 C.3   100  MET100      0.0387
     92  CG         9.4530    8.5090    3.7160 C.3   100  MET100      0.0595
     93  SD         9.2890    9.5580    2.2190 S.3   100  MET100     -0.1393
     94  CE         8.6610    8.3550    1.0410 C.3   100  MET100      0.0692
@<TRIPOS>BOND
     1    43    44    1
     2    43    40    1
     3    42    41    2
     4    41    40    1
     5    41    45   am
     6    19    20    1
     7    40    39    1
     8    46    45    1
     9    46    47    1
    10    46    49    1
    11    47    48    2
    12    39    30   am
    13    49    50    1
    14    20    21    1
    15    20    23    1
    16    21    28   am
    17    21    22    2
    18    28    29    1
    19    23    24    1
    20    15    16    2
    21    15    14    1
    22    30    31    2
    23    30    29    1
    24    51    52    1
    25    54    53    2
    26    50    18    1
    27    29    32    1
    28    53    52    1
    29    14    17    1
    30    14    13    1
    31    52    55    1
    32    18    17    1
    33    32    33    1
    34    24    25    1
    35    27    25   am
    36    33    34    1
    37    25    26    2
    38    55    56    1
    39    55    57    1
    40    94    93    1
    41    34    35    1
    42    35    36    2
    43    93    92    1
    44     9     7   ar
    45     9    11   ar
    46    36    38    1
    47    36    37    1
    48     7     6   ar
    49    91    92    1
    50    91    88    1
    51    12    11    1
    52     3     4    2
    53     3     2    1
    54    11    10   ar
    55     6     5    1
    56     6     8   ar
    57     5     2    1
    58    89    88    1
    59    89    90    2
    60    77    76    1
    61     2     1    1
    62    88    87    1
    63    10     8   ar
    64    86    84   ar
    65    76    78    1
    66    76    75    1
    67    83    84    1
    68    83    80    1
    69    84    85   ar
    70    82    81    2
    71    79    80    1
    72    79    73   am
    73    72    75    1
    74    72    73    1
    75    72    71    1
    76    80    81    1
    77    70    69    2
    78    73    74    2
    79    71    69   am
    80    69    68    1
    81    68    67    1
    82    61    60    2
    83    58    59    1
    84    60    59    1
    85    59    62    1
    86    63    62    1
    87    63    64    1
    88    64    65    1
    89    66    65    1
