@<TRIPOS>MOLECULE
tmp/6c75B00.pdb
 150 140 0 0 0
SMALL
GASTEIGER

@<TRIPOS>ATOM
      1  N          0.7660   84.3900   44.1110 N.3    33  SER33      -0.1202
      2  CA        -0.4480   85.0250   44.5930 C.3    33  SER33       0.2020
      3  C         -0.7630   84.5530   46.0150 C.2    33  SER33       0.2619
      4  O         -0.3240   83.4770   46.4420 O.2    33  SER33      -0.2717
      5  CB        -1.6100   84.6840   43.6670 C.3    33  SER33       0.2103
      6  OG        -2.0950   83.3850   43.9590 O.3    33  SER33      -0.2182
      7  N         -1.5200   85.3710   46.7440 N.am   34  GLY34      -0.1942
      8  CA        -1.9740   85.0170   48.0830 C.3    34  GLY34       0.2014
      9  C         -2.5810   83.6270   48.1750 C.2    34  GLY34       0.2640
     10  O         -2.2910   82.8780   49.1080 O.2    34  GLY34      -0.2714
     11  N         -3.4670   83.3000   47.2390 N.am   35  SER35      -0.1935
     12  CA        -4.2400   82.0660   47.3190 C.3    35  SER35       0.2055
     13  C         -3.3370   80.8320   47.2150 C.2    35  SER35       0.2642
     14  O         -3.6720   79.7550   47.7170 O.2    35  SER35      -0.2714
     15  CB        -5.2940   82.0320   46.2140 C.3    35  SER35       0.2130
     16  OG        -4.6780   82.1480   44.9480 O.3    35  SER35      -0.2179
     17  N         -2.2040   80.9810   46.5420 N.am   36  MET36      -0.1976
     18  CA        -1.2900   79.8650   46.3720 C.3    36  MET36       0.1605
     19  C         -0.5160   79.5710   47.6580 C.2    36  MET36       0.2287
     20  O         -0.2120   78.4120   47.9480 O.2    36  MET36      -0.2864
     21  CB        -0.3330   80.1280   45.2050 C.3    36  MET36       0.0413
     22  CG        -1.0160   80.1190   43.8410 C.3    36  MET36       0.0598
     23  SD        -1.6500   78.4940   43.3670 S.3    36  MET36      -0.1393
     24  CE        -3.3790   78.6310   43.8260 C.3    36  MET36       0.0692
     25  N         -2.1930   80.2870   50.7030 N.3    38  ARG38      -0.1231
     26  CA        -3.2910   79.8400   51.5470 C.3    38  ARG38       0.1694
     27  C         -3.6070   78.3640   51.3520 C.2    38  ARG38       0.2592
     28  O         -3.8090   77.6410   52.3240 O.2    38  ARG38      -0.2718
     29  CB        -4.5400   80.6790   51.2860 C.3    38  ARG38       0.0321
     30  CG        -4.4960   82.0430   51.9550 C.3    38  ARG38       0.0489
     31  CD        -5.7560   82.8540   51.6890 C.3    38  ARG38       0.2205
     32  NE        -5.4440   84.2440   51.3560 N.pl3  38  ARG38      -0.0865
     33  CZ        -5.5760   84.7800   50.1440 C.cat  38  ARG38       0.5346
     34  NH1       -6.1060   84.0770   49.1500 N.pl3  38  ARG38       0.1354
     35  NH2       -5.2160   86.0410   49.9360 N.pl3  38  ARG38       0.1354
     36  N         -3.6420   77.9160   50.1010 N.am   39  HIS39      -0.1976
     37  CA        -4.0630   76.5540   49.7950 C.3    39  HIS39       0.1656
     38  C         -2.8810   75.5860   49.7710 C.2    39  HIS39       0.2291
     39  O         -3.0460   74.4020   49.4690 O.2    39  HIS39      -0.2864
     40  CB        -4.8050   76.5140   48.4590 C.3    39  HIS39       0.0771
     41  CG        -6.1140   77.2390   48.4770 C.ar   39  HIS39       0.0820
     42  ND1       -6.2320   78.5700   48.1360 N.ar   39  HIS39      -0.2267
     43  CD2       -7.3480   76.8410   48.8690 C.ar   39  HIS39       0.1154
     44  CE1       -7.4850   78.9550   48.3030 C.ar   39  HIS39       0.1986
     45  NE2       -8.1900   77.9120   48.7030 N.ar   39  HIS39      -0.2212
     46  N          1.1990   89.1730   46.0990 N.3    62  LEU62      -0.1245
     47  CA         1.2480   90.2270   45.0900 C.3    62  LEU62       0.1561
     48  C         -0.1510   90.6960   44.7010 C.2    62  LEU62       0.2260
     49  O         -1.0460   89.8800   44.4550 O.2    62  LEU62      -0.2867
     50  CB         1.9810   89.7340   43.8440 C.3    62  LEU62       0.0270
     51  CG         3.4650   89.4470   44.0490 C.3    62  LEU62       0.0019
     52  CD1        4.0580   88.7790   42.8230 C.3    62  LEU62       0.0001
     53  CD2        4.2030   90.7350   44.3600 C.3    62  LEU62       0.0001
     54  N         -3.2560   92.5530   42.4450 N.3    64  ALA64      -0.1231
     55  CA        -3.7300   92.6300   41.0700 C.3    64  ALA64       0.1694
     56  C         -3.2950   93.9360   40.4160 C.2    64  ALA64       0.2591
     57  O         -2.8130   94.8460   41.0880 O.2    64  ALA64      -0.2718
     58  CB        -5.2400   92.5020   41.0270 C.3    64  ALA64       0.0304
     59  N         -3.4040   93.9880   39.0910 N.am   65  GLU65      -0.1979
     60  CA        -2.9600   95.1410   38.3040 C.3    65  GLU65       0.1602
     61  C         -1.4740   95.4470   38.5240 C.2    65  GLU65       0.2287
     62  O         -1.1130   96.2560   39.3830 O.2    65  GLU65      -0.2864
     63  CB        -3.8130   96.3680   38.6250 C.3    65  GLU65       0.0415
     64  CG        -5.2620   96.2520   38.1800 C.3    65  GLU65       0.1163
     65  CD        -5.9890   97.5840   38.2260 C.2    65  GLU65       0.3649
     66  OE1       -5.3650   98.5870   38.6300 O.co2  65  GLU65      -0.2457
     67  OE2       -7.1890   97.6280   37.8780 O.co2  65  GLU65      -0.2457
     68  N         -2.0770   83.9600   38.9050 N.3    91  GLY91      -0.1210
     69  CA        -2.8280   84.3180   37.7170 C.3    91  GLY91       0.1956
     70  C         -2.0100   85.1820   36.7810 C.2    91  GLY91       0.2612
     71  O         -0.7910   85.3120   36.9390 O.2    91  GLY91      -0.2717
     72  N         -2.7020   85.8420   35.8550 N.am   92  GLY92      -0.1942
     73  CA        -2.0520   86.6020   34.8010 C.3    92  GLY92       0.2014
     74  C         -1.1400   87.6610   35.3740 C.2    92  GLY92       0.2639
     75  O          0.0160   87.7860   34.9630 O.2    92  GLY92      -0.2714
     76  N         -1.6240   88.3520   36.3990 N.am   93  SER93      -0.1949
     77  CA        -0.9360   89.5240   36.9200 C.3    93  SER93       0.1924
     78  C          0.3330   89.1500   37.6910 C.2    93  SER93       0.2314
     79  O          1.3130   89.8910   37.6700 O.2    93  SER93      -0.2863
     80  CB        -1.8720   90.3270   37.8190 C.3    93  SER93       0.2116
     81  OG        -2.0650   89.6580   39.0500 O.3    93  SER93      -0.2180
     82  N         -2.6400   79.6870   37.6200 N.3   139  SER139     -0.1202
     83  CA        -3.5640   79.1790   38.6210 C.3   139  SER139      0.2020
     84  C         -4.9960   79.5810   38.2870 C.2   139  SER139      0.2619
     85  O         -5.9350   79.2110   38.9930 O.2   139  SER139     -0.2717
     86  CB        -3.1830   79.7100   40.0060 C.3   139  SER139      0.2103
     87  OG        -3.2190   81.1250   40.0300 O.3   139  SER139     -0.2182
     88  N         -5.1420   80.3970   37.2490 N.am  140  THR140     -0.1952
     89  CA        -6.4400   80.6620   36.6350 C.3   140  THR140      0.1897
     90  C         -6.5130   80.0290   35.2420 C.2   140  THR140      0.2313
     91  O         -5.5380   79.4480   34.7580 O.2   140  THR140     -0.2863
     92  CB        -6.6690   82.1740   36.4970 C.3   140  THR140      0.1794
     93  OG1       -5.5220   82.7700   35.8810 O.3   140  THR140     -0.2208
     94  CG2       -6.8930   82.8050   37.8610 C.3   140  THR140      0.0378
     95  N         -5.3630   83.5580   31.3800 N.3   143  ALA143     -0.1245
     96  CA        -4.9900   84.8080   30.7170 C.3   143  ALA143      0.1562
     97  C         -4.1690   84.5580   29.4520 C.2   143  ALA143      0.2260
     98  O         -3.9910   85.4600   28.6390 O.2   143  ALA143     -0.2867
     99  CB        -4.2090   85.6940   31.6800 C.3   143  ALA143      0.0290
    100  N         -4.4530   73.3950   40.6990 N.3   178  LEU178     -0.1245
    101  CA        -4.3380   74.7830   41.1260 C.3   178  LEU178      0.1561
    102  C         -5.6090   75.5840   40.8280 C.2   178  LEU178      0.2260
    103  O         -6.0630   76.3570   41.6670 O.2   178  LEU178     -0.2867
    104  CB        -3.1260   75.4480   40.4700 C.3   178  LEU178      0.0270
    105  CG        -1.8070   75.2900   41.2320 C.3   178  LEU178      0.0019
    106  CD1       -1.4140   73.8240   41.3270 C.3   178  LEU178      0.0001
    107  CD2       -0.6970   76.1000   40.5750 C.3   178  LEU178      0.0001
    108  N         -9.1000   75.3770   42.7620 N.3   181  THR181     -0.1203
    109  CA        -9.3290   76.2380   43.9130 C.3   181  THR181      0.1994
    110  C         -9.9250   77.5910   43.5380 C.2   181  THR181      0.2618
    111  O        -10.2140   78.4000   44.4140 O.2   181  THR181     -0.2717
    112  CB        -8.0330   76.4800   44.7020 C.3   181  THR181      0.1784
    113  OG1       -7.1580   77.3290   43.9520 O.3   181  THR181     -0.2211
    114  CG2       -7.3380   75.1580   45.0220 C.3   181  THR181      0.0376
    115  N        -10.0940   77.8490   42.2450 N.am  182  MET182     -0.1965
    116  CA       -10.8040   79.0480   41.8000 C.3   182  MET182      0.1721
    117  C        -12.2210   79.0480   42.3630 C.2   182  MET182      0.2458
    118  O        -12.9410   78.0540   42.2520 O.2   182  MET182     -0.2730
    119  CB       -10.8740   79.1010   40.2720 C.3   182  MET182      0.0427
    120  CG        -9.7370   79.8580   39.6020 C.3   182  MET182      0.0599
    121  SD       -10.0500   80.1590   37.8480 S.3   182  MET182     -0.1393
    122  CE       -10.0490   78.4830   37.2160 C.3   182  MET182      0.0692
    123  N        -12.6460   80.1830   42.9300 N.am  183  PRO183     -0.2727
    124  CA       -14.0670   80.3870   43.1750 C.3   183  PRO183      0.1402
    125  C        -14.8270   80.6150   41.8780 C.2   183  PRO183      0.2269
    126  O        -14.2450   81.0910   40.9060 O.2   183  PRO183     -0.2865
    127  CB       -14.0970   81.6430   44.0490 C.3   183  PRO183      0.0296
    128  CG       -12.8470   82.3750   43.7120 C.3   183  PRO183      0.0237
    129  CD       -11.8290   81.3270   43.3720 C.3   183  PRO183      0.0939
    130  N        -14.4560   83.5830   39.4600 N.3   186  VAL186     -0.1245
    131  CA       -13.1620   83.7240   38.8010 C.3   186  VAL186      0.1561
    132  C        -12.9890   82.6540   37.7210 C.2   186  VAL186      0.2260
    133  O        -12.4870   82.9390   36.6310 O.2   186  VAL186     -0.2867
    134  CB       -12.0020   83.6380   39.8130 C.3   186  VAL186      0.0252
    135  CG1      -10.6660   83.5480   39.0940 C.3   186  VAL186      0.0019
    136  CG2      -12.0230   84.8440   40.7350 C.3   186  VAL186      0.0019
    137  N        -12.4810   84.2860   33.8550 N.3   190  SER190     -0.1217
    138  CA       -11.2780   83.9110   33.1310 C.3   190  SER190      0.1889
    139  C        -11.6020   82.9100   32.0190 C.2   190  SER190      0.2288
    140  O        -11.0160   82.9630   30.9390 O.2   190  SER190     -0.2866
    141  CB       -10.2180   83.3530   34.0900 C.3   190  SER190      0.2089
    142  OG       -10.5800   82.0740   34.5720 O.3   190  SER190     -0.2183
    143  N        -12.6820   84.9060   29.1000 N.3   193  ASP193     -0.1239
    144  CA       -11.4480   85.4490   28.5360 C.3   193  ASP193      0.1674
    145  C        -10.9150   84.5240   27.4450 C.2   193  ASP193      0.2266
    146  O        -10.5810   84.9740   26.3500 O.2   193  ASP193     -0.2867
    147  CB       -10.3910   85.6150   29.6370 C.3   193  ASP193      0.1410
    148  CG        -9.7540   86.9940   29.6410 C.2   193  ASP193      0.3668
    149  OD1      -10.1080   87.8240   28.7750 O.co2 193  ASP193     -0.2456
    150  OD2       -8.8900   87.2430   30.5130 O.co2 193  ASP193     -0.2456
@<TRIPOS>BOND
     1   146   145    2
     2   145   144    1
     3   144   143    1
     4   144   147    1
     5    98    97    2
     6   149   148   ar
     7    97    96    1
     8   147   148    1
     9   148   150   ar
    10    96    95    1
    11    96    99    1
    12   140   139    2
    13   139   138    1
    14   138   137    1
    15   138   141    1
    16   141   142    1
    17    91    90    2
    18    73    74    1
    19    73    72    1
    20    75    74    2
    21    90    89    1
    22    74    76   am
    23    72    70   am
    24    93    92    1
    25    76    77    1
    26    92    89    1
    27    92    94    1
    28   133   132    2
    29    89    88    1
    30    70    71    2
    31    70    69    1
    32    77    78    1
    33    77    80    1
    34   122   121    1
    35    88    84   am
    36    82    83    1
    37    79    78    2
    38    69    68    1
    39   132   131    1
    40    80    81    1
    41   121   120    1
    42    67    65   ar
    43    64    65    1
    44    64    63    1
    45    65    66   ar
    46    84    83    1
    47    84    85    2
    48    60    61    1
    49    60    63    1
    50    60    59    1
    51    61    62    2
    52    83    86    1
    53   131   130    1
    54   131   134    1
    55    59    56   am
    56   135   134    1
    57   120   119    1
    58   134   136    1
    59    86    87    1
    60   119   116    1
    61    56    55    1
    62    56    57    2
    63   104   101    1
    64   104   105    1
    65   107   105    1
    66   100   101    1
    67   102   101    1
    68   102   103    2
    69   126   125    2
    70    58    55    1
    71    55    54    1
    72   105   106    1
    73   116   115    1
    74   116   117    1
    75   125   124    1
    76   115   110   am
    77   118   117    2
    78   117   123   am
    79   108   109    1
    80    52    51    1
    81   123   124    1
    82   123   129    1
    83   124   127    1
    84    23    24    1
    85    23    22    1
    86   129   128    1
    87   110   109    1
    88   110   111    2
    89     5     6    1
    90     5     2    1
    91   128   127    1
    92    22    21    1
    93    50    51    1
    94    50    47    1
    95   109   112    1
    96   113   112    1
    97    51    53    1
    98     1     2    1
    99    49    48    2
   100     2     3    1
   101    48    47    1
   102   112   114    1
   103    16    15    1
   104    47    46    1
   105    21    18    1
   106     3     4    2
   107     3     7   am
   108    15    12    1
   109    18    17    1
   110    18    19    1
   111    17    13   am
   112     7     8    1
   113    13    12    1
   114    13    14    2
   115    11    12    1
   116    11     9   am
   117    19    20    2
   118     8     9    1
   119    42    44   ar
   120    42    41   ar
   121     9    10    2
   122    44    45   ar
   123    40    41    1
   124    40    37    1
   125    41    43   ar
   126    45    43   ar
   127    34    33    1
   128    39    38    2
   129    38    37    1
   130    37    36    1
   131    35    33    1
   132    36    27   am
   133    33    32    2
   134    25    26    1
   135    29    26    1
   136    29    30    1
   137    27    26    1
   138    27    28    2
   139    32    31    1
   140    31    30    1
