@<TRIPOS>MOLECULE
tmp/6c7bA01.pdb
 78 75 0 0 0
SMALL
GASTEIGER

@<TRIPOS>ATOM
      1  N         56.5430   84.7140   55.8610 N.3    57  ASP57      -0.1239
      2  CA        57.5680   83.6760   55.8930 C.3    57  ASP57       0.1674
      3  C         58.8690   84.2020   56.4720 C.2    57  ASP57       0.2266
      4  O         59.5280   83.5120   57.2510 O.2    57  ASP57      -0.2867
      5  CB        57.7960   83.1310   54.4800 C.3    57  ASP57       0.1410
      6  CG        56.6540   82.2370   54.0050 C.2    57  ASP57       0.3668
      7  OD1       55.5600   82.3050   54.6140 O.co2  57  ASP57      -0.2456
      8  OD2       56.8560   81.4420   53.0510 O.co2  57  ASP57      -0.2456
      9  N         58.3100   84.4090   60.2670 N.3    60  GLN60      -0.1231
     10  CA        58.2720   83.1210   60.9520 C.3    60  GLN60       0.1698
     11  C         59.6590   82.4920   61.0600 C.2    60  GLN60       0.2592
     12  O         59.9360   81.7660   62.0270 O.2    60  GLN60      -0.2718
     13  CB        57.3090   82.1700   60.2500 C.3    60  GLN60       0.0381
     14  CG        57.0280   80.9330   61.0720 C.3    60  GLN60       0.0905
     15  CD        56.5580   81.2810   62.4780 C.2    60  GLN60       0.2608
     16  OE1       55.4850   81.8420   62.6510 O.2    60  GLN60      -0.2717
     17  NE2       57.3620   80.9510   63.4830 N.am   60  GLN60      -0.0878
     18  N         60.5460   82.7650   60.0930 N.am   61  ALA61      -0.1980
     19  CA        61.8910   82.1930   60.1430 C.3    61  ALA61       0.1597
     20  C         62.7540   82.8920   61.1830 C.2    61  ALA61       0.2287
     21  O         63.5230   82.2400   61.8900 O.2    61  ALA61      -0.2864
     22  CB        62.5570   82.2630   58.7730 C.3    61  ALA61       0.0319
     23  N         61.5300   81.4490   64.4610 N.3    64  ASP64      -0.1239
     24  CA        62.1300   80.1140   64.5480 C.3    64  ASP64       0.1674
     25  C         63.5820   80.1790   65.0220 C.2    64  ASP64       0.2266
     26  O         63.9880   79.4590   65.9390 O.2    64  ASP64      -0.2867
     27  CB        62.0830   79.4230   63.1820 C.3    64  ASP64       0.1410
     28  CG        60.7540   78.7630   62.8910 C.2    64  ASP64       0.3668
     29  OD1       60.6880   77.9890   61.9040 O.co2  64  ASP64      -0.2456
     30  OD2       59.7780   79.0160   63.6260 O.co2  64  ASP64      -0.2456
     31  N         51.7420   77.1890   65.7810 N.3   454  HIS454     -0.1241
     32  CA        52.7390   77.2280   64.7190 C.3   454  HIS454      0.1621
     33  C         53.8000   78.2860   64.9740 C.2   454  HIS454      0.2264
     34  O         54.9930   78.0470   64.7370 O.2   454  HIS454     -0.2867
     35  CB        52.0990   77.4780   63.3570 C.3   454  HIS454      0.0745
     36  CG        53.0690   77.2720   62.2410 C.ar  454  HIS454      0.0817
     37  ND1       53.3610   76.0210   61.7300 N.ar  454  HIS454     -0.2268
     38  CD2       53.8810   78.1440   61.5970 C.ar  454  HIS454      0.1154
     39  CE1       54.2840   76.1410   60.7910 C.ar  454  HIS454      0.1986
     40  NE2       54.6160   77.4180   60.6900 N.ar  454  HIS454     -0.2212
     41  N         54.7920   71.0450   60.3600 N.3   686  ALA686     -0.1231
     42  CA        55.7120   72.0930   60.7720 C.3   686  ALA686      0.1694
     43  C         56.2270   72.8980   59.5870 C.2   686  ALA686      0.2592
     44  O         56.6840   74.0270   59.7730 O.2   686  ALA686     -0.2718
     45  CB        56.8670   71.4840   61.5550 C.3   686  ALA686      0.0304
     46  N         56.1440   72.3530   58.3760 N.am  687  GLN687     -0.1966
     47  CA        56.6410   73.0280   57.1880 C.3   687  GLN687      0.1733
     48  C         55.5510   73.7670   56.4110 C.2   687  GLN687      0.2616
     49  O         55.8740   74.4750   55.4550 O.2   687  GLN687     -0.2715
     50  CB        57.3560   72.0230   56.2680 C.3   687  GLN687      0.0408
     51  CG        58.7120   71.5390   56.7980 C.3   687  GLN687      0.0908
     52  CD        59.6560   72.6920   57.1270 C.2   687  GLN687      0.2608
     53  OE1       59.8240   73.6190   56.3300 O.2   687  GLN687     -0.2717
     54  NE2       60.2750   72.6400   58.3100 N.am  687  GLN687     -0.0878
     55  N         54.2800   73.6450   56.8010 N.am  688  GLN688     -0.1964
     56  CA        53.2270   74.3780   56.0880 C.3   688  GLN688      0.1718
     57  C         53.1940   75.8390   56.5410 C.2   688  GLN688      0.2458
     58  O         53.4300   76.1290   57.7200 O.2   688  GLN688     -0.2730
     59  CB        51.8630   73.7400   56.3230 C.3   688  GLN688      0.0407
     60  CG        51.8430   72.2740   55.9950 C.3   688  GLN688      0.0908
     61  CD        52.3290   72.0160   54.5800 C.2   688  GLN688      0.2608
     62  OE1       53.2710   71.2680   54.3690 O.2   688  GLN688     -0.2717
     63  NE2       51.6810   72.6260   53.6150 N.am  688  GLN688     -0.0878
     64  N         52.8950   76.7710   55.6350 N.am  689  PRO689     -0.2716
     65  CA        53.0080   78.1950   55.9850 C.3   689  PRO689      0.1536
     66  C         51.9930   78.5480   57.0550 C.2   689  PRO689      0.2598
     67  O         50.7860   78.3860   56.8640 O.2   689  PRO689     -0.2715
     68  CB        52.7190   78.9200   54.6620 C.3   689  PRO689      0.0310
     69  CG        52.5740   77.8310   53.6060 C.3   689  PRO689      0.0237
     70  CD        52.2360   76.5740   54.3280 C.3   689  PRO689      0.0939
     71  N         52.5000   78.9950   58.2030 N.am  690  ASN690     -0.1973
     72  CA        51.6780   79.3630   59.3480 C.3   690  ASN690      0.1688
     73  C         50.8030   78.2140   59.8010 C.2   690  ASN690      0.2292
     74  O         49.7950   78.4280   60.4790 O.2   690  ASN690     -0.2864
     75  CB        50.8360   80.6030   59.0370 C.3   690  ASN690      0.1181
     76  CG        51.6950   81.8280   58.7760 C.2   690  ASN690      0.2629
     77  OD1       52.3650   82.3460   59.6820 O.2   690  ASN690     -0.2716
     78  ND2       51.6910   82.2910   57.5390 N.am  690  ASN690     -0.0877
@<TRIPOS>BOND
     1     8     6   ar
     2    69    70    1
     3    69    68    1
     4    63    61   am
     5     6     5    1
     6     6     7   ar
     7    70    64    1
     8    62    61    2
     9     5     2    1
    10    61    60    1
    11    68    65    1
    12    49    48    2
    13    64    65    1
    14    64    57   am
    15     1     2    1
    16     2     3    1
    17    65    66    1
    18    60    59    1
    19    56    59    1
    20    56    57    1
    21    56    55    1
    22    50    51    1
    23    50    47    1
    24    53    52    2
    25    48    55   am
    26    48    47    1
    27     3     4    2
    28    57    58    2
    29    51    52    1
    30    67    66    2
    31    66    71   am
    32    52    54   am
    33    47    46    1
    34    78    76   am
    35    71    72    1
    36    46    43   am
    37    22    19    1
    38    76    75    1
    39    76    77    2
    40    75    72    1
    41    72    73    1
    42    43    44    2
    43    43    42    1
    44    73    74    2
    45    18    19    1
    46    18    11   am
    47    19    20    1
    48    13    10    1
    49    13    14    1
    50     9    10    1
    51    41    42    1
    52    40    39   ar
    53    40    38   ar
    54    42    45    1
    55    39    37   ar
    56    10    11    1
    57    11    12    2
    58    14    15    1
    59    20    21    2
    60    38    36   ar
    61    37    36   ar
    62    29    28   ar
    63    36    35    1
    64    15    16    2
    65    15    17   am
    66    28    27    1
    67    28    30   ar
    68    27    24    1
    69    35    32    1
    70    23    24    1
    71    24    25    1
    72    32    33    1
    73    32    31    1
    74    34    33    2
    75    25    26    2
