@<TRIPOS>MOLECULE
tmp/6c7dA00.pdb
 232 221 0 0 0
SMALL
GASTEIGER

@<TRIPOS>ATOM
      1  N          9.3160   -5.7790    4.5140 N.3    80  TYR80      -0.1227
      2  CA         8.0400   -5.0680    4.4080 C.3    80  TYR80       0.1736
      3  C          7.2990   -5.2920    3.0860 C.2    80  TYR80       0.2595
      4  O          6.1060   -5.5870    3.1000 O.2    80  TYR80      -0.2718
      5  CB         8.2340   -3.5670    4.6190 C.3    80  TYR80       0.0548
      6  CG         6.9210   -2.8050    4.5670 C.ar   80  TYR80      -0.0200
      7  CD1        6.0090   -2.8700    5.6240 C.ar   80  TYR80      -0.0009
      8  CD2        6.5710   -2.0560    3.4460 C.ar   80  TYR80      -0.0009
      9  CE1        4.8000   -2.1860    5.5680 C.ar   80  TYR80       0.0417
     10  CE2        5.3740   -1.3680    3.3860 C.ar   80  TYR80       0.0417
     11  CZ         4.4920   -1.4350    4.4480 C.ar   80  TYR80       0.1957
     12  OH         3.2990   -0.7460    4.3930 O.3    80  TYR80      -0.2866
     13  N          7.9960   -5.1640    1.9500 N.am   81  HIS81      -0.1975
     14  CA         7.3130   -5.1700    0.6450 C.3    81  HIS81       0.1656
     15  C          7.1540   -6.5770    0.0970 C.2    81  HIS81       0.2291
     16  O          7.7420   -6.9600   -0.9210 O.2    81  HIS81      -0.2864
     17  CB         8.0470   -4.2750   -0.3610 C.3    81  HIS81       0.0771
     18  CG         7.8710   -2.8060   -0.1030 C.ar   81  HIS81       0.0820
     19  ND1        8.8640   -2.0190    0.4500 N.ar   81  HIS81      -0.2267
     20  CD2        6.8020   -1.9900   -0.2830 C.ar   81  HIS81       0.1154
     21  CE1        8.4280   -0.7750    0.5560 C.ar   81  HIS81       0.1986
     22  NE2        7.1740   -0.7340    0.1290 N.ar   81  HIS81      -0.2212
     23  N          2.0050   -7.4230    2.7010 N.3    85  HIS85      -0.1241
     24  CA         1.7510   -6.0060    2.5110 C.3    85  HIS85       0.1621
     25  C          0.6870   -5.7740    1.4200 C.2    85  HIS85       0.2264
     26  O         -0.3040   -5.0510    1.6110 O.2    85  HIS85      -0.2867
     27  CB         3.0390   -5.2920    2.1180 C.3    85  HIS85       0.0745
     28  CG         2.8180   -3.8980    1.6190 C.ar   85  HIS85       0.0817
     29  ND1        2.1900   -2.9320    2.3740 N.ar   85  HIS85      -0.2268
     30  CD2        3.1430   -3.3080    0.4430 C.ar   85  HIS85       0.1154
     31  CE1        2.1580   -1.7990    1.6960 C.ar   85  HIS85       0.1986
     32  NE2        2.7180   -2.0030    0.5170 N.ar   85  HIS85      -0.2212
     33  N          3.0370   -3.5900   -5.7500 N.3   122  ASP122     -0.1239
     34  CA         4.4430   -3.6640   -5.3290 C.3   122  ASP122      0.1674
     35  C          5.1090   -4.9310   -5.8580 C.2   122  ASP122      0.2266
     36  O          6.1420   -5.3930   -5.3350 O.2   122  ASP122     -0.2867
     37  CB         4.5550   -3.5910   -3.7980 C.3   122  ASP122      0.1410
     38  CG         4.7630   -2.1700   -3.2760 C.2   122  ASP122      0.3668
     39  OD1        5.4040   -1.3270   -3.9660 O.co2 122  ASP122     -0.2456
     40  OD2        4.3360   -1.8990   -2.1260 O.co2 122  ASP122     -0.2456
     41  N          8.9760   -6.4450   -5.7360 N.3   125  HIS125     -0.1241
     42  CA         9.7760   -5.4760   -4.9820 C.3   125  HIS125      0.1621
     43  C         11.0010   -6.1710   -4.3960 C.2   125  HIS125      0.2264
     44  O         10.8890   -7.2700   -3.8720 O.2   125  HIS125     -0.2867
     45  CB         8.9430   -4.8410   -3.8550 C.3   125  HIS125      0.0745
     46  CG         9.4210   -3.4850   -3.4380 C.ar  125  HIS125      0.0817
     47  ND1       10.5440   -3.3000   -2.6620 N.ar  125  HIS125     -0.2268
     48  CD2        8.8950   -2.2510   -3.6450 C.ar  125  HIS125      0.1154
     49  CE1       10.7060   -2.0070   -2.4280 C.ar  125  HIS125      0.1986
     50  NE2        9.7200   -1.3480   -3.0150 N.ar  125  HIS125     -0.2212
     51  N         14.5450    1.1790   -2.9140 N.3   129  ASN129     -0.1240
     52  CA        13.7120    2.2360   -3.4800 C.3   129  ASN129      0.1653
     53  C         14.1940    2.6720   -4.8620 C.2   129  ASN129      0.2266
     54  O         15.0970    2.0490   -5.4420 O.2   129  ASN129     -0.2867
     55  CB        13.6260    3.4470   -2.5280 C.3   129  ASN129      0.1155
     56  CG        14.9490    4.1530   -2.3300 C.2   129  ASN129      0.2627
     57  OD1       15.9480    3.8930   -3.0180 O.2   129  ASN129     -0.2716
     58  ND2       14.9580    5.0890   -1.3890 N.am  129  ASN129     -0.0877
     59  N          7.8010    1.5000   -9.6070 N.3   152  GLU152     -0.1245
     60  CA         6.3570    1.4480   -9.8640 C.3   152  GLU152      0.1567
     61  C          6.1040    1.1000  -11.3390 C.2   152  GLU152      0.2260
     62  O          5.1700    0.3740  -11.6500 O.2   152  GLU152     -0.2867
     63  CB         5.6870    2.7640   -9.4790 C.3   152  GLU152      0.0388
     64  CG         5.7420    3.0730   -7.9480 C.3   152  GLU152      0.1160
     65  CD         7.0820    3.5770   -7.4460 C.2   152  GLU152      0.3649
     66  OE1        7.8960    4.1130   -8.2450 O.co2 152  GLU152     -0.2457
     67  OE2        7.3200    3.4290   -6.2200 O.co2 152  GLU152     -0.2457
     68  N          1.4170    5.1890   -6.6300 N.3   193  THR193     -0.1203
     69  CA         2.0000    4.7140   -5.3500 C.3   193  THR193      0.1994
     70  C          3.4250    5.2320   -5.0980 C.2   193  THR193      0.2618
     71  O          4.0050    4.9920   -4.0250 O.2   193  THR193     -0.2717
     72  CB         2.0510    3.1760   -5.2530 C.3   193  THR193      0.1784
     73  OG1        2.8520    2.6450   -6.3170 O.3   193  THR193     -0.2211
     74  CG2        0.6470    2.5580   -5.2970 C.3   193  THR193      0.0376
     75  N          4.0020    5.8980   -6.0980 N.am  194  ASP194     -0.1959
     76  CA         5.2660    6.6190   -5.9060 C.3   194  ASP194      0.1840
     77  C          4.9600    7.8430   -5.0560 C.2   194  ASP194      0.2622
     78  O          4.1810    8.6950   -5.4740 O.2   194  ASP194     -0.2715
     79  CB         5.8790    7.0330   -7.2560 C.3   194  ASP194      0.1450
     80  CG         7.2610    7.6760   -7.1090 C.2   194  ASP194      0.3671
     81  OD1        7.7010    7.9230   -5.9590 O.co2 194  ASP194     -0.2456
     82  OD2        7.8970    7.9470   -8.1550 O.co2 194  ASP194     -0.2456
     83  N          5.5220    7.9200   -3.8520 N.am  195  LEU195     -0.1963
     84  CA         5.2150    9.0510   -2.9820 C.3   195  LEU195      0.1728
     85  C          5.6380   10.3980   -3.5990 C.2   195  LEU195      0.2616
     86  O          5.0550   11.4280   -3.2800 O.2   195  LEU195     -0.2715
     87  CB         5.8850    8.8710   -1.6070 C.3   195  LEU195      0.0311
     88  CG         5.2230    7.8330   -0.6990 C.3   195  LEU195      0.0022
     89  CD1        6.0420    7.6520    0.5870 C.3   195  LEU195      0.0001
     90  CD2        3.7600    8.2000   -0.3720 C.3   195  LEU195      0.0001
     91  N          6.6620   10.3860   -4.4540 N.am  196  ALA196     -0.1977
     92  CA         7.0850   11.5970   -5.1600 C.3   196  ALA196      0.1597
     93  C          5.8990   12.1600   -5.9230 C.2   196  ALA196      0.2287
     94  O          5.6890   13.3740   -5.9730 O.2   196  ALA196     -0.2864
     95  CB         8.2460   11.3060   -6.1260 C.3   196  ALA196      0.0319
     96  N          3.2530   13.6190   -3.5240 N.3   199  LEU199     -0.1245
     97  CA         3.7010   14.9160   -3.0420 C.3   199  LEU199      0.1561
     98  C          3.5550   15.9720   -4.1350 C.2   199  LEU199      0.2260
     99  O          3.2750   17.1310   -3.8400 O.2   199  LEU199     -0.2867
    100  CB         5.1500   14.8310   -2.5490 C.3   199  LEU199      0.0270
    101  CG         5.3400   14.1090   -1.2050 C.3   199  LEU199      0.0019
    102  CD1        6.8100   13.8060   -0.9310 C.3   199  LEU199      0.0001
    103  CD2        4.7560   14.9290   -0.0570 C.3   199  LEU199      0.0001
    104  N         -2.1220    2.1450    0.6420 N.3   233  ASP233     -0.1225
    105  CA        -0.7010    1.8430    0.7630 C.3   233  ASP233      0.1805
    106  C         -0.2050    2.0840    2.1950 C.2   233  ASP233      0.2597
    107  O          0.6460    1.3470    2.7030 O.2   233  ASP233     -0.2718
    108  CB         0.1030    2.7090   -0.2160 C.3   233  ASP233      0.1424
    109  CG         1.3080    1.9960   -0.7940 C.2   233  ASP233      0.3668
    110  OD1        1.5890    0.8550   -0.4020 O.co2 233  ASP233     -0.2456
    111  OD2        1.9840    2.5980   -1.6700 O.co2 233  ASP233     -0.2456
    112  N         -0.7200    3.1330    2.8170 N.am  234  LEU234     -0.1979
    113  CA        -0.2480    3.5430    4.1500 C.3   234  LEU234      0.1596
    114  C         -1.1810    3.0800    5.2700 C.2   234  LEU234      0.2287
    115  O         -1.0650    3.5120    6.4220 O.2   234  LEU234     -0.2864
    116  CB        -0.1000    5.0590    4.2150 C.3   234  LEU234      0.0297
    117  CG         0.6610    5.7560    3.0820 C.3   234  LEU234      0.0022
    118  CD1        0.8310    7.2380    3.3720 C.3   234  LEU234      0.0001
    119  CD2        2.0050    5.1210    2.7880 C.3   234  LEU234      0.0001
    120  N         -1.4940    0.6560    7.1590 N.3   236  ASP236     -0.1225
    121  CA        -0.9880    0.1170    8.4400 C.3   236  ASP236      0.1805
    122  C         -0.9720    1.1690    9.5390 C.2   236  ASP236      0.2597
    123  O         -0.9380    0.8140   10.7040 O.2   236  ASP236     -0.2718
    124  CB         0.4290   -0.4460    8.3280 C.3   236  ASP236      0.1424
    125  CG         0.5030   -1.7160    7.4980 C.2   236  ASP236      0.3668
    126  OD1       -0.2900   -2.6510    7.7400 O.co2 236  ASP236     -0.2456
    127  OD2        1.3810   -1.7770    6.6040 O.co2 236  ASP236     -0.2456
    128  N         -0.9900    2.4500    9.1740 N.am  237  GLN237     -0.1979
    129  CA        -0.9440    3.5150   10.1650 C.3   237  GLN237      0.1601
    130  C         -2.3070    3.7740   10.8140 C.2   237  GLN237      0.2287
    131  O         -2.4050    4.5540   11.7610 O.2   237  GLN237     -0.2864
    132  CB        -0.4200    4.8110    9.5320 C.3   237  GLN237      0.0394
    133  CG         0.9780    4.6780    8.9250 C.3   237  GLN237      0.0908
    134  CD         1.9670    4.0930    9.9030 C.2   237  GLN237      0.2608
    135  OE1        2.1180    4.5900   11.0160 O.2   237  GLN237     -0.2717
    136  NE2        2.6300    3.0070    9.5020 N.am  237  GLN237     -0.0878
    137  N          5.2660   -2.4870   11.9470 N.3   247  ILE247     -0.1231
    138  CA         5.4990   -2.0740   10.5750 C.3   247  ILE247      0.1692
    139  C          6.6790   -1.0970   10.5260 C.2   247  ILE247      0.2591
    140  O          7.4500   -1.0940    9.5470 O.2   247  ILE247     -0.2718
    141  CB         4.2270   -1.4650    9.9440 C.3   247  ILE247      0.0266
    142  CG1        3.3790   -2.5660    9.2880 C.3   247  ILE247      0.0019
    143  CG2        4.5800   -0.4640    8.8310 C.3   247  ILE247      0.0020
    144  CD1        3.1010   -3.7920   10.1330 C.3   247  ILE247      0.0001
    145  N          6.8700   -0.2990   11.5780 N.am  248  ALA248     -0.1980
    146  CA         8.0590    0.5520   11.6140 C.3   248  ALA248      0.1597
    147  C          9.2840   -0.3420   11.6460 C.2   248  ALA248      0.2287
    148  O         10.2750   -0.0690   10.9820 O.2   248  ALA248     -0.2864
    149  CB         8.0500    1.4950   12.8200 C.3   248  ALA248      0.0319
    150  N          9.7970   -1.8450    8.1330 N.3   251  ILE251     -0.1231
    151  CA        10.2520   -0.7850    7.2480 C.3   251  ILE251      0.1692
    152  C         11.7330   -0.4710    7.4580 C.2   251  ILE251      0.2592
    153  O         12.5080   -0.4540    6.5040 O.2   251  ILE251     -0.2718
    154  CB         9.4240    0.4990    7.4480 C.3   251  ILE251      0.0266
    155  CG1        8.0280    0.3480    6.8080 C.3   251  ILE251      0.0019
    156  CG2       10.1330    1.6990    6.8360 C.3   251  ILE251      0.0020
    157  CD1        8.0080    0.5560    5.3350 C.3   251  ILE251      0.0001
    158  N         12.1410   -0.2460    8.7020 N.am  252  TYR252     -0.1976
    159  CA        13.5230    0.1640    8.9190 C.3   252  TYR252      0.1639
    160  C         14.4770   -1.0130    8.7330 C.2   252  TYR252      0.2290
    161  O         15.6110   -0.8060    8.3020 O.2   252  TYR252     -0.2864
    162  CB        13.6770    0.8620   10.2880 C.3   252  TYR252      0.0560
    163  CG        13.0100    2.2180   10.1950 C.ar  252  TYR252     -0.0198
    164  CD1       13.6020    3.2420    9.4610 C.ar  252  TYR252     -0.0009
    165  CD2       11.7580    2.4460   10.7450 C.ar  252  TYR252     -0.0009
    166  CE1       12.9870    4.4660    9.3140 C.ar  252  TYR252      0.0417
    167  CE2       11.1300    3.6710   10.6080 C.ar  252  TYR252      0.0417
    168  CZ        11.7410    4.6730    9.8810 C.ar  252  TYR252      0.1957
    169  OH        11.1300    5.8960    9.7410 O.3   252  TYR252     -0.2866
    170  N         14.9100   -0.5840    5.0930 N.3   255  PHE255     -0.1241
    171  CA        15.7040    0.6330    4.8230 C.3   255  PHE255      0.1605
    172  C         17.1990    0.4690    5.1580 C.2   255  PHE255      0.2264
    173  O         18.0780    0.7820    4.3460 O.2   255  PHE255     -0.2867
    174  CB        15.1550    1.8340    5.6110 C.3   255  PHE255      0.0534
    175  CG        13.8770    2.4180    5.0520 C.ar  255  PHE255     -0.0203
    176  CD1       13.2580    1.8600    3.9420 C.ar  255  PHE255     -0.0042
    177  CD2       13.3100    3.5450    5.6330 C.ar  255  PHE255     -0.0042
    178  CE1       12.0780    2.3980    3.4330 C.ar  255  PHE255     -0.0003
    179  CE2       12.1330    4.0930    5.1230 C.ar  255  PHE255     -0.0003
    180  CZ        11.5220    3.5160    4.0190 C.ar  255  PHE255     -0.0000
    181  N         20.7490    7.9940    2.5780 N.3   270  MET270     -0.1245
    182  CA        19.9510    8.9920    3.2710 C.3   270  MET270      0.1570
    183  C         20.0050    8.6590    4.7490 C.2   270  MET270      0.2261
    184  O         20.1500    7.4890    5.1200 O.2   270  MET270     -0.2867
    185  CB        18.4910    9.0040    2.8120 C.3   270  MET270      0.0387
    186  CG        18.2450    8.8230    1.3360 C.3   270  MET270      0.0595
    187  SD        16.4880    8.5020    1.0580 S.3   270  MET270     -0.1393
    188  CE        15.7700   10.0020    1.7200 C.3   270  MET270      0.0692
    189  N         17.6430    8.3670    6.8780 N.3   272  MET272     -0.1245
    190  CA        16.6500    7.3830    7.2930 C.3   272  MET272      0.1570
    191  C         17.0200    5.9650    6.8570 C.2   272  MET272      0.2261
    192  O         16.3920    5.0030    7.3090 O.2   272  MET272     -0.2867
    193  CB        15.2670    7.7570    6.7570 C.3   272  MET272      0.0387
    194  CG        15.0940    7.5710    5.2280 C.3   272  MET272      0.0595
    195  SD        13.3620    7.7770    4.7220 S.3   272  MET272     -0.1393
    196  CE        13.0860    9.4930    5.1670 C.3   272  MET272      0.0692
    197  N         11.8730   10.0900   12.9330 N.3   283  LEU283     -0.1231
    198  CA        11.6450    9.7720   11.5290 C.3   283  LEU283      0.1693
    199  C         10.2050    9.3520   11.3160 C.2   283  LEU283      0.2591
    200  O          9.5880    9.7370   10.3230 O.2   283  LEU283     -0.2718
    201  CB        12.5760    8.6690   11.0490 C.3   283  LEU283      0.0284
    202  CG        14.0560    9.0150   10.8510 C.3   283  LEU283      0.0019
    203  CD1       14.8090    7.7330   10.6000 C.3   283  LEU283      0.0001
    204  CD2       14.2600    9.9950    9.6860 C.3   283  LEU283      0.0001
    205  N          9.6750    8.5550   12.2410 N.am  284  GLN284     -0.1979
    206  CA         8.2980    8.0720   12.1120 C.3   284  GLN284      0.1601
    207  C          7.3060    9.1900   12.3570 C.2   284  GLN284      0.2287
    208  O          6.2470    9.2550   11.7290 O.2   284  GLN284     -0.2864
    209  CB         8.0310    6.9250   13.0770 C.3   284  GLN284      0.0394
    210  CG         8.3810    5.5950   12.4870 C.3   284  GLN284      0.0908
    211  CD         7.5600    5.3100   11.2500 C.2   284  GLN284      0.2608
    212  OE1        6.4150    4.8790   11.3590 O.2   284  GLN284     -0.2717
    213  NE2        8.1350    5.5690   10.0620 N.am  284  GLN284     -0.0878
    214  N          7.2660   11.2510    9.1830 N.3   287  PHE287     -0.1241
    215  CA         6.4680   10.5600    8.1760 C.3   287  PHE287      0.1605
    216  C          4.9740   10.7190    8.4450 C.2   287  PHE287      0.2264
    217  O          4.1890   10.9480    7.5290 O.2   287  PHE287     -0.2867
    218  CB         6.8420    9.0800    8.1380 C.3   287  PHE287      0.0534
    219  CG         5.9260    8.2390    7.2960 C.ar  287  PHE287     -0.0203
    220  CD1        5.9730    8.3110    5.9130 C.ar  287  PHE287     -0.0042
    221  CD2        5.0260    7.3640    7.8860 C.ar  287  PHE287     -0.0042
    222  CE1        5.1310    7.5420    5.1320 C.ar  287  PHE287     -0.0003
    223  CE2        4.1820    6.5800    7.0960 C.ar  287  PHE287     -0.0003
    224  CZ         4.2410    6.6700    5.7270 C.ar  287  PHE287     -0.0000
    225  N          3.4010   13.2390    5.8460 N.3   291  ILE291     -0.1245
    226  CA         2.8400   12.4060    4.8020 C.3   291  ILE291      0.1561
    227  C          1.5370   11.6870    5.2020 C.2   291  ILE291      0.2260
    228  O          0.5130   11.8640    4.5410 O.2   291  ILE291     -0.2867
    229  CB         3.8680   11.3750    4.3280 C.3   291  ILE291      0.0252
    230  CG1        5.0960   12.1030    3.7520 C.3   291  ILE291      0.0019
    231  CG2        3.2440   10.4670    3.3030 C.3   291  ILE291      0.0019
    232  CD1        6.2720   11.2150    3.4480 C.3   291  ILE291      0.0001
@<TRIPOS>BOND
     1    62    61    2
     2    61    60    1
     3    60    59    1
     4    60    63    1
     5    63    64    1
     6    66    65   ar
     7    82    80   ar
     8    64    65    1
     9    65    67   ar
    10    79    80    1
    11    79    76    1
    12    80    81   ar
    13    68    69    1
    14    73    72    1
    15    95    92    1
    16    75    76    1
    17    75    70   am
    18    94    93    2
    19    93    92    1
    20    76    77    1
    21    35    36    2
    22    35    34    1
    23    33    34    1
    24    41    42    1
    25    78    77    2
    26    54    53    2
    27    69    72    1
    28    69    70    1
    29    34    37    1
    30    74    72    1
    31    92    91    1
    32    70    71    2
    33    77    83   am
    34    42    43    1
    35    42    45    1
    36    53    52    1
    37    91    85   am
    38    43    44    2
    39    98    99    2
    40    98    97    1
    41    39    38   ar
    42    45    46    1
    43    83    84    1
    44    37    38    1
    45    48    46   ar
    46    48    50   ar
    47    85    86    2
    48    85    84    1
    49    96    97    1
    50    52    51    1
    51    52    55    1
    52    46    47   ar
    53    38    40   ar
    54    97   100    1
    55    57    56    2
    56    50    49   ar
    57    84    87    1
    58    47    49   ar
    59   100   101    1
    60    55    56    1
    61    56    58   am
    62   111   109   ar
    63    87    88    1
    64   101   102    1
    65   101   103    1
    66    16    15    2
    67   109   110   ar
    68   109   108    1
    69    88    90    1
    70    88    89    1
    71    17    18    1
    72    17    14    1
    73    20    18   ar
    74    20    22   ar
    75   108   105    1
    76    18    19   ar
    77    15    14    1
    78    22    21   ar
    79    30    32   ar
    80    30    28   ar
    81    19    21   ar
    82    32    31   ar
    83   104   105    1
    84    14    13    1
    85   105   106    1
    86   187   186    1
    87   187   188    1
    88   186   185    1
    89    25    26    2
    90    25    24    1
    91    28    27    1
    92    28    29   ar
    93    31    29   ar
    94    13     3   am
    95    27    24    1
    96   106   107    2
    97   106   112   am
    98    24    23    1
    99   181   182    1
   100   119   117    1
   101   185   182    1
   102   112   113    1
   103   117   118    1
   104   117   116    1
   105     3     4    2
   106     3     2    1
   107   182   183    1
   108   231   229    1
   109    10     8   ar
   110    10    11   ar
   111   178   176   ar
   112   178   180   ar
   113     8     6   ar
   114   232   230    1
   115   230   229    1
   116   176   175   ar
   117   180   179   ar
   118   113   116    1
   119   113   114    1
   120   229   226    1
   121   173   172    2
   122    12    11    1
   123     2     1    1
   124     2     5    1
   125    11     9   ar
   126   228   227    2
   127     6     5    1
   128     6     7   ar
   129   195   196    1
   130   195   194    1
   131   183   184    2
   132   226   227    1
   133   226   225    1
   134   171   170    1
   135   171   172    1
   136   171   174    1
   137   175   174    1
   138   175   177   ar
   139   179   177   ar
   140   222   224   ar
   141   222   220   ar
   142   194   193    1
   143   114   115    2
   144   157   155    1
   145     9     7   ar
   146   224   223   ar
   147   220   219   ar
   148   153   152    2
   149   127   125   ar
   150   193   190    1
   151   155   154    1
   152   156   154    1
   153   191   190    1
   154   191   192    2
   155   189   190    1
   156   223   221   ar
   157   120   121    1
   158   151   154    1
   159   151   152    1
   160   151   150    1
   161   219   221   ar
   162   219   218    1
   163   152   158   am
   164   125   126   ar
   165   125   124    1
   166   217   216    2
   167   218   215    1
   168   215   216    1
   169   215   214    1
   170   161   160    2
   171   124   121    1
   172   121   122    1
   173   158   159    1
   174   160   159    1
   175   143   141    1
   176   159   162    1
   177   133   132    1
   178   133   134    1
   179   128   122   am
   180   128   129    1
   181   142   141    1
   182   142   144    1
   183   166   164   ar
   184   166   168   ar
   185   164   163   ar
   186   136   134   am
   187   132   129    1
   188   122   123    2
   189   140   139    2
   190   204   202    1
   191   169   168    1
   192   168   167   ar
   193   134   135    2
   194   141   138    1
   195   213   211   am
   196   129   130    1
   197   163   162    1
   198   163   165   ar
   199   200   199    2
   200   139   138    1
   201   139   145   am
   202   138   137    1
   203   203   202    1
   204   167   165   ar
   205   130   131    2
   206   202   201    1
   207   148   147    2
   208   201   198    1
   209   211   212    2
   210   211   210    1
   211   199   198    1
   212   199   205   am
   213   198   197    1
   214   145   146    1
   215   146   147    1
   216   146   149    1
   217   208   207    2
   218   206   205    1
   219   206   207    1
   220   206   209    1
   221   210   209    1
