@<TRIPOS>MOLECULE
tmp/6c7eC00.pdb
 201 192 0 0 0
SMALL
GASTEIGER

@<TRIPOS>ATOM
      1  N         37.1160  -43.8290  -41.2170 N.3    70  TYR70      -0.1227
      2  CA        38.2210  -42.8820  -41.2780 C.3    70  TYR70       0.1736
      3  C         39.0080  -42.8130  -39.9760 C.2    70  TYR70       0.2595
      4  O         40.2270  -42.9320  -39.9890 O.2    70  TYR70      -0.2718
      5  CB        37.7220  -41.4770  -41.6510 C.3    70  TYR70       0.0548
      6  CG        38.8660  -40.4930  -41.7250 C.ar   70  TYR70      -0.0200
      7  CD1       39.7170  -40.4670  -42.8230 C.ar   70  TYR70      -0.0009
      8  CD2       39.1070  -39.6130  -40.6880 C.ar   70  TYR70      -0.0009
      9  CE1       40.7900  -39.5760  -42.8790 C.ar   70  TYR70       0.0417
     10  CE2       40.1780  -38.7210  -40.7270 C.ar   70  TYR70       0.0417
     11  CZ        41.0090  -38.7080  -41.8290 C.ar   70  TYR70       0.1957
     12  OH        42.0630  -37.8220  -41.8810 O.3    70  TYR70      -0.2866
     13  N         38.3200  -42.6260  -38.8580 N.am   71  HIS71      -0.1975
     14  CA        39.0360  -42.4100  -37.5950 C.3    71  HIS71       0.1656
     15  C         39.5270  -43.6940  -36.9240 C.2    71  HIS71       0.2291
     16  O         39.1130  -44.0390  -35.8150 O.2    71  HIS71      -0.2864
     17  CB        38.1450  -41.5990  -36.6640 C.3    71  HIS71       0.0771
     18  CG        38.1090  -40.1480  -37.0270 C.ar   71  HIS71       0.0820
     19  ND1       37.0360  -39.5500  -37.6640 N.ar   71  HIS71      -0.2267
     20  CD2       39.0490  -39.1860  -36.8960 C.ar   71  HIS71       0.1154
     21  CE1       37.3070  -38.2710  -37.8640 C.ar   71  HIS71       0.1986
     22  NE2       38.5230  -38.0250  -37.4050 N.ar   71  HIS71      -0.2212
     23  N         43.2630  -39.5130  -31.6070 N.3   112  ASP112     -0.1239
     24  CA        41.8710  -39.8920  -31.8960 C.3   112  ASP112      0.1674
     25  C         41.5050  -41.2080  -31.2130 C.2   112  ASP112      0.2266
     26  O         40.6020  -41.9040  -31.6600 O.2   112  ASP112     -0.2867
     27  CB        41.6350  -40.0230  -33.4150 C.3   112  ASP112      0.1410
     28  CG        41.2580  -38.6880  -34.0850 C.2   112  ASP112      0.3668
     29  OD1       40.5990  -37.8540  -33.4250 O.co2 112  ASP112     -0.2456
     30  OD2       41.6220  -38.4830  -35.2740 O.co2 112  ASP112     -0.2456
     31  N         37.9580  -43.2050  -30.9450 N.3   115  HIS115     -0.1241
     32  CA        36.9680  -42.4650  -31.7410 C.3   115  HIS115      0.1621
     33  C         35.8470  -43.4020  -32.1740 C.2   115  HIS115      0.2264
     34  O         36.1050  -44.5500  -32.5290 O.2   115  HIS115     -0.2867
     35  CB        37.6400  -41.8550  -32.9780 C.3   115  HIS115      0.0745
     36  CG        36.9350  -40.6630  -33.5340 C.ar  115  HIS115      0.0817
     37  ND1       35.7900  -40.7690  -34.2930 N.ar  115  HIS115     -0.2268
     38  CD2       37.2340  -39.3450  -33.4820 C.ar  115  HIS115      0.1154
     39  CE1       35.3980  -39.5610  -34.6620 C.ar  115  HIS115      0.1986
     40  NE2       36.2580  -38.6810  -34.1880 N.ar  115  HIS115     -0.2212
     41  N         37.9040  -35.0910  -27.8340 N.3   142  GLU142     -0.1245
     42  CA        39.3250  -34.8320  -27.6330 C.3   142  GLU142      0.1567
     43  C         39.7030  -35.0020  -26.1560 C.2   142  GLU142      0.2260
     44  O         40.7860  -35.5080  -25.8600 O.2   142  GLU142     -0.2867
     45  CB        39.6750  -33.4330  -28.1650 C.3   142  GLU142      0.0388
     46  CG        39.5480  -33.2820  -29.7100 C.3   142  GLU142      0.1160
     47  CD        38.1140  -33.0900  -30.2190 C.2   142  GLU142      0.3649
     48  OE1       37.2020  -32.7310  -29.4400 O.co2 142  GLU142     -0.2457
     49  OE2       37.8970  -33.2880  -31.4310 O.co2 142  GLU142     -0.2457
     50  N         43.3990  -30.5550  -31.5360 N.3   183  THR183     -0.1203
     51  CA        42.8820  -31.2860  -32.7000 C.3   183  THR183      0.1994
     52  C         41.3900  -31.0850  -32.9010 C.2   183  THR183      0.2618
     53  O         40.8450  -31.5210  -33.9140 O.2   183  THR183     -0.2717
     54  CB        43.1350  -32.8120  -32.6050 C.3   183  THR183      0.1784
     55  OG1       42.4760  -33.3530  -31.4550 O.3   183  THR183     -0.2211
     56  CG2       44.6200  -33.1220  -32.5350 C.3   183  THR183      0.0376
     57  N         40.7210  -30.4420  -31.9500 N.am  184  ASP184     -0.1959
     58  CA        39.3490  -30.0160  -32.1930 C.3   184  ASP184      0.1840
     59  C         39.4060  -28.9110  -33.2320 C.2   184  ASP184      0.2621
     60  O         40.0130  -27.8690  -32.9800 O.2   184  ASP184     -0.2715
     61  CB        38.7050  -29.5210  -30.8960 C.3   184  ASP184      0.1450
     62  CG        37.1950  -29.2540  -31.0300 C.2   184  ASP184      0.3671
     63  OD1       36.6510  -29.2350  -32.1520 O.co2 184  ASP184     -0.2456
     64  OD2       36.5600  -29.0520  -29.9800 O.co2 184  ASP184     -0.2456
     65  N         38.8000  -29.1210  -34.4020 N.am  185  LEU185     -0.1977
     66  CA        38.7930  -28.0540  -35.4060 C.3   185  LEU185      0.1596
     67  C         38.1980  -26.7510  -34.8680 C.2   185  LEU185      0.2287
     68  O         38.5380  -25.6650  -35.3500 O.2   185  LEU185     -0.2864
     69  CB        38.0320  -28.4800  -36.6690 C.3   185  LEU185      0.0297
     70  CG        38.8000  -29.3710  -37.6410 C.3   185  LEU185      0.0022
     71  CD1       37.9620  -29.6930  -38.8700 C.3   185  LEU185      0.0001
     72  CD2       40.1210  -28.7280  -38.0480 C.3   185  LEU185      0.0001
     73  N         47.0810  -33.7430  -38.8730 N.3   223  ASP223     -0.1225
     74  CA        45.7390  -34.3220  -38.8740 C.3   223  ASP223      0.1805
     75  C         45.1290  -34.2750  -40.2810 C.2   223  ASP223      0.2597
     76  O         44.3810  -35.1750  -40.6580 O.2   223  ASP223     -0.2718
     77  CB        44.8570  -33.5660  -37.8770 C.3   223  ASP223      0.1424
     78  CG        43.7960  -34.4280  -37.2060 C.2   223  ASP223      0.3668
     79  OD1       43.6520  -35.6320  -37.5070 O.co2 223  ASP223     -0.2456
     80  OD2       43.0930  -33.8640  -36.3360 O.co2 223  ASP223     -0.2456
     81  N         45.4410  -33.2250  -41.0420 N.am  224  LEU224     -0.1979
     82  CA        44.8470  -33.0370  -42.3760 C.3   224  LEU224      0.1596
     83  C         45.7680  -33.4740  -43.5070 C.2   224  LEU224      0.2287
     84  O         45.4820  -33.2020  -44.6730 O.2   224  LEU224     -0.2864
     85  CB        44.4640  -31.5710  -42.5990 C.3   224  LEU224      0.0297
     86  CG        43.4430  -30.9790  -41.6330 C.3   224  LEU224      0.0022
     87  CD1       42.8880  -29.6630  -42.1680 C.3   224  LEU224      0.0001
     88  CD2       42.3450  -31.9760  -41.3670 C.3   224  LEU224      0.0001
     89  N         45.4710  -34.6190  -47.3550 N.3   227  GLN227     -0.1245
     90  CA        45.2350  -33.6830  -48.4460 C.3   227  GLN227      0.1566
     91  C         46.5120  -33.2760  -49.1770 C.2   227  GLN227      0.2260
     92  O         46.4480  -32.6390  -50.2140 O.2   227  GLN227     -0.2867
     93  CB        44.5220  -32.4240  -47.9340 C.3   227  GLN227      0.0367
     94  CG        43.2000  -32.7100  -47.2380 C.3   227  GLN227      0.0905
     95  CD        42.3060  -33.6190  -48.0590 C.2   227  GLN227      0.2608
     96  OE1       42.0830  -33.3780  -49.2440 O.2   227  GLN227     -0.2717
     97  NE2       41.8130  -34.6790  -47.4430 N.am  227  GLN227     -0.0878
     98  N         40.1630  -40.7800  -49.2080 N.3   237  ILE237     -0.1231
     99  CA        39.8840  -40.3450  -47.8500 C.3   237  ILE237      0.1692
    100  C         38.5280  -39.6280  -47.8110 C.2   237  ILE237      0.2591
    101  O         37.8200  -39.7160  -46.8100 O.2   237  ILE237     -0.2718
    102  CB        41.0330  -39.4590  -47.2930 C.3   237  ILE237      0.0266
    103  CG1       42.0740  -40.3230  -46.5720 C.3   237  ILE237      0.0019
    104  CG2       40.5200  -38.4090  -46.3080 C.3   237  ILE237      0.0020
    105  CD1       42.5550  -41.5330  -47.3610 C.3   237  ILE237      0.0001
    106  N         38.1360  -38.9850  -48.9150 N.am  238  ALA238     -0.1980
    107  CA        36.8060  -38.3710  -48.9990 C.3   238  ALA238      0.1597
    108  C         35.7380  -39.4470  -48.8710 C.2   238  ALA238      0.2287
    109  O         34.7270  -39.2760  -48.1800 O.2   238  ALA238     -0.2864
    110  CB        36.6290  -37.5890  -50.3300 C.3   238  ALA238      0.0319
    111  N         35.6830  -40.4610  -45.1690 N.3   241  ILE241     -0.1231
    112  CA        35.0760  -39.3900  -44.3840 C.3   241  ILE241      0.1692
    113  C         33.5530  -39.3100  -44.5530 C.2   241  ILE241      0.2592
    114  O         32.8180  -39.2700  -43.5630 O.2   241  ILE241     -0.2718
    115  CB        35.7090  -38.0240  -44.7470 C.3   241  ILE241      0.0266
    116  CG1       37.1180  -37.9140  -44.1560 C.3   241  ILE241      0.0019
    117  CG2       34.8650  -36.8730  -44.2330 C.3   241  ILE241      0.0020
    118  CD1       37.1260  -37.5820  -42.6760 C.3   241  ILE241      0.0001
    119  N         33.0710  -39.3080  -45.7910 N.am  242  TYR242     -0.1976
    120  CA        31.6250  -39.1630  -45.9860 C.3   242  TYR242      0.1639
    121  C         30.8760  -40.4540  -45.6180 C.2   242  TYR242      0.2290
    122  O         29.7490  -40.3900  -45.1260 O.2   242  TYR242     -0.2864
    123  CB        31.3020  -38.6650  -47.4200 C.3   242  TYR242      0.0560
    124  CG        31.7200  -37.2150  -47.4860 C.ar  242  TYR242     -0.0198
    125  CD1       31.0070  -36.2460  -46.7840 C.ar  242  TYR242     -0.0009
    126  CD2       32.8890  -36.8300  -48.1290 C.ar  242  TYR242     -0.0009
    127  CE1       31.4100  -34.9260  -46.7630 C.ar  242  TYR242      0.0417
    128  CE2       33.3080  -35.5100  -48.1090 C.ar  242  TYR242      0.0417
    129  CZ        32.5700  -34.5640  -47.4160 C.ar  242  TYR242      0.1957
    130  OH        32.9830  -33.2500  -47.3950 O.3   242  TYR242     -0.2866
    131  N         30.5840  -39.7500  -41.9460 N.3   245  PHE245     -0.1241
    132  CA        29.6150  -38.6750  -41.7460 C.3   245  PHE245      0.1605
    133  C         28.1730  -39.1240  -41.9670 C.2   245  PHE245      0.2264
    134  O         27.2880  -38.8230  -41.1670 O.2   245  PHE245     -0.2867
    135  CB        29.9040  -37.5050  -42.6910 C.3   245  PHE245      0.0534
    136  CG        31.0760  -36.6460  -42.2940 C.ar  245  PHE245     -0.0203
    137  CD1       31.8140  -36.8940  -41.1520 C.ar  245  PHE245     -0.0042
    138  CD2       31.3970  -35.5450  -43.0720 C.ar  245  PHE245     -0.0042
    139  CE1       32.8920  -36.0630  -40.8080 C.ar  245  PHE245     -0.0003
    140  CE2       32.4410  -34.7150  -42.7480 C.ar  245  PHE245     -0.0003
    141  CZ        33.1980  -34.9650  -41.6140 C.ar  245  PHE245     -0.0000
    142  N         23.4870  -31.9740  -39.8760 N.3   260  MET260     -0.1245
    143  CA        24.0260  -30.9370  -40.7410 C.3   260  MET260      0.1570
    144  C         24.0770  -31.4820  -42.1640 C.2   260  MET260      0.2261
    145  O         24.1410  -32.7000  -42.3730 O.2   260  MET260     -0.2867
    146  CB        25.4100  -30.4970  -40.2750 C.3   260  MET260      0.0387
    147  CG        26.4520  -31.5790  -40.3760 C.3   260  MET260      0.0595
    148  SD        27.8480  -31.2650  -39.2750 S.3   260  MET260     -0.1393
    149  CE        28.3170  -29.6200  -39.7990 C.3   260  MET260      0.0692
    150  N         26.2810  -31.7460  -44.4130 N.3   262  MET262     -0.1230
    151  CA        27.4080  -32.5780  -44.8340 C.3   262  MET262      0.1702
    152  C         27.3450  -34.0050  -44.2790 C.2   262  MET262      0.2592
    153  O         28.1400  -34.8570  -44.6740 O.2   262  MET262     -0.2718
    154  CB        28.7380  -31.9230  -44.4310 C.3   262  MET262      0.0401
    155  CG        29.0340  -31.9250  -42.9370 C.3   262  MET262      0.0596
    156  SD        30.6800  -31.2960  -42.5830 S.3   262  MET262     -0.1393
    157  CE        30.5310  -29.5950  -43.1200 C.3   262  MET262      0.0692
    158  N         26.4050  -34.2630  -43.3690 N.am  263  MET263     -0.1979
    159  CA        26.2320  -35.6030  -42.8100 C.3   263  MET263      0.1605
    160  C         24.9420  -36.2680  -43.2770 C.2   263  MET263      0.2287
    161  O         24.6140  -37.3780  -42.8570 O.2   263  MET263     -0.2864
    162  CB        26.2590  -35.5350  -41.2950 C.3   263  MET263      0.0413
    163  CG        27.5590  -34.9600  -40.7940 C.3   263  MET263      0.0598
    164  SD        27.8530  -35.5290  -39.1290 S.3   263  MET263     -0.1393
    165  CE        29.4960  -34.8710  -38.8390 C.3   263  MET263      0.0692
    166  N         31.3880  -29.8280  -50.9910 N.3   273  LEU273     -0.1231
    167  CA        31.7880  -29.9490  -49.5890 C.3   273  LEU273      0.1693
    168  C         33.2940  -30.1510  -49.4420 C.2   273  LEU273      0.2591
    169  O         33.9260  -29.5470  -48.5720 O.2   273  LEU273     -0.2718
    170  CB        31.0430  -31.1020  -48.9250 C.3   273  LEU273      0.0284
    171  CG        29.5330  -30.9090  -48.7730 C.3   273  LEU273      0.0019
    172  CD1       28.8760  -32.2070  -48.3340 C.3   273  LEU273      0.0001
    173  CD2       29.2390  -29.7870  -47.7720 C.3   273  LEU273      0.0001
    174  N         33.8570  -30.9990  -50.2930 N.am  274  GLN274     -0.1979
    175  CA        35.2860  -31.2880  -50.2410 C.3   274  GLN274      0.1601
    176  C         36.0740  -30.0550  -50.6940 C.2   274  GLN274      0.2287
    177  O         37.0650  -29.6910  -50.0750 O.2   274  GLN274     -0.2864
    178  CB        35.6170  -32.5220  -51.0990 C.3   274  GLN274      0.0394
    179  CG        37.1040  -32.7330  -51.4070 C.3   274  GLN274      0.0908
    180  CD        37.8740  -33.3990  -50.2750 C.2   274  GLN274      0.2608
    181  OE1       37.2970  -34.0960  -49.4390 O.2   274  GLN274     -0.2717
    182  NE2       39.1910  -33.1970  -50.2530 N.am  274  GLN274     -0.0878
    183  N         35.9970  -27.5400  -47.8720 N.3   277  PHE277     -0.1241
    184  CA        36.9200  -27.9500  -46.8190 C.3   277  PHE277      0.1605
    185  C         38.3620  -27.6160  -47.1980 C.2   277  PHE277      0.2264
    186  O         39.1220  -27.1090  -46.3730 O.2   277  PHE277     -0.2867
    187  CB        36.7970  -29.4460  -46.5160 C.3   277  PHE277      0.0534
    188  CG        37.7780  -29.9290  -45.4830 C.ar  277  PHE277     -0.0203
    189  CD1       37.6010  -29.6260  -44.1450 C.ar  277  PHE277     -0.0042
    190  CD2       38.8790  -30.6800  -45.8590 C.ar  277  PHE277     -0.0042
    191  CE1       38.5130  -30.0660  -43.1910 C.ar  277  PHE277     -0.0003
    192  CE2       39.7870  -31.1210  -44.9100 C.ar  277  PHE277     -0.0003
    193  CZ        39.5990  -30.8190  -43.5910 C.ar  277  PHE277     -0.0000
    194  N         39.5220  -24.4330  -45.1090 N.3   281  ILE281     -0.1245
    195  CA        40.1620  -24.9540  -43.9060 C.3   281  ILE281      0.1561
    196  C         41.5820  -25.4540  -44.1900 C.2   281  ILE281      0.2260
    197  O         42.5340  -24.9570  -43.5980 O.2   281  ILE281     -0.2867
    198  CB        39.3170  -26.0670  -43.2470 C.3   281  ILE281      0.0252
    199  CG1       37.9820  -25.4820  -42.7660 C.3   281  ILE281      0.0019
    200  CG2       40.0560  -26.6650  -42.0570 C.3   281  ILE281      0.0019
    201  CD1       37.0220  -26.4940  -42.1890 C.3   281  ILE281      0.0001
@<TRIPOS>BOND
     1   179   178    1
     2   179   180    1
     3   178   175    1
     4   166   167    1
     5   176   175    1
     6   176   177    2
     7   110   107    1
     8   174   175    1
     9   174   168   am
    10   180   182   am
    11   180   181    2
    12    92    91    2
    13   167   168    1
    14   167   170    1
    15   168   169    2
    16    96    95    2
    17    98    99    1
    18    91    90    1
    19   107   106    1
    20   107   108    1
    21   170   171    1
    22   106   100   am
    23   108   109    2
    24   171   172    1
    25   171   173    1
    26    90    93    1
    27    90    89    1
    28   126   128   ar
    29   126   124   ar
    30   128   129   ar
    31    95    97   am
    32    95    94    1
    33    93    94    1
    34   183   184    1
    35    99   100    1
    36    99   102    1
    37   100   101    2
    38   124   123    1
    39   124   125   ar
    40   123   120    1
    41   129   130    1
    42   129   127   ar
    43   105   103    1
    44   102   103    1
    45   102   104    1
    46   185   184    1
    47   185   186    2
    48   184   187    1
    49   125   127   ar
    50   187   188    1
    51   120   119    1
    52   120   121    1
    53   190   188   ar
    54   190   192   ar
    55   119   113   am
    56   121   122    2
    57   188   189   ar
    58   111   112    1
    59   194   195    1
    60   192   193   ar
    61   151   154    1
    62   151   150    1
    63   151   152    1
    64   115   112    1
    65   115   117    1
    66   115   116    1
    67   153   152    2
    68    84    83    2
    69   113   112    1
    70   113   114    2
    71   154   155    1
    72   152   158   am
    73   196   195    1
    74   196   197    2
    75   116   118    1
    76   189   191   ar
    77   195   198    1
    78   193   191   ar
    79    83    82    1
    80   158   159    1
    81   160   161    2
    82   160   159    1
    83   198   199    1
    84   198   200    1
    85   157   156    1
    86   138   140   ar
    87   138   136   ar
    88   155   156    1
    89     9     7   ar
    90     9    11   ar
    91     7     6   ar
    92   159   162    1
    93   199   201    1
    94   140   141   ar
    95   135   136    1
    96   135   132    1
    97    85    82    1
    98    85    86    1
    99    82    81    1
   100   145   144    2
   101   136   137   ar
   102    87    86    1
   103   144   143    1
   104   133   132    1
   105   133   134    2
   106   131   132    1
   107    12    11    1
   108    11    10   ar
   109     6     5    1
   110     6     8   ar
   111     5     2    1
   112    86    88    1
   113   141   139   ar
   114   162   163    1
   115     2     1    1
   116     2     3    1
   117   137   139   ar
   118    81    75   am
   119   163   164    1
   120   143   146    1
   121   143   142    1
   122    10     8   ar
   123    76    75    2
   124   147   146    1
   125   147   148    1
   126    75    74    1
   127     4     3    2
   128     3    13   am
   129   149   148    1
   130   164   165    1
   131    74    73    1
   132    74    77    1
   133    71    70    1
   134    13    14    1
   135    72    70    1
   136    77    78    1
   137    21    19   ar
   138    21    22   ar
   139    19    18   ar
   140    70    69    1
   141    14    15    1
   142    14    17    1
   143    79    78   ar
   144    22    20   ar
   145    78    80   ar
   146    18    20   ar
   147    18    17    1
   148    15    16    2
   149    69    66    1
   150    66    67    1
   151    66    65    1
   152    68    67    2
   153    30    28   ar
   154    39    37   ar
   155    39    40   ar
   156    65    59   am
   157    37    36   ar
   158    40    38   ar
   159    28    29   ar
   160    28    27    1
   161    53    52    2
   162    36    38   ar
   163    36    35    1
   164    27    24    1
   165    59    60    2
   166    59    58    1
   167    35    32    1
   168    52    51    1
   169    52    57   am
   170    51    54    1
   171    51    50    1
   172    54    56    1
   173    54    55    1
   174    34    33    2
   175    58    57    1
   176    58    61    1
   177    33    32    1
   178    63    62   ar
   179    24    23    1
   180    24    25    1
   181    32    31    1
   182    26    25    2
   183    49    47   ar
   184    62    61    1
   185    62    64   ar
   186    47    46    1
   187    47    48   ar
   188    46    45    1
   189    45    42    1
   190    41    42    1
   191    42    43    1
   192    43    44    2
