@<TRIPOS>MOLECULE
tmp/6c7fC00.pdb
 215 203 0 0 0
SMALL
GASTEIGER

@<TRIPOS>ATOM
      1  N         82.7700  -42.5550   25.7420 N.3    66  TYR66      -0.1227
      2  CA        81.7130  -41.5710   25.5730 C.3    66  TYR66       0.1736
      3  C         80.8710  -41.8140   24.3170 C.2    66  TYR66       0.2595
      4  O         79.6400  -41.8230   24.3800 O.2    66  TYR66      -0.2718
      5  CB        82.2990  -40.1470   25.5440 C.3    66  TYR66       0.0548
      6  CG        81.2510  -39.0950   25.3180 C.ar   66  TYR66      -0.0200
      7  CD1       80.4130  -38.6960   26.3580 C.ar   66  TYR66      -0.0009
      8  CD2       81.0560  -38.5240   24.0550 C.ar   66  TYR66      -0.0009
      9  CE1       79.4210  -37.7570   26.1640 C.ar   66  TYR66       0.0417
     10  CE2       80.0740  -37.5670   23.8510 C.ar   66  TYR66       0.0417
     11  CZ        79.2590  -37.1880   24.9110 C.ar   66  TYR66       0.1957
     12  OH        78.2780  -36.2450   24.7450 O.3    66  TYR66      -0.2866
     13  N         81.5260  -42.0140   23.1800 N.am   67  HIS67      -0.1975
     14  CA        80.7900  -42.0900   21.9080 C.3    67  HIS67       0.1656
     15  C         80.2360  -43.4920   21.6620 C.2    67  HIS67       0.2291
     16  O         80.6560  -44.2160   20.7470 O.2    67  HIS67      -0.2864
     17  CB        81.6750  -41.6500   20.7570 C.3    67  HIS67       0.0771
     18  CG        81.8590  -40.1670   20.6810 C.ar   67  HIS67       0.0820
     19  ND1       83.0370  -39.5450   21.0370 N.ar   67  HIS67      -0.2267
     20  CD2       81.0150  -39.1800   20.2910 C.ar   67  HIS67       0.1154
     21  CE1       82.9130  -38.2390   20.8760 C.ar   67  HIS67       0.1986
     22  NE2       81.6970  -37.9920   20.4210 N.ar   67  HIS67      -0.2212
     23  N         76.5860  -40.4610   15.3340 N.3   108  ASP108     -0.1239
     24  CA        77.9560  -40.8720   15.6860 C.3   108  ASP108      0.1674
     25  C         78.1820  -42.3750   15.3950 C.2   108  ASP108      0.2266
     26  O         79.0590  -43.0020   15.9800 O.2   108  ASP108     -0.2867
     27  CB        78.2470  -40.5700   17.1630 C.3   108  ASP108      0.1410
     28  CG        78.7420  -39.1460   17.4040 C.2   108  ASP108      0.3668
     29  OD1       79.3750  -38.5590   16.4960 O.co2 108  ASP108     -0.2456
     30  OD2       78.4970  -38.6140   18.5210 O.co2 108  ASP108     -0.2456
     31  N         81.5650  -44.7250   15.6900 N.3   111  HIS111     -0.1241
     32  CA        82.6310  -43.9360   16.2910 C.3   111  HIS111      0.1621
     33  C         83.5980  -44.9040   16.9570 C.2   111  HIS111      0.2264
     34  O         83.1720  -45.8730   17.5950 O.2   111  HIS111     -0.2867
     35  CB        82.0730  -42.9260   17.3030 C.3   111  HIS111      0.0745
     36  CG        82.9660  -41.7440   17.5440 C.ar  111  HIS111      0.0817
     37  ND1       84.1270  -41.8240   18.2820 N.ar  111  HIS111     -0.2268
     38  CD2       82.8570  -40.4500   17.1550 C.ar  111  HIS111      0.1154
     39  CE1       84.6950  -40.6320   18.3410 C.ar  111  HIS111      0.1986
     40  NE2       83.9430  -39.7800   17.6690 N.ar  111  HIS111     -0.2212
     41  N         81.9280  -37.4890   10.2010 N.3   130  GLU130     -0.1245
     42  CA        80.4900  -37.2590   10.0820 C.3   130  GLU130      0.1567
     43  C         79.9390  -37.8190    8.7580 C.2   130  GLU130      0.2260
     44  O         78.8200  -38.3350    8.7080 O.2   130  GLU130     -0.2867
     45  CB        80.1990  -35.7640   10.2390 C.3   130  GLU130      0.0388
     46  CG        80.4180  -35.2410   11.6750 C.3   130  GLU130      0.1160
     47  CD        81.8730  -34.9810   12.0310 C.2   130  GLU130      0.3649
     48  OE1       82.7160  -34.8630   11.1210 O.co2 130  GLU130     -0.2457
     49  OE2       82.1740  -34.8470   13.2430 O.co2 130  GLU130     -0.2457
     50  N         76.2500  -31.4150   10.3030 N.3   170  ALA170     -0.1231
     51  CA        76.2570  -30.2310   11.1470 C.3   170  ALA170      0.1694
     52  C         76.8340  -30.5330   12.5310 C.2   170  ALA170      0.2592
     53  O         77.0130  -29.6200   13.3380 O.2   170  ALA170     -0.2718
     54  CB        74.8790  -29.6770   11.2820 C.3   170  ALA170      0.0304
     55  N         77.0880  -31.8050   12.8190 N.am  171  THR171     -0.1953
     56  CA        77.6860  -32.1690   14.1090 C.3   171  THR171      0.1897
     57  C         79.2010  -32.0210   14.1100 C.2   171  THR171      0.2313
     58  O         79.8430  -32.2440   15.1330 O.2   171  THR171     -0.2863
     59  CB        77.3450  -33.6090   14.5320 C.3   171  THR171      0.1794
     60  OG1       77.8480  -34.5530   13.5690 O.3   171  THR171     -0.2208
     61  CG2       75.8380  -33.7770   14.7060 C.3   171  THR171      0.0378
     62  N         82.2000  -29.7860   14.4800 N.3   173  LEU173     -0.1245
     63  CA        82.4620  -28.4720   15.0430 C.3   173  LEU173      0.1561
     64  C         82.8420  -27.4540   13.9670 C.2   173  LEU173      0.2260
     65  O         82.4790  -26.2870   14.0610 O.2   173  LEU173     -0.2867
     66  CB        83.5720  -28.5590   16.1050 C.3   173  LEU173      0.0270
     67  CG        83.9570  -27.2590   16.8170 C.3   173  LEU173      0.0019
     68  CD1       82.7450  -26.6020   17.4440 C.3   173  LEU173      0.0001
     69  CD2       84.9990  -27.5600   17.8670 C.3   173  LEU173      0.0001
     70  N         79.7040  -26.0410   12.4080 N.3   176  HIS176     -0.1241
     71  CA        79.0930  -25.1120   13.3470 C.3   176  HIS176      0.1621
     72  C         79.7820  -23.7510   13.3400 C.2   176  HIS176      0.2264
     73  O         79.1190  -22.7150   13.2830 O.2   176  HIS176     -0.2867
     74  CB        79.1260  -25.6950   14.7680 C.3   176  HIS176      0.0745
     75  CG        78.6990  -24.7250   15.8200 C.ar  176  HIS176      0.0817
     76  ND1       77.3910  -24.3170   15.9640 N.ar  176  HIS176     -0.2268
     77  CD2       79.4090  -24.0660   16.7680 C.ar  176  HIS176      0.1154
     78  CE1       77.3120  -23.4480   16.9570 C.ar  176  HIS176      0.1986
     79  NE2       78.5220  -23.2790   17.4620 N.ar  176  HIS176     -0.2212
     80  N         73.0710  -29.6240   17.0520 N.3   208  THR208     -0.1218
     81  CA        74.2140  -29.4030   17.9390 C.3   208  THR208      0.1862
     82  C         73.7250  -29.2730   19.3850 C.2   208  THR208      0.2287
     83  O         74.4120  -29.7010   20.3080 O.2   208  THR208     -0.2866
     84  CB        75.0650  -28.1630   17.5520 C.3   208  THR208      0.1770
     85  OG1       74.2290  -27.0210   17.3840 O.3   208  THR208     -0.2211
     86  CG2       75.8710  -28.4130   16.2610 C.3   208  THR208      0.0375
     87  N         73.3820  -32.8220   20.6110 N.3   211  ASP211     -0.1225
     88  CA        74.7110  -33.4190   20.7610 C.3   211  ASP211      0.1805
     89  C         75.3390  -33.0380   22.1100 C.2   211  ASP211      0.2597
     90  O         75.9660  -33.8660   22.7630 O.2   211  ASP211     -0.2718
     91  CB        75.6320  -32.9750   19.6070 C.3   211  ASP211      0.1424
     92  CG        76.5760  -34.0680   19.1270 C.2   211  ASP211      0.3668
     93  OD1       76.8520  -35.0400   19.8660 O.co2 211  ASP211     -0.2456
     94  OD2       77.0530  -33.9520   17.9730 O.co2 211  ASP211     -0.2456
     95  N         75.1470  -31.7900   22.5270 N.am  212  LEU212     -0.1979
     96  CA        75.7630  -31.2770   23.7510 C.3   212  LEU212      0.1596
     97  C         74.8650  -31.3050   24.9900 C.2   212  LEU212      0.2287
     98  O         75.2180  -30.7350   26.0160 O.2   212  LEU212     -0.2864
     99  CB        76.2360  -29.8370   23.5300 C.3   212  LEU212      0.0297
    100  CG        77.1660  -29.5920   22.3450 C.3   212  LEU212      0.0022
    101  CD1       77.6600  -28.1550   22.3580 C.3   212  LEU212      0.0001
    102  CD2       78.3320  -30.5850   22.3380 C.3   212  LEU212      0.0001
    103  N         75.2930  -31.2880   29.0460 N.3   215  GLN215     -0.1245
    104  CA        75.5880  -30.0770   29.7900 C.3   215  GLN215      0.1566
    105  C         74.3260  -29.3760   30.3420 C.2   215  GLN215      0.2260
    106  O         74.4360  -28.4600   31.1550 O.2   215  GLN215     -0.2867
    107  CB        76.3910  -29.1180   28.9020 C.3   215  GLN215      0.0367
    108  CG        77.6100  -29.7740   28.2700 C.3   215  GLN215      0.0905
    109  CD        78.5060  -30.4200   29.3250 C.2   215  GLN215      0.2608
    110  OE1       78.8530  -29.7930   30.3130 O.2   215  GLN215     -0.2717
    111  NE2       78.8670  -31.6800   29.1150 N.am  215  GLN215     -0.0878
    112  N         80.2130  -37.0140   32.4960 N.3   225  ILE225     -0.1231
    113  CA        80.4780  -36.9760   31.0530 C.3   225  ILE225      0.1692
    114  C         81.8730  -36.3780   30.7980 C.2   225  ILE225      0.2591
    115  O         82.5860  -36.8260   29.9040 O.2   225  ILE225     -0.2718
    116  CB        79.3580  -36.2150   30.2840 C.3   225  ILE225      0.0266
    117  CG1       78.2580  -37.1960   29.8820 C.3   225  ILE225      0.0019
    118  CG2       79.8590  -35.6640   28.9800 C.3   225  ILE225      0.0020
    119  CD1       77.6250  -37.9510   31.0200 C.3   225  ILE225      0.0001
    120  N         82.2930  -35.4140   31.6150 N.am  226  ALA226     -0.1980
    121  CA        83.6880  -34.9650   31.5530 C.3   226  ALA226      0.1597
    122  C         84.6270  -36.1400   31.7660 C.2   226  ALA226      0.2287
    123  O         85.6050  -36.2970   31.0410 O.2   226  ALA226     -0.2864
    124  CB        83.9610  -33.8880   32.5730 C.3   226  ALA226      0.0319
    125  N         84.5290  -38.4130   28.5830 N.3   229  ILE229     -0.1231
    126  CA        85.1590  -37.7230   27.4790 C.3   229  ILE229      0.1692
    127  C         86.6800  -37.7320   27.5890 C.2   229  ILE229      0.2592
    128  O         87.3700  -38.0050   26.5970 O.2   229  ILE229     -0.2718
    129  CB        84.6480  -36.2940   27.4010 C.3   229  ILE229      0.0266
    130  CG1       83.2460  -36.2910   26.7710 C.3   229  ILE229      0.0019
    131  CG2       85.6240  -35.3900   26.6520 C.3   229  ILE229      0.0020
    132  CD1       82.5790  -34.9920   26.8940 C.3   229  ILE229      0.0001
    133  N         87.2120  -37.4520   28.7790 N.am  230  TYR230     -0.1976
    134  CA        88.6690  -37.4390   28.9210 C.3   230  TYR230      0.1639
    135  C         89.2340  -38.8500   28.9810 C.2   230  TYR230      0.2290
    136  O         90.3610  -39.0630   28.5540 O.2   230  TYR230     -0.2864
    137  CB        89.1090  -36.5800   30.1330 C.3   230  TYR230      0.0560
    138  CG        88.8720  -35.1460   29.7520 C.ar  230  TYR230     -0.0198
    139  CD1       89.6340  -34.5560   28.7420 C.ar  230  TYR230     -0.0009
    140  CD2       87.8070  -34.4270   30.2780 C.ar  230  TYR230     -0.0009
    141  CE1       89.3920  -33.2710   28.3250 C.ar  230  TYR230      0.0417
    142  CE2       87.5470  -33.1400   29.8590 C.ar  230  TYR230      0.0417
    143  CZ        88.3370  -32.5700   28.8720 C.ar  230  TYR230      0.1957
    144  OH        88.0850  -31.2870   28.4430 O.3   230  TYR230     -0.2866
    145  N         89.4650  -39.2870   25.2450 N.3   233  PHE233     -0.1241
    146  CA        90.5570  -38.4650   24.7310 C.3   233  PHE233      0.1605
    147  C         91.9400  -39.0060   25.0990 C.2   233  PHE233      0.2264
    148  O         92.8230  -39.1360   24.2440 O.2   233  PHE233     -0.2867
    149  CB        90.4360  -37.0180   25.2330 C.3   233  PHE233      0.0534
    150  CG        89.3290  -36.2240   24.5690 C.ar  233  PHE233     -0.0203
    151  CD1       88.5520  -36.7830   23.5600 C.ar  233  PHE233     -0.0042
    152  CD2       89.0740  -34.9140   24.9550 C.ar  233  PHE233     -0.0042
    153  CE1       87.5290  -36.0480   22.9490 C.ar  233  PHE233     -0.0003
    154  CE2       88.0660  -34.1740   24.3480 C.ar  233  PHE233     -0.0003
    155  CZ        87.2940  -34.7490   23.3340 C.ar  233  PHE233     -0.0000
    156  N         97.2740  -33.9600   20.7760 N.3   248  MET248     -0.1245
    157  CA        96.7030  -32.6930   21.2230 C.3   248  MET248      0.1570
    158  C         96.9040  -32.5690   22.7250 C.2   248  MET248      0.2261
    159  O         96.8620  -33.5750   23.4270 O.2   248  MET248     -0.2867
    160  CB        95.2110  -32.6140   20.9030 C.3   248  MET248      0.0387
    161  CG        94.8430  -31.7550   19.7070 C.3   248  MET248      0.0595
    162  SD        93.0500  -31.7450   19.4770 S.3   248  MET248     -0.1393
    163  CE        92.7790  -33.4630   19.1070 C.3   248  MET248      0.0692
    164  N         94.8280  -31.4780   24.8830 N.3   250  MET250     -0.1245
    165  CA        93.6140  -31.9240   25.5770 C.3   250  MET250      0.1570
    166  C         93.4830  -33.4380   25.5460 C.2   250  MET250      0.2261
    167  O         92.6640  -34.0110   26.2490 O.2   250  MET250     -0.2867
    168  CB        92.3760  -31.2800   24.9700 C.3   250  MET250      0.0387
    169  CG        91.9630  -31.9140   23.6570 C.3   250  MET250      0.0595
    170  SD        90.4400  -31.2060   23.0300 S.3   250  MET250     -0.1393
    171  CE        90.8350  -29.4580   23.0540 C.3   250  MET250      0.0692
    172  N         89.9290  -26.9030   30.5640 N.3   261  LEU261     -0.1231
    173  CA        89.4590  -27.4270   29.2910 C.3   261  LEU261      0.1693
    174  C         87.9340  -27.5280   29.2490 C.2   261  LEU261      0.2591
    175  O         87.3130  -27.1950   28.2360 O.2   261  LEU261     -0.2718
    176  CB        90.0800  -28.7910   29.0180 C.3   261  LEU261      0.0284
    177  CG        91.6000  -28.7930   28.8410 C.3   261  LEU261      0.0019
    178  CD1       92.0910  -30.2220   28.6850 C.3   261  LEU261      0.0001
    179  CD2       91.9620  -27.9480   27.6280 C.3   261  LEU261      0.0001
    180  N         87.3350  -27.9920   30.3440 N.am  262  GLN262     -0.1979
    181  CA        85.8760  -28.1170   30.4230 C.3   262  GLN262      0.1601
    182  C         85.2120  -26.7460   30.4010 C.2   262  GLN262      0.2287
    183  O         84.2190  -26.5310   29.7130 O.2   262  GLN262     -0.2864
    184  CB        85.4660  -28.8860   31.6920 C.3   262  GLN262      0.0394
    185  CG        83.9580  -28.8450   32.0060 C.3   262  GLN262      0.0908
    186  CD        83.1000  -29.7540   31.1070 C.2   262  GLN262      0.2608
    187  OE1       83.5850  -30.7440   30.5560 O.2   262  GLN262     -0.2717
    188  NE2       81.8090  -29.4210   30.9800 N.am  262  GLN262     -0.0878
    189  N         85.5470  -25.3110   26.8230 N.3   265  PHE265     -0.1241
    190  CA        84.5290  -25.9300   25.9980 C.3   265  PHE265      0.1605
    191  C         83.1600  -25.3110   26.2590 C.2   265  PHE265      0.2264
    192  O         82.4390  -24.9600   25.3250 O.2   265  PHE265     -0.2867
    193  CB        84.4890  -27.4310   26.2540 C.3   265  PHE265      0.0534
    194  CG        83.2640  -28.1020   25.7090 C.ar  265  PHE265     -0.0203
    195  CD1       83.1510  -28.3700   24.3610 C.ar  265  PHE265     -0.0042
    196  CD2       82.2260  -28.4650   26.5560 C.ar  265  PHE265     -0.0042
    197  CE1       82.0190  -28.9950   23.8580 C.ar  265  PHE265     -0.0003
    198  CE2       81.1000  -29.0860   26.0630 C.ar  265  PHE265     -0.0003
    199  CZ        81.0000  -29.3520   24.7150 C.ar  265  PHE265     -0.0000
    200  N         81.9840  -23.0600   23.2060 N.3   269  ILE269     -0.1245
    201  CA        81.2090  -23.8970   22.3010 C.3   269  ILE269      0.1561
    202  C         79.7800  -24.1250   22.7770 C.2   269  ILE269      0.2260
    203  O         78.8300  -23.8060   22.0620 O.2   269  ILE269     -0.2867
    204  CB        81.8820  -25.2590   22.0870 C.3   269  ILE269      0.0252
    205  CG1       83.2970  -25.0660   21.5470 C.3   269  ILE269      0.0019
    206  CG2       81.0440  -26.1030   21.1270 C.3   269  ILE269      0.0019
    207  CD1       84.0670  -26.3600   21.3460 C.3   269  ILE269      0.0001
    208  N         75.8500  -21.9440   21.9120 N.3   273  ILE273     -0.1245
    209  CA        74.8210  -22.7180   21.2210 C.3   273  ILE273      0.1561
    210  C         73.5000  -22.5890   21.9740 C.2   273  ILE273      0.2260
    211  O         72.4760  -22.3150   21.3740 O.2   273  ILE273     -0.2867
    212  CB        75.2470  -24.1960   21.0810 C.3   273  ILE273      0.0252
    213  CG1       76.2720  -24.3330   19.9590 C.3   273  ILE273      0.0019
    214  CG2       74.0660  -25.1080   20.8800 C.3   273  ILE273      0.0019
    215  CD1       76.8530  -25.7420   19.8100 C.3   273  ILE273      0.0001
@<TRIPOS>BOND
     1    44    43    2
     2    43    42    1
     3    42    41    1
     4    42    45    1
     5    45    46    1
     6    50    51    1
     7    48    47   ar
     8    51    54    1
     9    51    52    1
    10    46    47    1
    11    47    49   ar
    12    70    71    1
    13    52    55   am
    14    52    53    2
    15    55    56    1
    16    73    72    2
    17    72    71    1
    18    71    74    1
    19    60    59    1
    20    64    65    2
    21    64    63    1
    22    56    57    1
    23    56    59    1
    24    57    58    2
    25    62    63    1
    26    59    61    1
    27    74    75    1
    28    63    66    1
    29    23    24    1
    30    25    24    1
    31    25    26    2
    32    24    27    1
    33    31    32    1
    34    75    76   ar
    35    75    77   ar
    36    76    78   ar
    37    66    67    1
    38    86    84    1
    39    32    33    1
    40    32    35    1
    41    29    28   ar
    42    77    79   ar
    43    67    68    1
    44    67    69    1
    45    33    34    2
    46    78    79   ar
    47    80    81    1
    48    38    36   ar
    49    38    40   ar
    50    27    28    1
    51    35    36    1
    52    85    84    1
    53    28    30   ar
    54    36    37   ar
    55    84    81    1
    56    40    39   ar
    57    81    82    1
    58    94    92   ar
    59    37    39   ar
    60   163   162    1
    61    92    91    1
    62    92    93   ar
    63    82    83    2
    64   162   161    1
    65    91    88    1
    66   161   160    1
    67   215   213    1
    68   213   212    1
    69    20    22   ar
    70    20    18   ar
    71    22    21   ar
    72    87    88    1
    73    18    17    1
    74    18    19   ar
    75    16    15    2
    76    17    14    1
    77    88    89    1
    78   156   157    1
    79    21    19   ar
    80   214   212    1
    81   160   157    1
    82   212   209    1
    83   206   204    1
    84   209   208    1
    85   209   210    1
    86   157   158    1
    87   207   205    1
    88   211   210    2
    89   205   204    1
    90    15    14    1
    91    14    13    1
    92   203   202    2
    93   204   201    1
    94    89    95   am
    95    89    90    2
    96   201   202    1
    97   201   200    1
    98   102   100    1
    99   100   101    1
   100   100    99    1
   101    95    96    1
   102   158   159    2
   103   153   155   ar
   104   153   151   ar
   105   170   171    1
   106   170   169    1
   107    13     3   am
   108   155   154   ar
   109    99    96    1
   110   151   150   ar
   111   169   168    1
   112    96    97    1
   113    10     8   ar
   114    10    11   ar
   115   197   195   ar
   116   197   199   ar
   117     8     6   ar
   118   148   147    2
   119     3     4    2
   120     3     2    1
   121   154   152   ar
   122   195   194   ar
   123   150   152   ar
   124   150   149    1
   125   199   198   ar
   126   146   147    1
   127   146   149    1
   128   146   145    1
   129    12    11    1
   130   164   165    1
   131    11     9   ar
   132   168   165    1
   133    97    98    2
   134     6     5    1
   135     6     7   ar
   136   192   191    2
   137     5     2    1
   138   166   165    1
   139   166   167    2
   140     2     1    1
   141   194   193    1
   142   194   196   ar
   143   190   193    1
   144   190   191    1
   145   190   189    1
   146   198   196   ar
   147     9     7   ar
   148   128   127    2
   149   131   129    1
   150   130   132    1
   151   130   129    1
   152   129   126    1
   153   126   127    1
   154   126   125    1
   155   127   133   am
   156   179   177    1
   157   175   174    2
   158   108   107    1
   159   108   109    1
   160   141   139   ar
   161   141   143   ar
   162   144   143    1
   163   136   135    2
   164   178   177    1
   165   139   138   ar
   166   133   134    1
   167   177   176    1
   168   143   142   ar
   169   107   104    1
   170   134   135    1
   171   134   137    1
   172   118   116    1
   173   176   173    1
   174   103   104    1
   175   111   109   am
   176   174   173    1
   177   174   180   am
   178   173   172    1
   179   109   110    2
   180   183   182    2
   181   138   137    1
   182   138   140   ar
   183   104   105    1
   184   142   140   ar
   185   117   116    1
   186   117   119    1
   187   115   114    2
   188   116   113    1
   189   105   106    2
   190   180   181    1
   191   182   181    1
   192   181   184    1
   193   187   186    2
   194   114   113    1
   195   114   120   am
   196   188   186   am
   197   123   122    2
   198   113   112    1
   199   186   185    1
   200   121   120    1
   201   121   122    1
   202   121   124    1
   203   184   185    1
