@<TRIPOS>MOLECULE
tmp/6c7gC00.pdb
 239 228 0 0 0
SMALL
GASTEIGER

@<TRIPOS>ATOM
      1  N         34.5950  -45.3580  -42.3830 N.3    65  TYR65      -0.1227
      2  CA        35.7050  -44.4240  -42.4610 C.3    65  TYR65       0.1736
      3  C         36.5210  -44.3530  -41.1710 C.2    65  TYR65       0.2595
      4  O         37.7560  -44.4570  -41.2100 O.2    65  TYR65      -0.2718
      5  CB        35.2100  -43.0190  -42.8220 C.3    65  TYR65       0.0548
      6  CG        36.3600  -42.0230  -42.9290 C.ar   65  TYR65      -0.0200
      7  CD1       37.1900  -42.0130  -44.0480 C.ar   65  TYR65      -0.0009
      8  CD2       36.6340  -41.1240  -41.9030 C.ar   65  TYR65      -0.0009
      9  CE1       38.2490  -41.1310  -44.1570 C.ar   65  TYR65       0.0417
     10  CE2       37.7130  -40.2330  -42.0030 C.ar   65  TYR65       0.0417
     11  CZ        38.5040  -40.2360  -43.1220 C.ar   65  TYR65       0.1957
     12  OH        39.5580  -39.3510  -43.2220 O.3    65  TYR65      -0.2866
     13  N         35.8450  -44.1780  -40.0360 N.am   66  HIS66      -0.1975
     14  CA        36.5540  -43.9230  -38.7700 C.3    66  HIS66       0.1656
     15  C         37.0230  -45.1890  -38.0510 C.2    66  HIS66       0.2291
     16  O         36.5900  -45.5000  -36.9350 O.2    66  HIS66      -0.2864
     17  CB        35.6780  -43.0680  -37.8580 C.3    66  HIS66       0.0771
     18  CG        35.6630  -41.6200  -38.2510 C.ar   66  HIS66       0.0820
     19  ND1       34.6040  -41.0290  -38.9050 N.ar   66  HIS66      -0.2267
     20  CD2       36.5990  -40.6510  -38.1020 C.ar   66  HIS66       0.1154
     21  CE1       34.8810  -39.7580  -39.1330 C.ar   66  HIS66       0.1986
     22  NE2       36.0910  -39.5010  -38.6490 N.ar   66  HIS66      -0.2212
     23  N         35.4350  -44.5060  -32.0970 N.3   110  HIS110     -0.1241
     24  CA        34.4600  -43.7810  -32.9120 C.3   110  HIS110      0.1621
     25  C         33.3110  -44.7080  -33.2850 C.2   110  HIS110      0.2264
     26  O         33.5430  -45.8820  -33.5910 O.2   110  HIS110     -0.2867
     27  CB        35.1270  -43.2290  -34.1750 C.3   110  HIS110      0.0745
     28  CG        34.4580  -42.0120  -34.7330 C.ar  110  HIS110      0.0817
     29  ND1       33.3080  -42.0690  -35.5020 N.ar  110  HIS110     -0.2268
     30  CD2       34.7790  -40.7010  -34.6310 C.ar  110  HIS110      0.1154
     31  CE1       32.9580  -40.8450  -35.8500 C.ar  110  HIS110      0.1986
     32  NE2       33.8290  -39.9940  -35.3290 N.ar  110  HIS110     -0.2212
     33  N         28.6210  -38.1880  -35.7060 N.3   114  ASN114     -0.1240
     34  CA        29.2000  -36.9350  -35.2250 C.3   114  ASN114      0.1653
     35  C         28.7440  -36.5990  -33.7980 C.2   114  ASN114      0.2266
     36  O         28.0720  -37.3870  -33.1340 O.2   114  ASN114     -0.2867
     37  CB        28.8570  -35.7850  -36.1810 C.3   114  ASN114      0.1155
     38  CG        27.3690  -35.4580  -36.2060 C.2   114  ASN114      0.2627
     39  OD1       26.5780  -36.0520  -35.4760 O.2   114  ASN114     -0.2716
     40  ND2       26.9870  -34.4990  -37.0440 N.am  114  ASN114     -0.0877
     41  N         35.4400  -36.3850  -29.0890 N.3   137  GLU137     -0.1245
     42  CA        36.8610  -36.1570  -28.8640 C.3   137  GLU137      0.1567
     43  C         37.2340  -36.3140  -27.3850 C.2   137  GLU137      0.2260
     44  O         38.3210  -36.8050  -27.0630 O.2   137  GLU137     -0.2867
     45  CB        37.2510  -34.7740  -29.3910 C.3   137  GLU137      0.0388
     46  CG        37.1030  -34.6210  -30.9220 C.3   137  GLU137      0.1160
     47  CD        35.6520  -34.4570  -31.3930 C.2   137  GLU137      0.3649
     48  OE1       34.7850  -33.9640  -30.6260 O.co2 137  GLU137     -0.2457
     49  OE2       35.3760  -34.8340  -32.5520 O.co2 137  GLU137     -0.2457
     50  N         40.9450  -31.9060  -32.7220 N.3   178  THR178     -0.1203
     51  CA        40.4780  -32.6310  -33.8980 C.3   178  THR178      0.1994
     52  C         38.9860  -32.4180  -34.1120 C.2   178  THR178      0.2618
     53  O         38.4650  -32.7880  -35.1510 O.2   178  THR178     -0.2717
     54  CB        40.7680  -34.1730  -33.8290 C.3   178  THR178      0.1784
     55  OG1       40.1120  -34.7500  -32.7050 O.3   178  THR178     -0.2211
     56  CG2       42.2760  -34.4390  -33.7190 C.3   178  THR178      0.0376
     57  N         38.3010  -31.8300  -33.1360 N.am  179  ASP179     -0.1959
     58  CA        36.9050  -31.4490  -33.3380 C.3   179  ASP179      0.1840
     59  C         36.8800  -30.3510  -34.3830 C.2   179  ASP179      0.2622
     60  O         37.5120  -29.2980  -34.2040 O.2   179  ASP179     -0.2715
     61  CB        36.2650  -30.9870  -32.0210 C.3   179  ASP179      0.1450
     62  CG        34.7860  -30.6010  -32.1630 C.2   179  ASP179      0.3671
     63  OD1       34.2090  -30.7060  -33.2600 O.co2 179  ASP179     -0.2456
     64  OD2       34.1910  -30.1970  -31.1410 O.co2 179  ASP179     -0.2456
     65  N         36.2030  -30.6140  -35.4940 N.am  180  LEU180     -0.1963
     66  CA        36.0430  -29.6170  -36.5360 C.3   180  LEU180      0.1728
     67  C         35.5890  -28.2700  -35.9740 C.2   180  LEU180      0.2616
     68  O         36.0420  -27.2220  -36.4260 O.2   180  LEU180     -0.2715
     69  CB        35.0390  -30.1110  -37.5920 C.3   180  LEU180      0.0311
     70  CG        34.7920  -29.1400  -38.7500 C.3   180  LEU180      0.0022
     71  CD1       36.0630  -28.9470  -39.5600 C.3   180  LEU180      0.0001
     72  CD2       33.6230  -29.5850  -39.6380 C.3   180  LEU180      0.0001
     73  N         34.7020  -28.2920  -34.9790 N.am  181  ALA181     -0.1977
     74  CA        34.2130  -27.0530  -34.3910 C.3   181  ALA181      0.1597
     75  C         35.3540  -26.2750  -33.7240 C.2   181  ALA181      0.2287
     76  O         35.3290  -25.0440  -33.6680 O.2   181  ALA181     -0.2864
     77  CB        33.0970  -27.3440  -33.3930 C.3   181  ALA181      0.0319
     78  N         38.5760  -26.3350  -34.7950 N.3   183  HIS183     -0.1226
     79  CA        39.4060  -25.8030  -35.8560 C.3   183  HIS183      0.1752
     80  C         38.8140  -24.5220  -36.4420 C.2   183  HIS183      0.2595
     81  O         39.5280  -23.5510  -36.6620 O.2   183  HIS183     -0.2718
     82  CB        39.5930  -26.8370  -36.9610 C.3   183  HIS183      0.0759
     83  CG        40.1970  -26.2670  -38.1990 C.ar  183  HIS183      0.0818
     84  ND1       41.5200  -25.8860  -38.2670 N.ar  183  HIS183     -0.2268
     85  CD2       39.6570  -25.9730  -39.4020 C.ar  183  HIS183      0.1154
     86  CE1       41.7740  -25.4010  -39.4690 C.ar  183  HIS183      0.1986
     87  NE2       40.6580  -25.4380  -40.1750 N.ar  183  HIS183     -0.2212
     88  N         37.5080  -24.5240  -36.6950 N.am  184  LEU184     -0.1980
     89  CA        36.8750  -23.3720  -37.3140 C.3   184  LEU184      0.1596
     90  C         36.9340  -22.1900  -36.3520 C.2   184  LEU184      0.2287
     91  O         37.0970  -21.0490  -36.7730 O.2   184  LEU184     -0.2864
     92  CB        35.4280  -23.6940  -37.7260 C.3   184  LEU184      0.0297
     93  CG        35.2610  -24.8060  -38.7790 C.3   184  LEU184      0.0022
     94  CD1       33.8600  -25.3980  -38.7850 C.3   184  LEU184      0.0001
     95  CD2       35.6250  -24.3230  -40.1810 C.3   184  LEU184      0.0001
     96  N         45.3460  -31.2610  -37.7460 N.3   215  THR215     -0.1218
     97  CA        44.2440  -31.2510  -38.7040 C.3   215  THR215      0.1862
     98  C         44.7680  -31.5840  -40.1060 C.2   215  THR215      0.2287
     99  O         44.0570  -32.1990  -40.8940 O.2   215  THR215     -0.2866
    100  CB        43.4770  -29.9040  -38.7070 C.3   215  THR215      0.1770
    101  OG1       44.3210  -28.8460  -39.1710 O.3   215  THR215     -0.2211
    102  CG2       42.9780  -29.5800  -37.3010 C.3   215  THR215      0.0375
    103  N         44.7770  -35.3150  -40.1310 N.3   218  ASP218     -0.1225
    104  CA        43.4080  -35.8580  -40.1490 C.3   218  ASP218      0.1805
    105  C         42.8370  -35.8540  -41.5630 C.2   218  ASP218      0.2597
    106  O         42.0380  -36.7280  -41.9380 O.2   218  ASP218     -0.2718
    107  CB        42.4890  -35.0370  -39.2180 C.3   218  ASP218      0.1424
    108  CG        41.4790  -35.8890  -38.4480 C.2   218  ASP218      0.3668
    109  OD1       41.1820  -37.0430  -38.8240 O.co2 218  ASP218     -0.2456
    110  OD2       40.9650  -35.3770  -37.4390 O.co2 218  ASP218     -0.2456
    111  N         43.2150  -34.8570  -42.3500 N.am  219  LEU219     -0.1979
    112  CA        42.6040  -34.6900  -43.6660 C.3   219  LEU219      0.1596
    113  C         43.4970  -35.1440  -44.8170 C.2   219  LEU219      0.2287
    114  O         43.2190  -34.8430  -45.9760 O.2   219  LEU219     -0.2864
    115  CB        42.2110  -33.2260  -43.8780 C.3   219  LEU219      0.0297
    116  CG        41.2350  -32.6930  -42.8270 C.3   219  LEU219      0.0022
    117  CD1       40.6830  -31.3330  -43.2050 C.3   219  LEU219      0.0001
    118  CD2       40.1260  -33.6940  -42.6470 C.3   219  LEU219      0.0001
    119  N         43.2360  -36.4250  -48.6300 N.3   222  GLN222     -0.1245
    120  CA        42.9980  -35.4960  -49.7300 C.3   222  GLN222      0.1566
    121  C         44.2710  -35.0650  -50.4570 C.2   222  GLN222      0.2260
    122  O         44.1930  -34.4010  -51.4970 O.2   222  GLN222     -0.2867
    123  CB        42.2700  -34.2520  -49.2250 C.3   222  GLN222      0.0367
    124  CG        40.9550  -34.5520  -48.5520 C.3   222  GLN222      0.0905
    125  CD        40.0860  -35.4410  -49.4030 C.2   222  GLN222      0.2608
    126  OE1       39.8170  -35.1290  -50.5630 O.2   222  GLN222     -0.2717
    127  NE2       39.6550  -36.5650  -48.8430 N.am  222  GLN222     -0.0878
    128  N         37.8350  -42.5100  -50.4600 N.3   232  ILE232     -0.1231
    129  CA        37.5290  -42.0580  -49.1080 C.3   232  ILE232      0.1692
    130  C         36.1860  -41.2950  -49.0920 C.2   232  ILE232      0.2591
    131  O         35.4670  -41.3490  -48.1020 O.2   232  ILE232     -0.2718
    132  CB        38.6910  -41.2200  -48.5210 C.3   232  ILE232      0.0266
    133  CG1       39.6070  -42.1440  -47.7210 C.3   232  ILE232      0.0019
    134  CG2       38.1710  -40.1330  -47.5970 C.3   232  ILE232      0.0020
    135  CD1       40.1660  -43.3150  -48.5140 C.3   232  ILE232      0.0001
    136  N         35.8190  -40.6400  -50.1960 N.am  233  ALA233     -0.1980
    137  CA        34.4770  -40.0520  -50.2970 C.3   233  ALA233      0.1597
    138  C         33.4100  -41.1260  -50.1670 C.2   233  ALA233      0.2287
    139  O         32.3690  -40.9190  -49.5530 O.2   233  ALA233     -0.2864
    140  CB        34.2950  -39.2980  -51.6210 C.3   233  ALA233      0.0319
    141  N         33.1630  -42.0930  -46.4410 N.3   236  ILE236     -0.1231
    142  CA        32.6280  -40.9930  -45.6600 C.3   236  ILE236      0.1692
    143  C         31.1060  -40.9050  -45.8440 C.2   236  ILE236      0.2592
    144  O         30.3560  -40.7510  -44.8710 O.2   236  ILE236     -0.2718
    145  CB        33.3010  -39.6490  -46.0680 C.3   236  ILE236      0.0266
    146  CG1       34.7030  -39.5460  -45.4590 C.3   236  ILE236      0.0019
    147  CG2       32.4890  -38.4720  -45.5930 C.3   236  ILE236      0.0020
    148  CD1       34.7000  -39.1870  -43.9880 C.3   236  ILE236      0.0001
    149  N         30.6330  -41.0160  -47.0810 N.am  237  TYR237     -0.1976
    150  CA        29.2040  -40.8400  -47.2890 C.3   237  TYR237      0.1639
    151  C         28.4310  -42.0970  -46.8760 C.2   237  TYR237      0.2290
    152  O         27.3070  -41.9950  -46.3860 O.2   237  TYR237     -0.2864
    153  CB        28.9190  -40.4040  -48.7430 C.3   237  TYR237      0.0560
    154  CG        29.3290  -38.9560  -48.9000 C.ar  237  TYR237     -0.0198
    155  CD1       28.6520  -37.9590  -48.2090 C.ar  237  TYR237     -0.0009
    156  CD2       30.4400  -38.5860  -49.6650 C.ar  237  TYR237     -0.0009
    157  CE1       29.0390  -36.6260  -48.2900 C.ar  237  TYR237      0.0417
    158  CE2       30.8280  -37.2540  -49.7620 C.ar  237  TYR237      0.0417
    159  CZ        30.1240  -36.2780  -49.0650 C.ar  237  TYR237      0.1957
    160  OH        30.5050  -34.9490  -49.1290 O.3   237  TYR237     -0.2866
    161  N         28.1140  -41.3170  -43.2450 N.3   240  PHE240     -0.1241
    162  CA        27.1870  -40.2020  -43.0310 C.3   240  PHE240      0.1605
    163  C         25.7380  -40.6580  -43.2590 C.2   240  PHE240      0.2264
    164  O         24.8590  -40.3870  -42.4620 O.2   240  PHE240     -0.2867
    165  CB        27.4640  -39.0280  -43.9860 C.3   240  PHE240      0.0534
    166  CG        28.6200  -38.1420  -43.6050 C.ar  240  PHE240     -0.0203
    167  CD1       29.3290  -38.3360  -42.4450 C.ar  240  PHE240     -0.0042
    168  CD2       28.9740  -37.0780  -44.4330 C.ar  240  PHE240     -0.0042
    169  CE1       30.3830  -37.4900  -42.1210 C.ar  240  PHE240     -0.0003
    170  CE2       30.0160  -36.2340  -44.1190 C.ar  240  PHE240     -0.0003
    171  CZ        30.7190  -36.4350  -42.9660 C.ar  240  PHE240     -0.0000
    172  N         21.0330  -33.3930  -41.3660 N.3   255  MET255     -0.1245
    173  CA        21.5860  -32.3860  -42.2630 C.3   255  MET255      0.1570
    174  C         21.6260  -32.9950  -43.6650 C.2   255  MET255      0.2261
    175  O         21.6620  -34.2230  -43.8150 O.2   255  MET255     -0.2867
    176  CB        22.9710  -31.9220  -41.8080 C.3   255  MET255      0.0387
    177  CG        24.0320  -32.9960  -41.8460 C.3   255  MET255      0.0595
    178  SD        25.4040  -32.6880  -40.6980 S.3   255  MET255     -0.1393
    179  CE        26.1720  -31.2390  -41.4260 C.3   255  MET255      0.0692
    180  N         23.8400  -33.3010  -45.9240 N.3   257  MET257     -0.1230
    181  CA        24.9900  -34.1060  -46.3200 C.3   257  MET257      0.1702
    182  C         24.9010  -35.5180  -45.7390 C.2   257  MET257      0.2592
    183  O         25.6410  -36.4050  -46.1490 O.2   257  MET257     -0.2718
    184  CB        26.3010  -33.4330  -45.9050 C.3   257  MET257      0.0401
    185  CG        26.6030  -33.4740  -44.4110 C.3   257  MET257      0.0596
    186  SD        28.2740  -32.8820  -44.0760 S.3   257  MET257     -0.1393
    187  CE        28.2180  -31.2110  -44.7220 C.3   257  MET257      0.0692
    188  N         23.9820  -35.7380  -44.8020 N.am  258  MET258     -0.1979
    189  CA        23.7990  -37.0750  -44.2460 C.3   258  MET258      0.1605
    190  C         22.4910  -37.7090  -44.7000 C.2   258  MET258      0.2287
    191  O         22.1180  -38.7960  -44.2520 O.2   258  MET258     -0.2864
    192  CB        23.8740  -37.0200  -42.7210 C.3   258  MET258      0.0413
    193  CG        25.2220  -36.5360  -42.2340 C.3   258  MET258      0.0598
    194  SD        25.3970  -36.9460  -40.4970 S.3   258  MET258     -0.1393
    195  CE        27.0160  -36.2500  -40.1340 C.3   258  MET258      0.0692
    196  N         29.0530  -31.3330  -52.4030 N.3   268  LEU268     -0.1231
    197  CA        29.4280  -31.4800  -51.0010 C.3   268  LEU268      0.1693
    198  C         30.9300  -31.6450  -50.8530 C.2   268  LEU268      0.2591
    199  O         31.5440  -31.0080  -49.9990 O.2   268  LEU268     -0.2718
    200  CB        28.7210  -32.6760  -50.3720 C.3   268  LEU268      0.0284
    201  CG        27.1980  -32.5820  -50.3840 C.3   268  LEU268      0.0019
    202  CD1       26.5930  -33.8830  -49.8910 C.3   268  LEU268      0.0001
    203  CD2       26.7930  -31.4100  -49.5120 C.3   268  LEU268      0.0001
    204  N         31.5060  -32.5230  -51.6680 N.am  269  GLN269     -0.1979
    205  CA        32.9520  -32.7660  -51.6230 C.3   269  GLN269      0.1601
    206  C         33.7380  -31.5250  -52.0530 C.2   269  GLN269      0.2287
    207  O         34.7540  -31.1840  -51.4480 O.2   269  GLN269     -0.2864
    208  CB        33.3210  -33.9690  -52.5020 C.3   269  GLN269      0.0394
    209  CG        34.8200  -34.1540  -52.7410 C.3   269  GLN269      0.0908
    210  CD        35.5430  -34.9060  -51.6180 C.2   269  GLN269      0.2608
    211  OE1       34.9190  -35.5930  -50.8120 O.2   269  GLN269     -0.2717
    212  NE2       36.8740  -34.7840  -51.5780 N.am  269  GLN269     -0.0878
    213  N         33.5660  -29.1130  -49.1910 N.3   272  PHE272     -0.1241
    214  CA        34.5060  -29.5560  -48.1570 C.3   272  PHE272      0.1605
    215  C         35.9530  -29.2160  -48.5140 C.2   272  PHE272      0.2264
    216  O         36.7170  -28.7400  -47.6680 O.2   272  PHE272     -0.2867
    217  CB        34.3980  -31.0650  -47.9130 C.3   272  PHE272      0.0534
    218  CG        35.4220  -31.5810  -46.9280 C.ar  272  PHE272     -0.0203
    219  CD1       35.3000  -31.2880  -45.5830 C.ar  272  PHE272     -0.0042
    220  CD2       36.5030  -32.3450  -47.3520 C.ar  272  PHE272     -0.0042
    221  CE1       36.2440  -31.7440  -44.6640 C.ar  272  PHE272     -0.0003
    222  CE2       37.4500  -32.8040  -46.4320 C.ar  272  PHE272     -0.0003
    223  CZ        37.3080  -32.5050  -45.0950 C.ar  272  PHE272     -0.0000
    224  N         37.1750  -26.1100  -46.2080 N.3   276  ILE276     -0.1245
    225  CA        37.7930  -26.7510  -45.0490 C.3   276  ILE276      0.1561
    226  C         39.2240  -27.2470  -45.3430 C.2   276  ILE276      0.2260
    227  O         40.1590  -26.8440  -44.6700 O.2   276  ILE276     -0.2867
    228  CB        36.9650  -27.9530  -44.5340 C.3   276  ILE276      0.0252
    229  CG1       35.5010  -27.5590  -44.2730 C.3   276  ILE276      0.0019
    230  CG2       37.5630  -28.5070  -43.2550 C.3   276  ILE276      0.0019
    231  CD1       35.2970  -26.6720  -43.0820 C.3   276  ILE276      0.0001
    232  N         43.3650  -25.2400  -44.9190 N.3   280  ILE280     -0.1245
    233  CA        44.3110  -25.8510  -43.9980 C.3   280  ILE280      0.1561
    234  C         45.6660  -26.0340  -44.6860 C.2   280  ILE280      0.2260
    235  O         46.7010  -25.6390  -44.1520 O.2   280  ILE280     -0.2867
    236  CB        43.7810  -27.2000  -43.4770 C.3   280  ILE280      0.0252
    237  CG1       42.7940  -26.9480  -42.3360 C.3   280  ILE280      0.0019
    238  CG2       44.9190  -28.1070  -43.0370 C.3   280  ILE280      0.0019
    239  CD1       41.9130  -28.1380  -42.0170 C.3   280  ILE280      0.0001
@<TRIPOS>BOND
     1   209   208    1
     2   209   210    1
     3   208   205    1
     4   196   197    1
     5   206   205    1
     6   206   207    2
     7   204   205    1
     8   204   198   am
     9   140   137    1
    10   210   212   am
    11   210   211    2
    12   122   121    2
    13   197   198    1
    14   197   200    1
    15   198   199    2
    16   126   125    2
    17   128   129    1
    18   121   120    1
    19   201   200    1
    20   201   202    1
    21   201   203    1
    22   137   136    1
    23   137   138    1
    24   136   130   am
    25   138   139    2
    26   158   156   ar
    27   158   159   ar
    28   120   123    1
    29   120   119    1
    30   156   154   ar
    31   125   127   am
    32   125   124    1
    33   123   124    1
    34   213   214    1
    35   160   159    1
    36   129   130    1
    37   129   132    1
    38   130   131    2
    39   159   157   ar
    40   154   153    1
    41   154   155   ar
    42   153   150    1
    43   132   133    1
    44   132   134    1
    45   215   214    1
    46   215   216    2
    47   135   133    1
    48   157   155   ar
    49   214   217    1
    50   217   218    1
    51   220   218   ar
    52   220   222   ar
    53   150   149    1
    54   150   151    1
    55   149   143   am
    56   218   219   ar
    57   151   152    2
    58   141   142    1
    59   222   223   ar
    60   181   180    1
    61   181   184    1
    62   181   182    1
    63   224   225    1
    64   183   182    2
    65   145   142    1
    66   145   147    1
    67   145   146    1
    68   114   113    2
    69   184   185    1
    70   143   142    1
    71   143   144    2
    72   182   188   am
    73   219   221   ar
    74   146   148    1
    75   226   225    1
    76   226   227    2
    77   223   221   ar
    78   225   228    1
    79   232   233    1
    80   113   112    1
    81   188   189    1
    82   187   186    1
    83   190   191    2
    84   190   189    1
    85   234   235    2
    86   234   233    1
    87   228   229    1
    88   228   230    1
    89   168   170   ar
    90   168   166   ar
    91   185   186    1
    92   229   231    1
    93   189   192    1
    94     9     7   ar
    95     9    11   ar
    96   170   171   ar
    97     7     6   ar
    98   233   236    1
    99   165   166    1
   100   165   162    1
   101   115   112    1
   102   115   116    1
   103   175   174    2
   104   112   111    1
   105   174   173    1
   106   166   167   ar
   107   236   238    1
   108   236   237    1
   109   163   162    1
   110   163   164    2
   111   161   162    1
   112    12    11    1
   113   117   116    1
   114    11    10   ar
   115   171   169   ar
   116     6     5    1
   117     6     8   ar
   118   116   118    1
   119     5     2    1
   120   192   193    1
   121     2     1    1
   122     2     3    1
   123   167   169   ar
   124   111   105   am
   125   237   239    1
   126   173   176    1
   127   173   172    1
   128   193   194    1
   129    10     8   ar
   130   106   105    2
   131   177   176    1
   132   177   178    1
   133   105   104    1
   134   179   178    1
   135     4     3    2
   136     3    13   am
   137    99    98    2
   138   194   195    1
   139    95    93    1
   140    87    86   ar
   141    87    85   ar
   142   104   103    1
   143   104   107    1
   144    98    97    1
   145    13    14    1
   146    72    70    1
   147    71    70    1
   148    86    84   ar
   149    85    83   ar
   150   107   108    1
   151   101   100    1
   152    21    19   ar
   153    21    22   ar
   154    19    18   ar
   155   109   108   ar
   156    94    93    1
   157    93    92    1
   158    14    15    1
   159    14    17    1
   160    70    69    1
   161   100    97    1
   162   100   102    1
   163    97    96    1
   164    22    20   ar
   165   108   110   ar
   166    84    83   ar
   167    18    20   ar
   168    18    17    1
   169    83    82    1
   170    15    16    2
   171    92    89    1
   172    69    66    1
   173    89    88    1
   174    89    90    1
   175    40    38   am
   176    82    79    1
   177    91    90    2
   178    88    80   am
   179    81    80    2
   180    66    67    1
   181    66    65    1
   182    80    79    1
   183    68    67    2
   184    38    37    1
   185    38    39    2
   186    37    34    1
   187    67    73   am
   188    79    78    1
   189    31    29   ar
   190    31    32   ar
   191    33    34    1
   192    29    28   ar
   193    65    59   am
   194    32    30   ar
   195    34    35    1
   196    53    52    2
   197    73    74    1
   198    28    30   ar
   199    28    27    1
   200    74    75    1
   201    74    77    1
   202    59    60    2
   203    59    58    1
   204    27    24    1
   205    52    51    1
   206    52    57   am
   207    51    54    1
   208    51    50    1
   209    54    56    1
   210    54    55    1
   211    35    36    2
   212    75    76    2
   213    26    25    2
   214    58    57    1
   215    58    61    1
   216    25    24    1
   217    63    62   ar
   218    24    23    1
   219    49    47   ar
   220    62    61    1
   221    62    64   ar
   222    47    46    1
   223    47    48   ar
   224    46    45    1
   225    45    42    1
   226    41    42    1
   227    42    43    1
   228    43    44    2
