@<TRIPOS>MOLECULE
tmp/6c7jA00.pdb
 191 182 0 0 0
SMALL
GASTEIGER

@<TRIPOS>ATOM
      1  N         10.0960   -5.4370    5.4330 N.3    80  TYR80      -0.1227
      2  CA         8.8400   -4.7050    5.2860 C.3    80  TYR80       0.1736
      3  C          8.1280   -4.9600    3.9390 C.2    80  TYR80       0.2595
      4  O          6.9460   -5.2940    3.9200 O.2    80  TYR80      -0.2718
      5  CB         9.0720   -3.2030    5.4550 C.3    80  TYR80       0.0548
      6  CG         7.8040   -2.3870    5.3540 C.ar   80  TYR80      -0.0200
      7  CD1        6.8380   -2.4480    6.3540 C.ar   80  TYR80      -0.0009
      8  CD2        7.5530   -1.5740    4.2530 C.ar   80  TYR80      -0.0009
      9  CE1        5.6720   -1.7330    6.2710 C.ar   80  TYR80       0.0417
     10  CE2        6.3770   -0.8420    4.1700 C.ar   80  TYR80       0.0417
     11  CZ         5.4450   -0.9280    5.1900 C.ar   80  TYR80       0.1957
     12  OH         4.2690   -0.2040    5.1470 O.3    80  TYR80      -0.2866
     13  N          8.8260   -4.7740    2.8260 N.am   81  HIS81      -0.1975
     14  CA         8.1450   -4.8450    1.5250 C.3    81  HIS81       0.1656
     15  C          7.9500   -6.2660    1.0220 C.2    81  HIS81       0.2291
     16  O          8.4710   -6.6530   -0.0270 O.2    81  HIS81      -0.2864
     17  CB         8.8880   -4.0090    0.4910 C.3    81  HIS81       0.0771
     18  CG         8.7180   -2.5370    0.7050 C.ar   81  HIS81       0.0820
     19  ND1        9.7320   -1.7280    1.1730 N.ar   81  HIS81      -0.2267
     20  CD2        7.6240   -1.7440    0.5790 C.ar   81  HIS81       0.1154
     21  CE1        9.2770   -0.4900    1.3010 C.ar   81  HIS81       0.1986
     22  NE2        8.0040   -0.4740    0.9470 N.ar   81  HIS81      -0.2212
     23  N          1.6590    6.3840   -8.2340 N.3   192  ALA192     -0.1231
     24  CA         1.3260    7.3060   -7.1530 C.3   192  ALA192      0.1694
     25  C          1.9780    6.9090   -5.8180 C.2   192  ALA192      0.2593
     26  O          1.9490    7.6860   -4.8740 O.2   192  ALA192     -0.2718
     27  CB        -0.2210    7.4100   -6.9800 C.3   192  ALA192      0.0304
     28  N          2.5700    5.7170   -5.7300 N.am  193  THR193     -0.1939
     29  CA         3.1690    5.2900   -4.4560 C.3   193  THR193      0.2028
     30  C          4.6290    5.7550   -4.3170 C.2   193  THR193      0.2642
     31  O          5.2980    5.4500   -3.3260 O.2   193  THR193     -0.2714
     32  CB         3.1120    3.7590   -4.2720 C.3   193  THR193      0.1808
     33  OG1        3.7950    3.1070   -5.3510 O.3   193  THR193     -0.2208
     34  CG2        1.6610    3.2670   -4.2050 C.3   193  THR193      0.0379
     35  N          5.1180    6.4760   -5.3210 N.am  194  ASP194     -0.1957
     36  CA         6.4310    7.1210   -5.2500 C.3   194  ASP194      0.1840
     37  C          6.2530    8.4250   -4.4670 C.2   194  ASP194      0.2621
     38  O          5.4280    9.2470   -4.8390 O.2   194  ASP194     -0.2715
     39  CB         6.9780    7.3710   -6.6650 C.3   194  ASP194      0.1450
     40  CG         8.3890    7.9830   -6.6740 C.2   194  ASP194      0.3671
     41  OD1        9.0040    8.1640   -5.6080 O.co2 194  ASP194     -0.2456
     42  OD2        8.8760    8.2810   -7.7680 O.co2 194  ASP194     -0.2456
     43  N          6.9830    8.6080   -3.3680 N.am  195  LEU195     -0.1977
     44  CA         6.7980    9.8210   -2.5580 C.3   195  LEU195      0.1596
     45  C          7.0180   11.0970   -3.3930 C.2   195  LEU195      0.2287
     46  O          6.3590   12.1080   -3.1690 O.2   195  LEU195     -0.2864
     47  CB         7.7380    9.8160   -1.3460 C.3   195  LEU195      0.0297
     48  CG         7.7170   11.0460   -0.4210 C.3   195  LEU195      0.0022
     49  CD1        6.3930   11.1770    0.3250 C.3   195  LEU195      0.0001
     50  CD2        8.8920   11.0250    0.5540 C.3   195  LEU195      0.0001
     51  N          3.6630   11.9500   -4.8320 N.3   198  HIS198     -0.1241
     52  CA         2.8000   12.5170   -3.8160 C.3   198  HIS198      0.1621
     53  C          3.1520   13.9720   -3.5410 C.2   198  HIS198      0.2264
     54  O          2.2710   14.8200   -3.4650 O.2   198  HIS198     -0.2867
     55  CB         2.8840   11.7050   -2.5110 C.3   198  HIS198      0.0745
     56  CG         2.1000   12.3060   -1.3850 C.ar  198  HIS198      0.0817
     57  ND1        0.7250   12.3960   -1.4050 N.ar  198  HIS198     -0.2268
     58  CD2        2.4960   12.8840   -0.2270 C.ar  198  HIS198      0.1154
     59  CE1        0.3060   12.9910   -0.3020 C.ar  198  HIS198      0.1986
     60  NE2        1.3600   13.2890    0.4360 N.ar  198  HIS198     -0.2212
     61  N         -2.2580    6.0080   -1.5210 N.3   230  THR230     -0.1218
     62  CA        -1.2250    6.3450   -0.5420 C.3   230  THR230      0.1862
     63  C         -1.7450    6.1170    0.8910 C.2   230  THR230      0.2287
     64  O         -0.9610    5.7770    1.7900 O.2   230  THR230     -0.2866
     65  CB        -0.6950    7.7870   -0.7060 C.3   230  THR230      0.1770
     66  OG1       -1.7690    8.7240   -0.5890 O.3   230  THR230     -0.2211
     67  CG2        0.0120    7.9760   -2.0620 C.3   230  THR230      0.0375
     68  N         -1.2600    2.4320    1.4460 N.3   233  ASP233     -0.1225
     69  CA         0.1580    2.1600    1.6260 C.3   233  ASP233      0.1805
     70  C          0.6330    2.4290    3.0740 C.2   233  ASP233      0.2597
     71  O          1.5150    1.7270    3.5840 O.2   233  ASP233     -0.2718
     72  CB         0.9760    3.0090    0.6390 C.3   233  ASP233      0.1424
     73  CG         2.1610    2.2660    0.0520 C.2   233  ASP233      0.3668
     74  OD1        2.5500    1.2190    0.6050 O.co2 233  ASP233     -0.2456
     75  OD2        2.7220    2.7490   -0.9640 O.co2 233  ASP233     -0.2456
     76  N          0.0310    3.4290    3.7210 N.am  234  LEU234     -0.1979
     77  CA         0.4160    3.8740    5.0660 C.3   234  LEU234      0.1596
     78  C         -0.5000    3.3300    6.1580 C.2   234  LEU234      0.2287
     79  O         -0.4200    3.7500    7.3100 O.2   234  LEU234     -0.2864
     80  CB         0.4000    5.3970    5.1400 C.3   234  LEU234      0.0297
     81  CG         1.3740    6.1270    4.2030 C.3   234  LEU234      0.0022
     82  CD1        1.2790    7.6430    4.3800 C.3   234  LEU234      0.0001
     83  CD2        2.8090    5.6570    4.4310 C.3   234  LEU234      0.0001
     84  N         -0.2000    2.6940   10.0700 N.3   237  GLN237     -0.1245
     85  CA        -0.1960    3.7640   11.0550 C.3   237  GLN237      0.1566
     86  C         -1.5870    4.0330   11.6470 C.2   237  GLN237      0.2260
     87  O         -1.7180    4.8290   12.5710 O.2   237  GLN237     -0.2867
     88  CB         0.3570    5.0500   10.4380 C.3   237  GLN237      0.0367
     89  CG         1.7510    4.9010    9.8320 C.3   237  GLN237      0.0905
     90  CD         2.7350    4.2950   10.8230 C.2   237  GLN237      0.2608
     91  OE1        2.7800    4.6890   11.9900 O.2   237  GLN237     -0.2717
     92  NE2        3.5220    3.3250   10.3600 N.am  237  GLN237     -0.0878
     93  N          5.9480   -2.1400   12.8030 N.3   247  ILE247     -0.1245
     94  CA         6.2660   -1.7710   11.4370 C.3   247  ILE247      0.1561
     95  C          7.4990   -0.8430   11.4280 C.2   247  ILE247      0.2260
     96  O          8.2830   -0.8660   10.4750 O.2   247  ILE247     -0.2867
     97  CB         5.0240   -1.1490   10.7370 C.3   247  ILE247      0.0252
     98  CG1        4.2320   -2.2300    9.9860 C.3   247  ILE247      0.0019
     99  CG2        5.4300   -0.0700    9.7440 C.3   247  ILE247      0.0019
    100  CD1        3.9060   -3.4870   10.7590 C.3   247  ILE247      0.0001
    101  N         10.5770   -1.6770    8.9940 N.3   251  ILE251     -0.1231
    102  CA        11.0770   -0.7980    7.9580 C.3   251  ILE251      0.1692
    103  C         12.4860   -0.3030    8.2660 C.2   251  ILE251      0.2592
    104  O         13.2660   -0.1110    7.3410 O.2   251  ILE251     -0.2718
    105  CB        10.1460    0.3890    7.6920 C.3   251  ILE251      0.0266
    106  CG1       10.3330    0.8430    6.2420 C.3   251  ILE251      0.0019
    107  CG2       10.3920    1.5280    8.6560 C.3   251  ILE251      0.0020
    108  CD1        9.1760    1.6140    5.6800 C.3   251  ILE251      0.0001
    109  N         12.8410   -0.1260    9.5380 N.am  252  TYR252     -0.1976
    110  CA        14.2060    0.3340    9.8220 C.3   252  TYR252      0.1639
    111  C         15.2090   -0.8120    9.6370 C.2   252  TYR252      0.2290
    112  O         16.3320   -0.5720    9.1800 O.2   252  TYR252     -0.2864
    113  CB        14.2970    1.0000   11.2190 C.3   252  TYR252      0.0560
    114  CG        13.7150    2.3890   11.1170 C.ar  252  TYR252     -0.0198
    115  CD1       14.3870    3.3910   10.4060 C.ar  252  TYR252     -0.0009
    116  CD2       12.4460    2.6720   11.6040 C.ar  252  TYR252     -0.0009
    117  CE1       13.8300    4.6490   10.2420 C.ar  252  TYR252      0.0417
    118  CE2       11.8780    3.9170   11.4440 C.ar  252  TYR252      0.0417
    119  CZ        12.5620    4.9030   10.7640 C.ar  252  TYR252      0.1957
    120  OH        11.9680    6.1400   10.6130 O.3   252  TYR252     -0.2866
    121  N         15.7200   -0.5210    6.0490 N.3   255  PHE255     -0.1241
    122  CA        16.4810    0.6800    5.7170 C.3   255  PHE255      0.1605
    123  C         17.9580    0.4950    6.0240 C.2   255  PHE255      0.2264
    124  O         18.8180    0.8350    5.2120 O.2   255  PHE255     -0.2867
    125  CB        15.9810    1.9020    6.5030 C.3   255  PHE255      0.0534
    126  CG        14.6990    2.4940    5.9850 C.ar  255  PHE255     -0.0203
    127  CD1       14.0780    1.9840    4.8600 C.ar  255  PHE255     -0.0042
    128  CD2       14.1230    3.5770    6.6310 C.ar  255  PHE255     -0.0042
    129  CE1       12.8890    2.5390    4.3910 C.ar  255  PHE255     -0.0003
    130  CE2       12.9450    4.1380    6.1600 C.ar  255  PHE255     -0.0003
    131  CZ        12.3340    3.6170    5.0370 C.ar  255  PHE255     -0.0000
    132  N         21.6130    8.0180    3.4660 N.3   270  MET270     -0.1245
    133  CA        20.7220    8.9360    4.1560 C.3   270  MET270      0.1570
    134  C         20.7920    8.5920    5.6300 C.2   270  MET270      0.2261
    135  O         20.8860    7.4100    5.9890 O.2   270  MET270     -0.2867
    136  CB        19.2650    8.8080    3.6810 C.3   270  MET270      0.0387
    137  CG        19.0170    9.0990    2.2250 C.3   270  MET270      0.0595
    138  SD        17.2340    8.8810    1.9210 S.3   270  MET270     -0.1393
    139  CE        16.5600   10.2330    2.8920 C.3   270  MET270      0.0692
    140  N         18.5040    8.3650    7.9110 N.3   272  MET272     -0.1245
    141  CA        17.4830    7.3990    8.3090 C.3   272  MET272      0.1570
    142  C         17.8130    5.9600    7.8990 C.2   272  MET272      0.2261
    143  O         17.1550    5.0110    8.3490 O.2   272  MET272     -0.2867
    144  CB        16.1230    7.7890    7.7140 C.3   272  MET272      0.0387
    145  CG        15.9730    7.5130    6.2100 C.3   272  MET272      0.0595
    146  SD        14.2860    7.9370    5.6540 S.3   272  MET272     -0.1393
    147  CE        14.1730    7.0150    4.1210 C.3   272  MET272      0.0692
    148  N         12.7350   10.1700   13.7040 N.3   283  LEU283     -0.1231
    149  CA        12.4560    9.8360   12.3110 C.3   283  LEU283      0.1693
    150  C         11.0170    9.3940   12.1280 C.2   283  LEU283      0.2591
    151  O         10.3680    9.7660   11.1520 O.2   283  LEU283     -0.2718
    152  CB        13.3950    8.7470   11.8160 C.3   283  LEU283      0.0284
    153  CG        14.8740    9.1400   11.8210 C.3   283  LEU283      0.0019
    154  CD1       15.7080    7.9220   11.5120 C.3   283  LEU283      0.0001
    155  CD2       15.1350   10.2480   10.8090 C.3   283  LEU283      0.0001
    156  N         10.5160    8.6010   13.0660 N.am  284  GLN284     -0.1979
    157  CA         9.1340    8.1270   12.9550 C.3   284  GLN284      0.1601
    158  C          8.1700    9.2940   13.1840 C.2   284  GLN284      0.2287
    159  O          7.1730    9.4370   12.4840 O.2   284  GLN284     -0.2864
    160  CB         8.8930    6.9920   13.9500 C.3   284  GLN284      0.0394
    161  CG         7.4560    6.6160   14.1760 C.3   284  GLN284      0.0908
    162  CD         6.8810    5.7230   13.0880 C.2   284  GLN284      0.2608
    163  OE1        7.6180    5.0480   12.3540 O.2   284  GLN284     -0.2717
    164  NE2        5.5450    5.7110   12.9840 N.am  284  GLN284     -0.0878
    165  N          8.1650   11.3300    9.9130 N.3   287  PHE287     -0.1241
    166  CA         7.3780   10.6260    8.8940 C.3   287  PHE287      0.1605
    167  C          5.8750   10.7830    9.1460 C.2   287  PHE287      0.2264
    168  O          5.0770   10.9890    8.2080 O.2   287  PHE287     -0.2867
    169  CB         7.7820    9.1430    8.8670 C.3   287  PHE287      0.0534
    170  CG         6.6840    8.2160    8.4350 C.ar  287  PHE287     -0.0203
    171  CD1        6.3320    8.1050    7.0930 C.ar  287  PHE287     -0.0042
    172  CD2        5.9930    7.4610    9.3710 C.ar  287  PHE287     -0.0042
    173  CE1        5.3030    7.2550    6.6840 C.ar  287  PHE287     -0.0003
    174  CE2        4.9790    6.6030    8.9760 C.ar  287  PHE287     -0.0003
    175  CZ         4.6330    6.5000    7.6190 C.ar  287  PHE287     -0.0000
    176  N          4.3940   13.1030    6.3580 N.3   291  ILE291     -0.1245
    177  CA         3.8390   12.2160    5.3450 C.3   291  ILE291      0.1561
    178  C          2.4750   11.6440    5.7400 C.2   291  ILE291      0.2260
    179  O          1.4910   11.9050    5.0630 O.2   291  ILE291     -0.2867
    180  CB         4.8370   11.0880    5.0110 C.3   291  ILE291      0.0252
    181  CG1        6.1700   11.7230    4.5930 C.3   291  ILE291      0.0019
    182  CG2        4.3040   10.2070    3.8810 C.3   291  ILE291      0.0019
    183  CD1        7.2700   10.7400    4.3120 C.3   291  ILE291      0.0001
    184  N         -1.7800   13.0770    4.8090 N.3   295  ILE295     -0.1245
    185  CA        -2.5470   12.2180    3.9210 C.3   295  ILE295      0.1561
    186  C         -3.8900   11.8600    4.5660 C.2   295  ILE295      0.2260
    187  O         -4.9190   11.9240    3.9120 O.2   295  ILE295     -0.2867
    188  CB        -1.7560   10.9580    3.5430 C.3   295  ILE295      0.0252
    189  CG1       -0.8170   11.2950    2.3750 C.3   295  ILE295      0.0019
    190  CG2       -2.6870    9.8100    3.1720 C.3   295  ILE295      0.0019
    191  CD1        0.1680   10.2250    2.0490 C.3   295  ILE295      0.0001
@<TRIPOS>BOND
     1    23    24    1
     2    42    40   ar
     3    24    27    1
     4    24    25    1
     5    40    39    1
     6    40    41   ar
     7    39    36    1
     8    25    28   am
     9    25    26    2
    10    28    29    1
    11    33    32    1
    12    35    36    1
    13    35    30   am
    14    36    37    1
    15    38    37    2
    16    51    52    1
    17    37    43   am
    18    29    30    1
    19    29    32    1
    20    30    31    2
    21    32    34    1
    22    52    53    1
    23    52    55    1
    24    53    54    2
    25    45    46    2
    26    45    44    1
    27    43    44    1
    28    44    47    1
    29    55    56    1
    30    67    65    1
    31    61    62    1
    32    57    56   ar
    33    57    59   ar
    34    56    58   ar
    35    47    48    1
    36    75    73   ar
    37    65    66    1
    38    65    62    1
    39    62    63    1
    40    48    49    1
    41    48    50    1
    42    59    60   ar
    43    58    60   ar
    44    16    15    2
    45    73    74   ar
    46    73    72    1
    47    17    18    1
    48    17    14    1
    49    20    18   ar
    50    20    22   ar
    51    72    69    1
    52    18    19   ar
    53    63    64    2
    54    22    21   ar
    55    15    14    1
    56    19    21   ar
    57    68    69    1
    58    14    13    1
    59    69    70    1
    60   138   137    1
    61   138   139    1
    62   191   189    1
    63   137   136    1
    64   189   188    1
    65    13     3   am
    66    70    71    2
    67    70    76   am
    68   190   188    1
    69   132   133    1
    70   188   185    1
    71   136   133    1
    72    76    77    1
    73   182   180    1
    74   187   186    2
    75     4     3    2
    76   185   186    1
    77   185   184    1
    78     3     2    1
    79   147   146    1
    80   133   134    1
    81    10     8   ar
    82    10    11   ar
    83    81    82    1
    84    81    83    1
    85    81    80    1
    86     8     6   ar
    87   183   181    1
    88   129   127   ar
    89   129   131   ar
    90   181   180    1
    91   127   126   ar
    92   180   177    1
    93   131   130   ar
    94   179   178    2
    95    77    80    1
    96    77    78    1
    97    12    11    1
    98    11     9   ar
    99   124   123    2
   100     2     1    1
   101     2     5    1
   102   177   178    1
   103   177   176    1
   104     6     5    1
   105     6     7   ar
   106   134   135    2
   107   146   145    1
   108   108   106    1
   109   122   123    1
   110   122   121    1
   111   122   125    1
   112   126   125    1
   113   126   128   ar
   114    78    79    2
   115   130   128   ar
   116   145   144    1
   117   106   105    1
   118     9     7   ar
   119   173   171   ar
   120   173   175   ar
   121   171   170   ar
   122   104   103    2
   123   175   174   ar
   124   105   102    1
   125   105   107    1
   126   144   141    1
   127   142   141    1
   128   142   143    2
   129   140   141    1
   130   102   103    1
   131   102   101    1
   132   168   167    2
   133   103   109   am
   134   170   169    1
   135   170   172   ar
   136   169   166    1
   137   166   167    1
   138   166   165    1
   139   174   172   ar
   140   112   111    2
   141   109   110    1
   142   111   110    1
   143    99    97    1
   144   110   113    1
   145    89    88    1
   146    89    90    1
   147    98    97    1
   148    98   100    1
   149    84    85    1
   150   117   115   ar
   151   117   119   ar
   152    92    90   am
   153   115   114   ar
   154    88    85    1
   155    96    95    2
   156   120   119    1
   157    97    94    1
   158   119   118   ar
   159   155   153    1
   160    90    91    2
   161    85    86    1
   162   114   113    1
   163   114   116   ar
   164   151   150    2
   165    95    94    1
   166    94    93    1
   167   118   116   ar
   168   154   153    1
   169    86    87    2
   170   152   153    1
   171   152   149    1
   172   150   149    1
   173   150   156   am
   174   149   148    1
   175   163   162    2
   176   159   158    2
   177   157   156    1
   178   157   158    1
   179   157   160    1
   180   164   162   am
   181   162   161    1
   182   160   161    1
