@<TRIPOS>MOLECULE
tmp/6c7mA00.pdb
 88 84 0 0 0
SMALL
GASTEIGER

@<TRIPOS>ATOM
      1  N         -7.5120  -21.6700  -13.6170 N.3    10  ILE10      -0.1245
      2  CA        -6.6860  -21.0260  -12.5990 C.3    10  ILE10       0.1561
      3  C         -5.4080  -20.5610  -13.2680 C.2    10  ILE10       0.2260
      4  O         -4.7380  -21.3460  -13.9530 O.2    10  ILE10      -0.2867
      5  CB        -6.3470  -22.0050  -11.4650 C.3    10  ILE10       0.0252
      6  CG1       -7.6020  -22.4710  -10.7600 C.3    10  ILE10       0.0019
      7  CG2       -5.4770  -21.3020  -10.4310 C.3    10  ILE10       0.0019
      8  CD1       -7.3470  -22.9070   -9.4070 C.3    10  ILE10       0.0001
      9  N         -9.5710  -17.3070  -13.1430 N.3    49  TRP49      -0.1241
     10  CA        -9.2620  -17.0140  -11.7500 C.3    49  TRP49       0.1605
     11  C         -7.7600  -16.7860  -11.6180 C.2    49  TRP49       0.2264
     12  O         -6.9690  -17.6970  -11.8860 O.2    49  TRP49      -0.2867
     13  CB        -9.7090  -18.1750  -10.8610 C.3    49  TRP49       0.0550
     14  CG       -11.2210  -18.3280  -10.7710 C.ar   49  TRP49       0.0003
     15  CD1      -12.1630  -17.3940  -11.1030 C.ar   49  TRP49       0.0946
     16  CD2      -11.9480  -19.4790  -10.3050 C.ar   49  TRP49       0.0152
     17  NE1      -13.4250  -17.8900  -10.8600 N.ar   49  TRP49      -0.2442
     18  CE2      -13.3160  -19.1670  -10.3790 C.ar   49  TRP49       0.0810
     19  CE3      -11.5720  -20.7370   -9.8270 C.ar   49  TRP49       0.0012
     20  CZ2      -14.3100  -20.0720   -9.9960 C.ar   49  TRP49       0.0191
     21  CZ3      -12.5530  -21.6320   -9.4550 C.ar   49  TRP49       0.0001
     22  CH2      -13.9050  -21.3000   -9.5430 C.ar   49  TRP49       0.0015
     23  N        -11.9880  -13.3990  -11.8170 N.3    79  GLY79      -0.1210
     24  CA       -11.9750  -13.3320  -10.3660 C.3    79  GLY79       0.1956
     25  C        -10.5830  -13.5890   -9.8380 C.2    79  GLY79       0.2612
     26  O         -9.6560  -13.9500  -10.5720 O.2    79  GLY79      -0.2717
     27  N        -10.4630  -13.4140   -8.5260 N.am   80  GLY80      -0.1942
     28  CA        -9.2110  -13.6620   -7.8400 C.3    80  GLY80       0.2014
     29  C         -8.7270  -12.3970   -7.1810 C.2    80  GLY80       0.2639
     30  O         -8.0290  -11.6000   -7.8030 O.2    80  GLY80      -0.2714
     31  N         -9.1510  -12.1780   -5.9420 N.am   81  GLY81      -0.1954
     32  CA        -8.7100  -11.0200   -5.1960 C.3    81  GLY81       0.1869
     33  C         -9.2760   -9.6950   -5.6580 C.2    81  GLY81       0.2309
     34  O         -8.6230   -8.6650   -5.4870 O.2    81  GLY81      -0.2863
     35  N        -16.2980  -12.1910  -10.3870 N.3   100  GLU100     -0.1231
     36  CA       -16.6120  -13.2010   -9.3810 C.3   100  GLU100      0.1699
     37  C        -15.8940  -12.7850   -8.1060 C.2   100  GLU100      0.2592
     38  O        -14.6650  -12.6730   -8.0990 O.2   100  GLU100     -0.2718
     39  CB       -16.1190  -14.5670   -9.8680 C.3   100  GLU100      0.0402
     40  CG       -16.7970  -15.7810   -9.2420 C.3   100  GLU100      0.1161
     41  CD       -16.6380  -17.0540  -10.0790 C.2   100  GLU100      0.3649
     42  OE1      -16.0980  -17.0000  -11.2050 O.co2 100  GLU100     -0.2457
     43  OE2      -17.0690  -18.1200   -9.5970 O.co2 100  GLU100     -0.2457
     44  N        -16.6640  -12.5280   -7.0500 N.am  101  ILE101     -0.1966
     45  CA       -16.1370  -12.0360   -5.7810 C.3   101  ILE101      0.1727
     46  C        -16.5550  -12.9720   -4.6550 C.2   101  ILE101      0.2616
     47  O        -17.6060  -13.6160   -4.7020 O.2   101  ILE101     -0.2715
     48  CB       -16.5760  -10.5810   -5.5160 C.3   101  ILE101      0.0290
     49  CG1      -18.1030  -10.4460   -5.4760 C.3   101  ILE101      0.0022
     50  CG2      -16.0190   -9.6570   -6.6070 C.3   101  ILE101      0.0023
     51  CD1      -18.6130   -9.0100   -5.2110 C.3   101  ILE101      0.0001
     52  N        -15.7090  -13.0440   -3.6250 N.am  102  ASN102     -0.1972
     53  CA       -15.9660  -13.8980   -2.4670 C.3   102  ASN102      0.1688
     54  C        -15.6240  -13.1540   -1.1770 C.2   102  ASN102      0.2292
     55  O        -16.4940  -12.4950   -0.6030 O.2   102  ASN102     -0.2864
     56  CB       -15.2240  -15.2420   -2.5670 C.3   102  ASN102      0.1181
     57  CG       -15.4640  -16.1460   -1.3390 C.2   102  ASN102      0.2629
     58  OD1      -16.1920  -15.7940   -0.4160 O.2   102  ASN102     -0.2716
     59  ND2      -14.8700  -17.3350   -1.3640 N.am  102  ASN102     -0.0877
     60  N        -19.1850  -15.9170   -5.2910 N.3   127  TYR127     -0.1241
     61  CA       -18.7420  -17.2730   -4.9900 C.3   127  TYR127      0.1605
     62  C        -18.8600  -17.4770   -3.4840 C.2   127  TYR127      0.2264
     63  O        -18.2820  -16.7020   -2.7060 O.2   127  TYR127     -0.2867
     64  CB       -17.3000  -17.4680   -5.4520 C.3   127  TYR127      0.0534
     65  CG       -16.8270  -18.9110   -5.3580 C.ar  127  TYR127     -0.0201
     66  CD1      -16.5770  -19.5030   -4.1230 C.ar  127  TYR127     -0.0009
     67  CD2      -16.6560  -19.6920   -6.5030 C.ar  127  TYR127     -0.0009
     68  CE1      -16.1640  -20.8280   -4.0280 C.ar  127  TYR127      0.0417
     69  CE2      -16.2370  -21.0140   -6.4230 C.ar  127  TYR127      0.0417
     70  CZ       -16.0000  -21.5740   -5.1900 C.ar  127  TYR127      0.1957
     71  OH       -15.5950  -22.8820   -5.1070 O.3   127  TYR127     -0.2866
     72  N         -9.8130  -18.3640    0.9860 N.3   143  SER143     -0.1217
     73  CA        -9.5060  -19.6730    0.3960 C.3   143  SER143      0.1889
     74  C         -9.7280  -20.8110    1.3890 C.2   143  SER143      0.2288
     75  O         -8.9240  -21.7420    1.4950 O.2   143  SER143     -0.2866
     76  CB        -8.0930  -19.7130   -0.1880 C.3   143  SER143      0.2089
     77  OG        -7.8550  -18.5860   -1.0160 O.3   143  SER143     -0.2183
     78  N        -17.0060  -27.8390   -7.2130 N.3   201  ARG201     -0.1245
     79  CA       -16.2690  -28.7810   -6.3550 C.3   201  ARG201      0.1563
     80  C        -16.8960  -30.1720   -6.3110 C.2   201  ARG201      0.2260
     81  O        -18.0760  -30.3170   -5.9780 O.2   201  ARG201     -0.2867
     82  CB       -16.0460  -28.2790   -4.9170 C.3   201  ARG201      0.0307
     83  CG       -15.3940  -26.9090   -4.7960 C.3   201  ARG201      0.0489
     84  CD       -14.0390  -26.8790   -5.4680 C.3   201  ARG201      0.2205
     85  NE       -13.2380  -25.7520   -4.9830 N.pl3 201  ARG201     -0.0865
     86  CZ       -12.0860  -25.3740   -5.5200 C.cat 201  ARG201      0.5346
     87  NH1      -11.5900  -26.0180   -6.5650 N.pl3 201  ARG201      0.1354
     88  NH2      -11.4360  -24.3340   -5.0160 N.pl3 201  ARG201      0.1354
@<TRIPOS>BOND
     1     4     3    2
     2     1     2    1
     3     3     2    1
     4     9    10    1
     5     2     5    1
     6    12    11    2
     7    23    24    1
     8    10    11    1
     9    10    13    1
    10     5     6    1
    11     5     7    1
    12    42    41   ar
    13    15    17   ar
    14    15    14   ar
    15    13    14    1
    16    17    18   ar
    17    14    16   ar
    18     6     8    1
    19    26    25    2
    20    35    36    1
    21    18    16   ar
    22    18    20   ar
    23    24    25    1
    24    16    19   ar
    25    41    43   ar
    26    41    40    1
    27    20    22   ar
    28    39    36    1
    29    39    40    1
    30    25    27   am
    31    19    21   ar
    32    22    21   ar
    33    36    37    1
    34    27    28    1
    35    37    38    2
    36    37    44   am
    37    28    29    1
    38    30    29    2
    39    78    79    1
    40    29    31   am
    41    44    45    1
    42    50    48    1
    43    87    86    1
    44    67    69   ar
    45    67    65   ar
    46    69    70   ar
    47    79    80    1
    48    79    82    1
    49    80    81    2
    50    31    32    1
    51    45    48    1
    52    45    46    1
    53    33    34    2
    54    33    32    1
    55    86    88    1
    56    86    85    2
    57    48    49    1
    58    49    51    1
    59    84    85    1
    60    84    83    1
    61    64    65    1
    62    64    61    1
    63    65    66   ar
    64    60    61    1
    65    70    71    1
    66    70    68   ar
    67    61    62    1
    68    82    83    1
    69    47    46    2
    70    46    52   am
    71    66    68   ar
    72    52    53    1
    73    62    63    2
    74    56    53    1
    75    56    57    1
    76    53    54    1
    77    59    57   am
    78    57    58    2
    79    54    55    2
    80    77    76    1
    81    76    73    1
    82    73    72    1
    83    73    74    1
    84    74    75    2
