@<TRIPOS>MOLECULE
tmp/6c7nB01.pdb
 83 80 0 0 0
SMALL
GASTEIGER

@<TRIPOS>ATOM
      1  N        -69.5040  -33.9260    2.6060 N.3   299  LEU299     -0.1245
      2  CA       -68.2270  -34.6070    2.6380 C.3   299  LEU299      0.1561
      3  C        -67.8290  -34.5540    4.1190 C.2   299  LEU299      0.2260
      4  O        -67.5920  -33.4700    4.6570 O.2   299  LEU299     -0.2867
      5  CB       -67.1500  -33.9370    1.7730 C.3   299  LEU299      0.0270
      6  CG       -65.8620  -34.7520    1.7040 C.3   299  LEU299      0.0019
      7  CD1      -66.0430  -35.9980    0.8100 C.3   299  LEU299      0.0001
      8  CD2      -64.6790  -33.8860    1.2330 C.3   299  LEU299      0.0001
      9  N        -70.8450  -38.5940    2.5720 N.3   334  VAL334     -0.1231
     10  CA       -69.6650  -39.3390    2.1380 C.3   334  VAL334      0.1692
     11  C        -68.6670  -39.2740    3.3020 C.2   334  VAL334      0.2592
     12  O        -68.3080  -38.1780    3.7410 O.2   334  VAL334     -0.2718
     13  CB       -69.0730  -38.7270    0.8370 C.3   334  VAL334      0.0266
     14  CG1      -67.7240  -39.3750    0.4660 C.3   334  VAL334      0.0020
     15  CG2      -70.0680  -38.8260   -0.3310 C.3   334  VAL334      0.0020
     16  N        -68.2450  -40.4330    3.8300 N.am  335  ASP335     -0.1960
     17  CA       -67.2310  -40.4290    4.8850 C.3   335  ASP335      0.1840
     18  C        -65.8740  -40.8550    4.2710 C.2   335  ASP335      0.2623
     19  O        -65.7430  -40.8480    3.0410 O.2   335  ASP335     -0.2715
     20  CB       -67.6710  -41.2970    6.0840 C.3   335  ASP335      0.1450
     21  CG       -67.8310  -42.7930    5.8330 C.2   335  ASP335      0.3671
     22  OD1      -67.4540  -43.2690    4.7380 O.co2 335  ASP335     -0.2456
     23  OD2      -68.3330  -43.4870    6.7290 O.co2 335  ASP335     -0.2456
     24  N        -64.8760  -41.2380    5.0900 N.am  336  SER336     -0.1936
     25  CA       -63.5740  -41.6550    4.5470 C.3   336  SER336      0.2055
     26  C        -63.6230  -42.9330    3.6950 C.2   336  SER336      0.2643
     27  O        -62.6460  -43.2250    3.0170 O.2   336  SER336     -0.2714
     28  CB       -62.5430  -41.8300    5.6600 C.3   336  SER336      0.2130
     29  OG       -62.8830  -42.9840    6.4110 O.3   336  SER336     -0.2179
     30  N        -64.7240  -43.7100    3.7700 N.am  337  LYS337     -0.1963
     31  CA       -64.8760  -44.9500    3.0040 C.3   337  LYS337      0.1728
     32  C        -65.8110  -44.7780    1.7960 C.2   337  LYS337      0.2616
     33  O        -65.9820  -45.7130    1.0170 O.2   337  LYS337     -0.2715
     34  CB       -65.3380  -46.1010    3.9170 C.3   337  LYS337      0.0311
     35  CG       -64.2900  -46.4710    4.9590 C.3   337  LYS337      0.0038
     36  CD       -64.7550  -47.5330    5.9360 C.3   337  LYS337      0.0206
     37  CE       -63.8190  -47.6520    7.1250 C.3   337  LYS337      0.1093
     38  NZ       -62.4460  -48.0780    6.7270 N.3   337  LYS337     -0.1314
     39  N        -66.3790  -43.5850    1.6270 N.am  338  GLY338     -0.1955
     40  CA       -67.2640  -43.2970    0.5010 C.3   338  GLY338      0.1869
     41  C        -68.6820  -42.9590    0.9270 C.2   338  GLY338      0.2309
     42  O        -68.9220  -42.6070    2.0840 O.2   338  GLY338     -0.2863
     43  N        -67.3460  -44.5310   -4.2520 N.3   363  THR363     -0.1203
     44  CA       -66.1250  -44.3660   -3.4690 C.3   363  THR363      0.1994
     45  C        -65.5380  -42.9690   -3.4970 C.2   363  THR363      0.2619
     46  O        -64.7100  -42.6840   -2.6490 O.2   363  THR363     -0.2717
     47  CB       -65.0860  -45.4230   -3.9040 C.3   363  THR363      0.1784
     48  OG1      -64.7140  -45.1830   -5.2630 O.3   363  THR363     -0.2211
     49  CG2      -65.6010  -46.8490   -3.7520 C.3   363  THR363      0.0376
     50  N        -65.9200  -42.1020   -4.4450 N.am  364  THR364     -0.1938
     51  CA       -65.3660  -40.7260   -4.4530 C.3   364  THR364      0.2028
     52  C        -66.4760  -39.7040   -4.3690 C.2   364  THR364      0.2642
     53  O        -67.6110  -40.0010   -4.7580 O.2   364  THR364     -0.2714
     54  CB       -64.4940  -40.4490   -5.7080 C.3   364  THR364      0.1808
     55  OG1      -65.3310  -40.4290   -6.8720 O.3   364  THR364     -0.2208
     56  CG2      -63.2910  -41.4240   -5.8450 C.3   364  THR364      0.0379
     57  N        -66.1500  -38.4950   -3.8670 N.am  365  LEU365     -0.1963
     58  CA       -67.0680  -37.3700   -3.8190 C.3   365  LEU365      0.1728
     59  C        -67.5030  -37.0070   -5.2370 C.2   365  LEU365      0.2616
     60  O        -68.6770  -36.7160   -5.4450 O.2   365  LEU365     -0.2715
     61  CB       -66.4180  -36.1380   -3.1360 C.3   365  LEU365      0.0311
     62  CG       -67.3000  -34.8770   -3.0490 C.3   365  LEU365      0.0022
     63  CD1      -68.6450  -35.1700   -2.3380 C.3   365  LEU365      0.0001
     64  CD2      -66.5450  -33.7380   -2.3520 C.3   365  LEU365      0.0001
     65  N        -66.5550  -37.0160   -6.2000 N.am  366  TYR366     -0.1974
     66  CA       -66.8930  -36.6890   -7.5860 C.3   366  TYR366      0.1639
     67  C        -68.0200  -37.5780   -8.0920 C.2   366  TYR366      0.2290
     68  O        -68.9930  -37.0580   -8.6390 O.2   366  TYR366     -0.2864
     69  CB       -65.6650  -36.7410   -8.5270 C.3   366  TYR366      0.0560
     70  CG       -66.0580  -36.3940   -9.9490 C.ar  366  TYR366     -0.0198
     71  CD1      -66.1030  -35.0680  -10.3800 C.ar  366  TYR366     -0.0009
     72  CD2      -66.5130  -37.3750  -10.8220 C.ar  366  TYR366     -0.0009
     73  CE1      -66.5500  -34.7400  -11.6660 C.ar  366  TYR366      0.0417
     74  CE2      -66.9600  -37.0610  -12.1000 C.ar  366  TYR366      0.0417
     75  CZ       -66.9710  -35.7440  -12.5210 C.ar  366  TYR366      0.1957
     76  OH       -67.3890  -35.4860  -13.8000 O.3   366  TYR366     -0.2866
     77  N        -60.2960  -30.9660   -0.9760 N.3   386  THR386     -0.1218
     78  CA       -61.1470  -32.0850   -1.3960 C.3   386  THR386      0.1862
     79  C        -62.3020  -31.5990   -2.2970 C.2   386  THR386      0.2287
     80  O        -62.9580  -32.4320   -2.9470 O.2   386  THR386     -0.2866
     81  CB       -61.5870  -32.9020   -0.1740 C.3   386  THR386      0.1770
     82  OG1      -61.9430  -31.9910    0.8500 O.3   386  THR386     -0.2211
     83  CG2      -60.4730  -33.8320    0.3400 C.3   386  THR386      0.0375
@<TRIPOS>BOND
     1    76    75    1
     2    75    74   ar
     3    75    73   ar
     4    74    72   ar
     5    73    71   ar
     6    72    70   ar
     7    71    70   ar
     8    70    69    1
     9    68    67    2
    10    69    66    1
    11    67    66    1
    12    66    65    1
    13    55    54    1
    14    65    59   am
    15    56    54    1
    16    54    51    1
    17    60    59    2
    18    48    47    1
    19    59    58    1
    20    53    52    2
    21    51    50    1
    22    51    52    1
    23    50    45   am
    24    52    57   am
    25    43    44    1
    26    47    49    1
    27    47    44    1
    28    57    58    1
    29    58    61    1
    30    45    44    1
    31    45    46    2
    32    61    62    1
    33    62    64    1
    34    62    63    1
    35    80    79    2
    36    79    78    1
    37    78    77    1
    38    78    81    1
    39    15    13    1
    40    81    83    1
    41    81    82    1
    42    14    13    1
    43    40    41    1
    44    40    39    1
    45     7     6    1
    46    13    10    1
    47    41    42    2
    48    33    32    2
    49     8     6    1
    50    39    32   am
    51     6     5    1
    52     5     2    1
    53    32    31    1
    54    10     9    1
    55    10    11    1
    56     1     2    1
    57     2     3    1
    58    31    30    1
    59    31    34    1
    60    27    26    2
    61    19    18    2
    62    11    12    2
    63    11    16   am
    64    26    30   am
    65    26    25    1
    66    16    17    1
    67    34    35    1
    68     3     4    2
    69    18    17    1
    70    18    24   am
    71    25    24    1
    72    25    28    1
    73    22    21   ar
    74    17    20    1
    75    35    36    1
    76    28    29    1
    77    21    20    1
    78    21    23   ar
    79    36    37    1
    80    38    37    1
