@<TRIPOS>MOLECULE
tmp/6c7nD00.pdb
 101 93 0 0 0
SMALL
GASTEIGER

@<TRIPOS>ATOM
      1  N        -87.4620    6.3070   70.5960 N.3   155  ARG155     -0.1245
      2  CA       -88.3440    5.6560   71.5670 C.3   155  ARG155      0.1563
      3  C        -87.8180    4.2550   71.8890 C.2   155  ARG155      0.2260
      4  O        -88.3590    3.2660   71.4010 O.2   155  ARG155     -0.2867
      5  CB       -89.7940    5.6020   71.0000 C.3   155  ARG155      0.0307
      6  CG       -90.9010    5.4860   72.0620 C.3   155  ARG155      0.0489
      7  CD       -91.2730    4.0910   72.5490 C.3   155  ARG155      0.2205
      8  NE       -92.1620    3.3700   71.6360 N.pl3 155  ARG155     -0.0865
      9  CZ       -91.8780    2.1900   71.0970 C.cat 155  ARG155      0.5346
     10  NH1      -92.7380    1.6080   70.2760 N.pl3 155  ARG155      0.1354
     11  NH2      -90.7340    1.5740   71.3890 N.pl3 155  ARG155      0.1354
     12  N        -89.1780    1.6560   77.0550 N.3   158  GLY158     -0.1225
     13  CA       -89.8500    2.6940   77.8350 C.3   158  GLY158      0.1811
     14  C        -88.8460    3.7000   78.3680 C.2   158  GLY158      0.2280
     15  O        -89.1680    4.4980   79.2510 O.2   158  GLY158     -0.2866
     16  N        -94.1230    7.5000   68.0730 N.3   249  ASN249     -0.1240
     17  CA       -95.3840    7.0840   67.4390 C.3   249  ASN249      0.1653
     18  C        -95.7900    7.8620   66.1850 C.2   249  ASN249      0.2266
     19  O        -96.1150    7.2110   65.1950 O.2   249  ASN249     -0.2867
     20  CB       -96.5640    7.0150   68.4240 C.3   249  ASN249      0.1155
     21  CG       -96.8430    8.2240   69.2730 C.2   249  ASN249      0.2627
     22  OD1      -96.5820    9.3780   68.9040 O.2   249  ASN249     -0.2716
     23  ND2      -97.4200    7.9730   70.4380 N.am  249  ASN249     -0.0877
     24  N        -93.0380   -2.7300   66.3450 N.3   269  ASP269     -0.1239
     25  CA       -93.7530   -2.1290   67.4790 C.3   269  ASP269      0.1674
     26  C        -95.2540   -1.9750   67.2020 C.2   269  ASP269      0.2266
     27  O        -96.0670   -2.0650   68.1320 O.2   269  ASP269     -0.2867
     28  CB       -93.1270   -0.7860   67.8710 C.3   269  ASP269      0.1410
     29  CG       -91.6330   -0.8830   68.1340 C.2   269  ASP269      0.3668
     30  OD1      -91.2140   -1.8190   68.8540 O.co2 269  ASP269     -0.2456
     31  OD2      -90.8840   -0.0390   67.6020 O.co2 269  ASP269     -0.2456
     32  N        -96.5530   -6.4510   67.2790 N.3   273  THR273     -0.1218
     33  CA       -97.3180   -6.4120   68.5230 C.3   273  THR273      0.1862
     34  C        -98.7540   -6.8200   68.2370 C.2   273  THR273      0.2287
     35  O        -99.2870   -7.7070   68.9150 O.2   273  THR273     -0.2866
     36  CB       -97.2480   -5.0140   69.1700 C.3   273  THR273      0.1770
     37  OG1      -95.8870   -4.6720   69.4490 O.3   273  THR273     -0.2211
     38  CG2      -98.0930   -4.9090   70.4440 C.3   273  THR273      0.0375
     39  N        -98.8540  -10.6730   67.5360 N.3   276  VAL276     -0.1231
     40  CA       -98.6150  -11.5200   68.7140 C.3   276  VAL276      0.1692
     41  C        -99.8170  -11.4820   69.6840 C.2   276  VAL276      0.2591
     42  O       -100.1860  -12.5420   70.1990 O.2   276  VAL276     -0.2718
     43  CB       -97.2380  -11.2520   69.4150 C.3   276  VAL276      0.0266
     44  CG1      -97.2240   -9.9530   70.2220 C.3   276  VAL276      0.0020
     45  CG2      -96.8100  -12.4340   70.2830 C.3   276  VAL276      0.0020
     46  N       -100.4450  -10.2930   69.8890 N.am  277  VAL277     -0.1980
     47  CA      -101.5970  -10.1320   70.7940 C.3   277  VAL277      0.1595
     48  C       -102.8180  -10.8610   70.2130 C.2   277  VAL277      0.2287
     49  O       -103.5150  -11.5460   70.9620 O.2   277  VAL277     -0.2864
     50  CB      -101.8660   -8.6540   71.2080 C.3   277  VAL277      0.0276
     51  CG1     -103.1230   -8.5310   72.0800 C.3   277  VAL277      0.0022
     52  CG2     -100.6550   -8.0890   71.9550 C.3   277  VAL277      0.0022
     53  N       -103.4190    3.7430   73.7730 N.3   283  ALA283     -0.1231
     54  CA      -103.8450    4.0660   72.4160 C.3   283  ALA283      0.1694
     55  C       -102.7020    4.6400   71.5340 C.2   283  ALA283      0.2593
     56  O       -102.8750    5.6670   70.8660 O.2   283  ALA283     -0.2718
     57  CB      -105.0410    5.0060   72.4450 C.3   283  ALA283      0.0304
     58  N       -101.5670    3.9460   71.5110 N.am  284  GLY284     -0.1942
     59  CA      -100.4150    4.3620   70.7190 C.3   284  GLY284      0.2014
     60  C       -100.0680    3.3830   69.6200 C.2   284  GLY284      0.2639
     61  O       -100.9660    2.8420   68.9690 O.2   284  GLY284     -0.2714
     62  N        -98.7540    3.1530   69.4010 N.am  285  GLU285     -0.1963
     63  CA       -98.2670    2.1920   68.4000 C.3   285  GLU285      0.1733
     64  C        -98.9070    0.8110   68.6420 C.2   285  GLU285      0.2616
     65  O        -99.5330    0.2440   67.7360 O.2   285  GLU285     -0.2715
     66  CB       -96.7190    2.1230   68.3960 C.3   285  GLU285      0.0429
     67  CG       -96.0740    3.3580   67.7840 C.3   285  GLU285      0.1163
     68  CD       -94.5580    3.4410   67.8590 C.2   285  GLU285      0.3649
     69  OE1      -93.8850    2.5270   67.3350 O.co2 285  GLU285     -0.2457
     70  OE2      -94.0360    4.4280   68.4260 O.co2 285  GLU285     -0.2457
     71  N        -98.8480    0.3400   69.9010 N.am  286  ALA286     -0.1963
     72  CA       -99.4280   -0.9360   70.3160 C.3   286  ALA286      0.1728
     73  C       -100.9560   -0.8820   70.4000 C.2   286  ALA286      0.2616
     74  O       -101.6120   -1.6870   69.7510 O.2   286  ALA286     -0.2715
     75  CB       -98.8400   -1.3770   71.6480 C.3   286  ALA286      0.0334
     76  N       -101.4960    0.0690   71.1680 N.am  287  GLY287     -0.1955
     77  CA      -102.9320    0.2530   71.3990 C.3   287  GLY287      0.1869
     78  C       -103.8400    0.2900   70.1810 C.2   287  GLY287      0.2309
     79  O       -104.8800   -0.3800   70.1590 O.2   287  GLY287     -0.2863
     80  N        -96.3320  -12.0970   76.0580 N.3   299  SER299     -0.1202
     81  CA       -96.7440  -11.6210   74.7370 C.3   299  SER299      0.2020
     82  C        -95.5330  -11.0750   73.9280 C.2   299  SER299      0.2619
     83  O        -95.6120  -10.0120   73.3130 O.2   299  SER299     -0.2717
     84  CB       -97.8410  -10.5700   74.8930 C.3   299  SER299      0.2103
     85  OG       -98.4710  -10.3150   73.6490 O.3   299  SER299     -0.2182
     86  N        -94.4170  -11.8150   73.9430 N.am  300  ASN300     -0.1960
     87  CA       -93.1590  -11.4280   73.3120 C.3   300  ASN300      0.1819
     88  C        -93.2660  -11.3450   71.7940 C.2   300  ASN300      0.2621
     89  O        -93.6790  -12.3190   71.1650 O.2   300  ASN300     -0.2715
     90  CB       -92.0460  -12.4010   73.7250 C.3   300  ASN300      0.1195
     91  CG       -90.6320  -11.8960   73.5150 C.2   300  ASN300      0.2630
     92  OD1      -90.3310  -11.0920   72.6170 O.2   300  ASN300     -0.2716
     93  ND2      -89.7180  -12.3750   74.3470 N.am  300  ASN300     -0.0877
     94  N        -92.8370  -10.2000   71.2020 N.am  301  ASN301     -0.1972
     95  CA       -92.8470   -9.9940   69.7410 C.3   301  ASN301      0.1688
     96  C        -91.9820  -10.9960   68.9890 C.2   301  ASN301      0.2292
     97  O        -92.2610  -11.2880   67.8230 O.2   301  ASN301     -0.2864
     98  CB       -92.4670   -8.5560   69.3730 C.3   301  ASN301      0.1181
     99  CG       -93.5690   -7.5570   69.6470 C.2   301  ASN301      0.2629
    100  OD1      -94.4200   -7.7460   70.5220 O.2   301  ASN301     -0.2716
    101  ND2      -93.5800   -6.4660   68.9030 N.am  301  ASN301     -0.0877
@<TRIPOS>BOND
     1    19    18    2
     2    18    17    1
     3    24    25    1
     4    26    25    1
     5    26    27    2
     6    32    33    1
     7    69    68   ar
     8    17    16    1
     9    17    20    1
    10    25    28    1
    11    39    40    1
    12    31    29   ar
    13    65    64    2
    14    67    68    1
    15    67    66    1
    16    97    96    2
    17    68    70   ar
    18    28    29    1
    19    29    30   ar
    20    34    33    1
    21    34    35    2
    22    66    63    1
    23    63    64    1
    24    63    62    1
    25    20    21    1
    26    33    36    1
    27    64    71   am
    28    40    43    1
    29    40    41    1
    30   101    99   am
    31    22    21    2
    32    61    60    2
    33    96    95    1
    34    36    37    1
    35    36    38    1
    36    21    23   am
    37    98    99    1
    38    98    95    1
    39    62    60   am
    40    43    44    1
    41    43    45    1
    42    60    59    1
    43    99   100    2
    44    41    46   am
    45    41    42    2
    46    95    94    1
    47    74    73    2
    48    46    47    1
    49    71    72    1
    50    79    78    2
    51    78    77    1
    52    48    47    1
    53    48    49    2
    54    10     9    1
    55    72    73    1
    56    72    75    1
    57    73    76   am
    58     1     2    1
    59    59    58    1
    60    47    50    1
    61    56    55    2
    62     5     2    1
    63     5     6    1
    64     9    11    1
    65     9     8    2
    66    89    88    2
    67    76    77    1
    68    94    88   am
    69    50    52    1
    70    50    51    1
    71     4     3    2
    72    58    55   am
    73    55    54    1
    74     2     3    1
    75     8     7    1
    76    88    87    1
    77     6     7    1
    78    54    57    1
    79    54    53    1
    80    92    91    2
    81    87    90    1
    82    87    86    1
    83    83    82    2
    84    91    90    1
    85    91    93   am
    86    85    84    1
    87    82    86   am
    88    82    81    1
    89    81    84    1
    90    81    80    1
    91    12    13    1
    92    13    14    1
    93    14    15    2
