@<TRIPOS>MOLECULE
tmp/6c7qA00.pdb
 135 133 0 0 0
SMALL
GASTEIGER

@<TRIPOS>ATOM
      1  N         15.8930    3.9460    9.0110 N.3    25  TRP25      -0.1228
      2  CA        17.2520    3.6010    8.5710 C.3    25  TRP25       0.1722
      3  C         17.4000    2.2310    7.9150 C.2    25  TRP25       0.2437
      4  O         18.1970    2.1710    6.9630 O.2    25  TRP25      -0.2733
      5  CB        18.3100    3.7890    9.6740 C.3    25  TRP25       0.0563
      6  CG        18.2590    2.8140   10.8050 C.ar   25  TRP25       0.0003
      7  CD1       17.6730    3.0040   12.0220 C.ar   25  TRP25       0.0946
      8  CD2       18.8820    1.5230   10.8540 C.ar   25  TRP25       0.0152
      9  NE1       17.8400    1.8830   12.8070 N.ar   25  TRP25      -0.2442
     10  CE2       18.5590    0.9500   12.1040 C.ar   25  TRP25       0.0810
     11  CE3       19.6500    0.7750    9.9430 C.ar   25  TRP25       0.0012
     12  CZ2       19.0150   -0.3170   12.4860 C.ar   25  TRP25       0.0191
     13  CZ3       20.0680   -0.4970   10.3040 C.ar   25  TRP25       0.0001
     14  CH2       19.7820   -1.0190   11.5710 C.ar   25  TRP25       0.0015
     15  N         16.6860    1.1420    8.2860 N.am   26  PRO26      -0.2718
     16  CA        16.9270   -0.1400    7.5850 C.3    26  PRO26       0.1535
     17  C         16.5280   -0.1120    6.1130 C.2    26  PRO26       0.2598
     18  O         16.9310   -1.0010    5.3470 O.2    26  PRO26      -0.2715
     19  CB        16.0530   -1.1450    8.3450 C.3    26  PRO26       0.0310
     20  CG        15.8540   -0.5440    9.6950 C.3    26  PRO26       0.0237
     21  CD        15.7340    0.9520    9.4090 C.3    26  PRO26       0.0939
     22  N         15.7400    0.9080    5.7210 N.am   27  PHE27      -0.1974
     23  CA        15.1830    1.0050    4.3700 C.3    27  PHE27       0.1639
     24  C         15.9610    1.9780    3.4890 C.2    27  PHE27       0.2290
     25  O         15.6260    2.1340    2.3190 O.2    27  PHE27      -0.2864
     26  CB        13.6800    1.4290    4.4490 C.3    27  PHE27       0.0560
     27  CG        12.8880    0.5070    5.3550 C.ar   27  PHE27      -0.0200
     28  CD1       12.4360   -0.7200    4.8980 C.ar   27  PHE27      -0.0042
     29  CD2       12.6910    0.8270    6.6920 C.ar   27  PHE27      -0.0042
     30  CE1       11.7740   -1.6070    5.7730 C.ar   27  PHE27      -0.0003
     31  CE2       12.0740   -0.0740    7.5720 C.ar   27  PHE27      -0.0003
     32  CZ        11.6210   -1.2860    7.1070 C.ar   27  PHE27      -0.0000
     33  N         19.2710   -3.9620    0.6520 N.3    31  VAL31      -0.1231
     34  CA        19.5910   -4.9550    1.6720 C.3    31  VAL31       0.1692
     35  C         20.9420   -5.5770    1.2950 C.2    31  VAL31       0.2592
     36  O         21.1110   -6.0610    0.1780 O.2    31  VAL31      -0.2718
     37  CB        18.4830   -6.0190    1.7680 C.3    31  VAL31       0.0266
     38  CG1       18.9090   -7.1840    2.6650 C.3    31  VAL31       0.0020
     39  CG2       17.1770   -5.4140    2.2650 C.3    31  VAL31       0.0020
     40  N         21.9100   -5.5200    2.2190 N.am   32  ASP32      -0.1974
     41  CA        23.2360   -6.0690    1.9820 C.3    32  ASP32       0.1709
     42  C         23.2090   -7.5270    2.4430 C.2    32  ASP32       0.2293
     43  O         23.4480   -7.8140    3.6200 O.2    32  ASP32      -0.2864
     44  CB        24.2790   -5.2460    2.7450 C.3    32  ASP32       0.1436
     45  CG        25.7190   -5.5320    2.3790 C.2    32  ASP32       0.3671
     46  OD1       26.0200   -6.6870    1.9750 O.co2  32  ASP32      -0.2456
     47  OD2       26.5630   -4.6280    2.5610 O.co2  32  ASP32      -0.2456
     48  N         24.7270   -8.9930    6.1010 N.3    36  LEU36      -0.1245
     49  CA        23.7670   -9.4160    7.1200 C.3    36  LEU36       0.1561
     50  C         23.6300  -10.9480    7.2610 C.2    36  LEU36       0.2260
     51  O         22.9090  -11.4190    8.1520 O.2    36  LEU36      -0.2867
     52  CB        22.3870   -8.7820    6.8350 C.3    36  LEU36       0.0270
     53  CG        22.3390   -7.2400    6.7570 C.3    36  LEU36       0.0019
     54  CD1       20.9600   -6.7500    6.2940 C.3    36  LEU36       0.0001
     55  CD2       22.6890   -6.6170    8.0920 C.3    36  LEU36       0.0001
     56  N         22.1550  -13.0130    5.0880 N.3    38  LEU38      -0.1245
     57  CA        20.7940  -13.3930    4.6920 C.3    38  LEU38       0.1561
     58  C         20.8570  -14.2370    3.4160 C.2    38  LEU38       0.2260
     59  O         20.4320  -13.8070    2.3350 O.2    38  LEU38      -0.2867
     60  CB        19.9350  -12.1260    4.4870 C.3    38  LEU38       0.0270
     61  CG        19.9220  -11.1090    5.6400 C.3    38  LEU38       0.0019
     62  CD1       19.0470   -9.9260    5.2900 C.3    38  LEU38       0.0001
     63  CD2       19.4970  -11.7330    6.9700 C.3    38  LEU38       0.0001
     64  N         17.7000  -14.5710    1.2870 N.3    41  TYR41      -0.1241
     65  CA        16.9920  -13.3730    0.8600 C.3    41  TYR41       0.1605
     66  C         16.6010  -13.3830   -0.6070 C.2    41  TYR41       0.2264
     67  O         15.4270  -13.1310   -0.9060 O.2    41  TYR41      -0.2867
     68  CB        17.7920  -12.1020    1.2070 C.3    41  TYR41       0.0534
     69  CG        16.9590  -10.8400    1.0960 C.ar   41  TYR41      -0.0201
     70  CD1       16.1280  -10.4390    2.1360 C.ar   41  TYR41      -0.0009
     71  CD2       16.9930  -10.0530   -0.0540 C.ar   41  TYR41      -0.0009
     72  CE1       15.3380   -9.2870    2.0360 C.ar   41  TYR41       0.0417
     73  CE2       16.1990   -8.9020   -0.1700 C.ar   41  TYR41       0.0417
     74  CZ        15.3760   -8.5270    0.8780 C.ar   41  TYR41       0.1957
     75  OH        14.5670   -7.4140    0.7550 O.3    41  TYR41      -0.2866
     76  N          9.8240   -6.5460    3.1140 N.3    79  CYS79      -0.1235
     77  CA        10.1210   -6.6510    4.5260 C.3    79  CYS79       0.1677
     78  C          9.1090   -7.5740    5.2280 C.2    79  CYS79       0.2270
     79  O          9.4970   -8.4430    6.0170 O.2    79  CYS79      -0.2867
     80  CB        10.1500   -5.2540    5.1440 C.3    79  CYS79       0.0956
     81  SG        10.5720   -5.2460    6.8990 S.3    79  CYS79      -0.0801
     82  N          9.7630  -11.3320    4.0520 N.3    82  TYR82      -0.1227
     83  CA        10.9980  -11.9930    4.4800 C.3    82  TYR82       0.1736
     84  C         11.1230  -12.2710    5.9730 C.2    82  TYR82       0.2595
     85  O         11.6210  -13.3430    6.3760 O.2    82  TYR82      -0.2718
     86  CB        12.2260  -11.1770    3.9950 C.3    82  TYR82       0.0548
     87  CG        13.5260  -11.8460    4.3990 C.ar   82  TYR82      -0.0200
     88  CD1       13.9590  -13.0130    3.7690 C.ar   82  TYR82      -0.0009
     89  CD2       14.2660  -11.3800    5.4840 C.ar   82  TYR82      -0.0009
     90  CE1       15.0990  -13.6820    4.1950 C.ar   82  TYR82       0.0417
     91  CE2       15.4380  -12.0170    5.8880 C.ar   82  TYR82       0.0417
     92  CZ        15.8290  -13.1840    5.2580 C.ar   82  TYR82       0.1957
     93  OH        16.9450  -13.8660    5.6760 O.3    82  TYR82      -0.2866
     94  N         10.7000  -11.3000    6.7880 N.am   83  ASN83      -0.1974
     95  CA        10.8960  -11.3720    8.2320 C.3    83  ASN83       0.1688
     96  C          9.7450  -11.9770    9.0090 C.2    83  ASN83       0.2292
     97  O          8.6130  -11.8400    8.5840 O.2    83  ASN83      -0.2864
     98  CB        11.1960   -9.9700    8.7670 C.3    83  ASN83       0.1181
     99  CG        12.3790   -9.3250    8.0980 C.2    83  ASN83       0.2629
    100  OD1       12.2300   -8.4750    7.2130 O.2    83  ASN83      -0.2716
    101  ND2       13.5790   -9.7150    8.5010 N.am   83  ASN83      -0.0877
    102  N          9.1520   -9.4800   14.2440 N.3    87  HIS87      -0.1226
    103  CA        10.5290   -8.9770   14.2040 C.3    87  HIS87       0.1752
    104  C         10.4940   -7.4510   14.3590 C.2    87  HIS87       0.2596
    105  O          9.5850   -6.7920   13.8480 O.2    87  HIS87      -0.2718
    106  CB        11.2270   -9.3640   12.8830 C.3    87  HIS87       0.0759
    107  CG        12.7140   -9.2010   12.8820 C.ar   87  HIS87       0.0818
    108  ND1       13.3150   -7.9480   12.8740 N.ar   87  HIS87      -0.2268
    109  CD2       13.6830  -10.1500   12.8870 C.ar   87  HIS87       0.1154
    110  CE1       14.6190   -8.1690   12.8620 C.ar   87  HIS87       0.1986
    111  NE2       14.8950   -9.4810   12.8880 N.ar   87  HIS87      -0.2212
    112  N         11.5150   -6.8910   15.0300 N.am   88  GLU88      -0.1965
    113  CA        11.6470   -5.4550   15.2500 C.3    88  GLU88       0.1733
    114  C         11.6240   -4.6970   13.9170 C.2    88  GLU88       0.2616
    115  O         11.0440   -3.6130   13.8570 O.2    88  GLU88      -0.2715
    116  CB        12.9570   -5.1620   16.0380 C.3    88  GLU88       0.0429
    117  CG        13.1360   -3.7180   16.4930 C.3    88  GLU88       0.1163
    118  CD        11.8980   -3.0310   17.0370 C.2    88  GLU88       0.3649
    119  OE1       11.3650   -3.4820   18.0780 O.co2  88  GLU88      -0.2457
    120  OE2       11.4340   -2.0650   16.3910 O.co2  88  GLU88      -0.2457
    121  N         12.2380   -5.2610   12.8490 N.am   89  VAL89      -0.1977
    122  CA        12.2670   -4.5410   11.5650 C.3    89  VAL89       0.1596
    123  C         10.8640   -4.4090   10.9450 C.2    89  VAL89       0.2287
    124  O         10.6180   -3.4480   10.2100 O.2    89  VAL89      -0.2864
    125  CB        13.3100   -5.1300   10.5820 C.3    89  VAL89       0.0276
    126  CG1       12.8230   -6.4380    9.9650 C.3    89  VAL89       0.0022
    127  CG2       13.6910   -4.1090    9.5000 C.3    89  VAL89       0.0022
    128  N          9.2840   -1.4980   12.5930 N.3    92  MET92      -0.1245
    129  CA         9.8380   -0.2640   12.0020 C.3    92  MET92       0.1570
    130  C          9.1740   -0.0050   10.6470 C.2    92  MET92       0.2261
    131  O          8.7930    1.1370   10.3550 O.2    92  MET92      -0.2867
    132  CB        11.3580   -0.3780   11.8710 C.3    92  MET92       0.0387
    133  CG        12.0260   -0.4120   13.2370 C.3    92  MET92       0.0595
    134  SD        13.7180   -1.0520   13.1250 S.3    92  MET92      -0.1393
    135  CE        14.4030    0.1910   12.7810 C.3    92  MET92       0.0692
@<TRIPOS>BOND
     1    67    66    2
     2    66    65    1
     3    73    71   ar
     4    73    74   ar
     5    71    69   ar
     6    36    35    2
     7    33    34    1
     8    75    74    1
     9    65    68    1
    10    65    64    1
    11    74    72   ar
    12    69    68    1
    13    69    70   ar
    14    35    34    1
    15    35    40   am
    16    34    37    1
    17    37    39    1
    18    37    38    1
    19    46    45   ar
    20    41    40    1
    21    41    42    1
    22    41    44    1
    23    72    70   ar
    24    25    24    2
    25    59    58    2
    26    45    47   ar
    27    45    44    1
    28    42    43    2
    29    76    77    1
    30    58    57    1
    31    24    23    1
    32    88    90   ar
    33    88    87   ar
    34    86    87    1
    35    86    83    1
    36    82    83    1
    37    90    92   ar
    38    23    26    1
    39    23    22    1
    40    87    89   ar
    41    26    27    1
    42    83    84    1
    43    60    57    1
    44    60    61    1
    45    77    80    1
    46    77    78    1
    47    57    56    1
    48    28    27   ar
    49    28    30   ar
    50    80    81    1
    51    78    79    2
    52    92    93    1
    53    92    91   ar
    54    62    61    1
    55    18    17    2
    56    27    29   ar
    57    89    91   ar
    58    61    63    1
    59    22    17   am
    60    30    32   ar
    61    84    85    2
    62    84    94   am
    63    48    49    1
    64    17    16    1
    65    54    53    1
    66    29    31   ar
    67    53    52    1
    68    53    55    1
    69    94    95    1
    70    52    49    1
    71     4     3    2
    72    32    31   ar
    73    49    50    1
    74   100    99    2
    75    50    51    2
    76    16    15    1
    77    16    19    1
    78     3    15   am
    79     3     2    1
    80    99   101   am
    81    99    98    1
    82    95    98    1
    83    95    96    1
    84    15    21    1
    85    19    20    1
    86     2     1    1
    87     2     5    1
    88    97    96    2
    89    21    20    1
    90   127   125    1
    91     5     6    1
    92    11    13   ar
    93    11     8   ar
    94   126   125    1
    95   124   123    2
    96    13    14   ar
    97   131   130    2
    98   125   122    1
    99   130   129    1
   100     6     8   ar
   101     6     7   ar
   102     8    10   ar
   103   123   122    1
   104   122   121    1
   105    14    12   ar
   106   132   129    1
   107   132   133    1
   108   129   128    1
   109     7     9   ar
   110    10    12   ar
   111    10     9   ar
   112   135   134    1
   113   121   114   am
   114   110   108   ar
   115   110   111   ar
   116   108   107   ar
   117   107   106    1
   118   107   109   ar
   119   106   103    1
   120   109   111   ar
   121   134   133    1
   122   105   104    2
   123   115   114    2
   124   114   113    1
   125   103   102    1
   126   103   104    1
   127   104   112   am
   128   112   113    1
   129   113   116    1
   130   116   117    1
   131   120   118   ar
   132   117   118    1
   133   118   119   ar
