@<TRIPOS>MOLECULE
tmp/6c7rA00.pdb
 120 118 0 0 0
SMALL
GASTEIGER

@<TRIPOS>ATOM
      1  N          6.3130    8.8250   17.0000 N.3    24  TRP24      -0.1228
      2  CA         6.7170    8.1920   18.2420 C.3    24  TRP24       0.1722
      3  C          5.7420    7.1170   18.7850 C.2    24  TRP24       0.2437
      4  O          6.2620    6.0880   19.1950 O.2    24  TRP24      -0.2733
      5  CB         7.1190    9.1900   19.3470 C.3    24  TRP24       0.0563
      6  CG         5.9840    9.9850   19.8960 C.ar   24  TRP24       0.0003
      7  CD1        5.5230   11.1780   19.4350 C.ar   24  TRP24       0.0946
      8  CD2        5.1350    9.6180   20.9960 C.ar   24  TRP24       0.0152
      9  NE1        4.4290   11.5840   20.1750 N.ar   24  TRP24      -0.2442
     10  CE2        4.1540   10.6300   21.1210 C.ar   24  TRP24       0.0810
     11  CE3        5.0620    8.4970   21.8400 C.ar   24  TRP24       0.0012
     12  CZ2        3.1140   10.5530   22.0600 C.ar   24  TRP24       0.0191
     13  CZ3        4.0640    8.4460   22.7990 C.ar   24  TRP24       0.0001
     14  CH2        3.1120    9.4680   22.9090 C.ar   24  TRP24       0.0015
     15  N          4.3890    7.2130   18.7250 N.am   25  PRO25      -0.2718
     16  CA         3.5670    6.1110   19.2770 C.3    25  PRO25       0.1535
     17  C          3.6770    4.8060   18.4990 C.2    25  PRO25       0.2598
     18  O          3.2330    3.7510   18.9770 O.2    25  PRO25      -0.2715
     19  CB         2.1270    6.6360   19.1610 C.3    25  PRO25       0.0310
     20  CG         2.2730    8.1430   19.1590 C.3    25  PRO25       0.0237
     21  CD         3.5230    8.3480   18.3140 C.3    25  PRO25       0.0939
     22  N          4.2300    4.9160   17.2700 N.am   26  PHE26      -0.1974
     23  CA         4.3480    3.8190   16.3110 C.3    26  PHE26       0.1639
     24  C          5.7580    3.2640   16.2300 C.2    26  PHE26       0.2290
     25  O          5.9790    2.3470   15.4510 O.2    26  PHE26      -0.2864
     26  CB         3.9460    4.2880   14.8940 C.3    26  PHE26       0.0560
     27  CG         2.5380    4.8540   14.8240 C.ar   26  PHE26      -0.0200
     28  CD1        2.2970    6.1890   15.1100 C.ar   26  PHE26      -0.0042
     29  CD2        1.4610    4.0520   14.4480 C.ar   26  PHE26      -0.0042
     30  CE1        0.9930    6.7160   15.0690 C.ar   26  PHE26      -0.0003
     31  CE2        0.1700    4.5890   14.3570 C.ar   26  PHE26      -0.0003
     32  CZ        -0.0540    5.9090   14.7050 C.ar   26  PHE26      -0.0000
     33  N          7.4280    1.5420   18.4550 N.3    28  GLN28      -0.1231
     34  CA         7.5600    0.3670   19.2890 C.3    28  GLN28       0.1683
     35  C          6.2020   -0.2510   19.4520 C.2    28  GLN28       0.2434
     36  O          5.1760    0.4200   19.2090 O.2    28  GLN28      -0.2733
     37  CB         8.1820    0.7200   20.6680 C.3    28  GLN28       0.0380
     38  CG         7.4050    1.7400   21.5320 C.3    28  GLN28       0.0905
     39  CD         7.5170    3.1480   21.0520 C.2    28  GLN28       0.2608
     40  OE1        8.5930    3.6550   20.7550 O.2    28  GLN28      -0.2717
     41  NE2        6.3580    3.7780   20.8540 N.am   28  GLN28      -0.0878
     42  N          6.1220   -1.5200   19.8730 N.am   29  PRO29      -0.2718
     43  CA         4.8030   -2.1260   20.0450 C.3    29  PRO29       0.1535
     44  C          3.9110   -1.3290   21.0070 C.2    29  PRO29       0.2598
     45  O          4.4040   -0.6660   21.9300 O.2    29  PRO29      -0.2715
     46  CB         5.1240   -3.4980   20.6310 C.3    29  PRO29       0.0310
     47  CG         6.5550   -3.7730   20.1600 C.3    29  PRO29       0.0237
     48  CD         7.2220   -2.4670   20.1850 C.3    29  PRO29       0.0939
     49  N          2.6010   -1.3890   20.7660 N.am   30  VAL30      -0.1964
     50  CA         1.5900   -0.8100   21.6560 C.3    30  VAL30       0.1727
     51  C          1.7420   -1.5800   22.9930 C.2    30  VAL30       0.2616
     52  O          1.5870   -2.7990   23.0090 O.2    30  VAL30      -0.2715
     53  CB         0.1700   -1.0330   21.0740 C.3    30  VAL30       0.0290
     54  CG1       -0.9040   -0.6200   22.0850 C.3    30  VAL30       0.0023
     55  CG2       -0.0090   -0.2920   19.7510 C.3    30  VAL30       0.0023
     56  N          2.0640   -0.8850   24.0930 N.am   31  ASP31      -0.1971
     57  CA         2.2140   -1.5510   25.3920 C.3    31  ASP31       0.1709
     58  C          0.8540   -1.3970   26.0840 C.2    31  ASP31       0.2293
     59  O          0.6390   -0.4680   26.8560 O.2    31  ASP31      -0.2864
     60  CB         3.3400   -0.8830   26.2030 C.3    31  ASP31       0.1436
     61  CG         3.7040   -1.6150   27.4810 C.2    31  ASP31       0.3671
     62  OD1        2.8770   -2.4060   27.9650 O.co2  31  ASP31      -0.2456
     63  OD2        4.7580   -1.2970   28.0640 O.co2  31  ASP31      -0.2456
     64  N          0.5920   -1.3310   30.0940 N.3    34  LYS34      -0.1231
     65  CA         1.0500   -0.0200   30.5770 C.3    34  LYS34       0.1693
     66  C          0.0820    1.1270   30.1670 C.2    34  LYS34       0.2591
     67  O         -0.0780    2.0960   30.9120 O.2    34  LYS34      -0.2718
     68  CB         2.4920    0.2640   30.1090 C.3    34  LYS34       0.0285
     69  CG         3.1960    1.3730   30.8890 C.3    34  LYS34       0.0035
     70  CD         4.4920    1.8040   30.2190 C.3    34  LYS34       0.0206
     71  CE         5.0280    3.0870   30.8070 C.3    34  LYS34       0.1093
     72  NZ         6.0530    3.7100   29.9290 N.3    34  LYS34      -0.1314
     73  N         -0.5740    1.0060   29.0090 N.am   35  LEU35      -0.1980
     74  CA        -1.5430    1.9870   28.5180 C.3    35  LEU35       0.1596
     75  C         -2.9700    1.7200   28.9950 C.2    35  LEU35       0.2287
     76  O         -3.9130    2.3940   28.5470 O.2    35  LEU35      -0.2864
     77  CB        -1.5320    2.0550   26.9860 C.3    35  LEU35       0.0297
     78  CG        -0.3610    2.7730   26.3280 C.3    35  LEU35       0.0022
     79  CD1       -0.3370    2.4510   24.8410 C.3    35  LEU35       0.0001
     80  CD2       -0.4550    4.2870   26.5470 C.3    35  LEU35       0.0001
     81  N         -5.0850   -0.7840   28.3490 N.3    37  LEU37      -0.1245
     82  CA        -5.9160   -1.1990   27.2210 C.3    37  LEU37       0.1561
     83  C         -5.9860   -2.7260   27.3090 C.2    37  LEU37       0.2260
     84  O         -5.3650   -3.4140   26.5010 O.2    37  LEU37      -0.2867
     85  CB        -5.3230   -0.7480   25.8660 C.3    37  LEU37       0.0270
     86  CG        -4.9750    0.7390   25.7380 C.3    37  LEU37       0.0019
     87  CD1       -4.2070    0.9800   24.4850 C.3    37  LEU37       0.0001
     88  CD2       -6.2250    1.6460   25.8480 C.3    37  LEU37       0.0001
     89  N         -9.1140    1.5960   17.3700 N.3    83  ASN83      -0.1240
     90  CA        -9.5980    2.9290   17.6820 C.3    83  ASN83       0.1653
     91  C        -10.8360    3.2610   16.8050 C.2    83  ASN83       0.2266
     92  O        -11.3580    2.3800   16.1160 O.2    83  ASN83      -0.2867
     93  CB        -8.4430    3.9180   17.5440 C.3    83  ASN83       0.1155
     94  CG        -7.2300    3.5000   18.3570 C.2    83  ASN83       0.2627
     95  OD1       -7.1580    3.7140   19.5660 O.2    83  ASN83      -0.2716
     96  ND2       -6.2360    2.8900   17.7100 N.am   83  ASN83      -0.0877
     97  N         -7.5480   10.8890   17.8520 N.3    88  ASP88      -0.1225
     98  CA        -6.2220   11.4800   17.6290 C.3    88  ASP88       0.1805
     99  C         -5.2240   10.4970   17.0380 C.2    88  ASP88       0.2597
    100  O         -4.5660   10.8140   16.0470 O.2    88  ASP88      -0.2718
    101  CB        -5.6460   12.0720   18.9170 C.3    88  ASP88       0.1424
    102  CG        -6.3150   13.3390   19.4000 C.2    88  ASP88       0.3668
    103  OD1       -7.0710   13.9390   18.6220 O.co2  88  ASP88      -0.2456
    104  OD2       -6.0670   13.7290   20.5470 O.co2  88  ASP88      -0.2456
    105  N         -5.1430    9.2860   17.6120 N.am   89  ILE89      -0.1980
    106  CA        -4.1780    8.3120   17.0900 C.3    89  ILE89       0.1595
    107  C         -4.5150    7.9170   15.6750 C.2    89  ILE89       0.2287
    108  O         -3.6080    7.6850   14.8960 O.2    89  ILE89      -0.2864
    109  CB        -3.9840    7.1110   18.0530 C.3    89  ILE89       0.0276
    110  CG1       -2.7110    6.3120   17.7360 C.3    89  ILE89       0.0022
    111  CG2       -5.1860    6.2060   18.1330 C.3    89  ILE89       0.0022
    112  CD1       -1.4780    6.9950   18.1240 C.3    89  ILE89       0.0001
    113  N         -3.2860   10.6650   13.4660 N.3    92  MET92      -0.1245
    114  CA        -1.8240   10.5100   13.3730 C.3    92  MET92       0.1570
    115  C         -1.4310    9.3980   12.3990 C.2    92  MET92       0.2261
    116  O         -0.6160    9.6160   11.4880 O.2    92  MET92      -0.2867
    117  CB        -1.2090   10.3390   14.7500 C.3    92  MET92       0.0387
    118  CG        -1.2140   11.6130   15.5290 C.3    92  MET92       0.0595
    119  SD        -1.0070   11.3320   17.2670 S.3    92  MET92      -0.1393
    120  CE         0.7200   11.1770   17.3950 C.3    92  MET92       0.0692
@<TRIPOS>BOND
     1   116   115    2
     2   115   114    1
     3   114   113    1
     4   114   117    1
     5    31    29   ar
     6    31    32   ar
     7    29    27   ar
     8    32    30   ar
     9   117   118    1
    10    27    26    1
    11    27    28   ar
    12    26    23    1
    13   108   107    2
    14    30    28   ar
    15    25    24    2
    16   118   119    1
    17   107   106    1
    18   100    99    2
    19    92    91    2
    20    24    23    1
    21    23    22    1
    22    91    90    1
    23     1     2    1
    24    99   105   am
    25    99    98    1
    26   106   105    1
    27   106   109    1
    28   119   120    1
    29    22    17   am
    30    89    90    1
    31    93    90    1
    32    93    94    1
    33    98    97    1
    34    98   101    1
    35    96    94   am
    36   110   109    1
    37   110   112    1
    38   109   111    1
    39     2     3    1
    40     2     5    1
    41    21    15    1
    42    21    20    1
    43    94    95    2
    44    33    34    1
    45    17    18    2
    46    17    16    1
    47   103   102   ar
    48    15     3   am
    49    15    16    1
    50     3     4    2
    51   101   102    1
    52    20    19    1
    53    19    16    1
    54    36    35    2
    55    34    35    1
    56    34    37    1
    57     5     6    1
    58   102   104   ar
    59     7     6   ar
    60     7     9   ar
    61    35    42   am
    62    55    53    1
    63    42    43    1
    64    42    48    1
    65     6     8   ar
    66    43    46    1
    67    43    44    1
    68    47    48    1
    69    47    46    1
    70     9    10   ar
    71    37    38    1
    72    40    39    2
    73    49    44   am
    74    49    50    1
    75    41    39   am
    76     8    10   ar
    77     8    11   ar
    78    44    45    2
    79    39    38    1
    80    53    50    1
    81    53    54    1
    82    10    12   ar
    83    50    51    1
    84    11    13   ar
    85    12    14   ar
    86    13    14   ar
    87    51    52    2
    88    51    56   am
    89    56    57    1
    90    87    86    1
    91    79    78    1
    92    57    58    1
    93    57    60    1
    94    86    88    1
    95    86    85    1
    96    85    82    1
    97    58    59    2
    98    60    61    1
    99    78    80    1
   100    78    77    1
   101    84    83    2
   102    77    74    1
   103    82    83    1
   104    82    81    1
   105    61    62   ar
   106    61    63   ar
   107    74    75    1
   108    74    73    1
   109    76    75    2
   110    73    66   am
   111    72    71    1
   112    64    65    1
   113    68    65    1
   114    68    69    1
   115    66    65    1
   116    66    67    2
   117    70    71    1
   118    70    69    1
