@<TRIPOS>MOLECULE
tmp/6c7xA00.pdb
 171 167 0 0 0
SMALL
GASTEIGER

@<TRIPOS>ATOM
      1  N          7.9340   -0.0650   10.1870 N.3     4  TRP4       -0.1241
      2  CA         7.3600   -1.0550   11.0990 C.3     4  TRP4        0.1605
      3  C          6.4120   -1.9420   10.3620 C.2     4  TRP4        0.2264
      4  O          5.8060   -1.5620    9.3500 O.2     4  TRP4       -0.2867
      5  CB         6.6860   -0.3330   12.2640 C.3     4  TRP4        0.0550
      6  CG         5.4700    0.4250   11.9300 C.ar    4  TRP4        0.0003
      7  CD1        5.3740    1.7900   11.6380 C.ar    4  TRP4        0.0946
      8  CD2        4.1580   -0.0650   11.9670 C.ar    4  TRP4        0.0152
      9  NE1        4.0740    2.1000   11.3710 N.ar    4  TRP4       -0.2442
     10  CE2        3.2950    0.9930   11.6120 C.ar    4  TRP4        0.0810
     11  CE3        3.6030   -1.3200   12.2760 C.ar    4  TRP4        0.0012
     12  CZ2        1.9030    0.8210   11.5610 C.ar    4  TRP4        0.0191
     13  CZ3        2.2310   -1.4980   12.1640 C.ar    4  TRP4        0.0001
     14  CH2        1.3870   -0.4190   11.8530 C.ar    4  TRP4        0.0015
     15  N         -3.3320    0.5440    3.6010 N.3    61  ASN61      -0.1240
     16  CA        -2.1880    1.3490    4.0800 C.3    61  ASN61       0.1653
     17  C         -0.9030    0.5440    4.2740 C.2    61  ASN61       0.2266
     18  O          0.0510    1.0390    4.8810 O.2    61  ASN61      -0.2867
     19  CB        -2.5810    2.1660    5.3030 C.3    61  ASN61       0.1155
     20  CG        -2.7290    1.3320    6.5360 C.2    61  ASN61       0.2627
     21  OD1       -2.5620    0.1480    6.4860 O.2    61  ASN61      -0.2716
     22  ND2       -3.0390    1.9700    7.6650 N.am   61  ASN61      -0.0877
     23  N         -8.3390    0.7640    5.8280 N.3    66  ASN66      -0.1240
     24  CA        -9.1350    1.6800    6.5860 C.3    66  ASN66       0.1653
     25  C        -10.3610    2.0940    5.7770 C.2    66  ASN66       0.2266
     26  O        -10.2040    2.5190    4.6070 O.2    66  ASN66      -0.2867
     27  CB        -8.3480    2.9620    6.8420 C.3    66  ASN66       0.1155
     28  CG        -7.1650    2.7610    7.7200 C.2    66  ASN66       0.2627
     29  OD1       -7.0600    1.7740    8.4580 O.2    66  ASN66      -0.2716
     30  ND2       -6.2020    3.7000    7.6080 N.am   66  ASN66      -0.0877
     31  N        -13.8580    8.6750   12.7780 N.3    90  ILE90      -0.1231
     32  CA       -12.9590    9.0330   11.6730 C.3    90  ILE90       0.1692
     33  C        -12.7110    7.8690   10.7300 C.2    90  ILE90       0.2591
     34  O        -12.6460    8.0500    9.5140 O.2    90  ILE90      -0.2718
     35  CB       -11.6430    9.6600   12.1820 C.3    90  ILE90       0.0266
     36  CG1      -10.6850    9.9220   11.0010 C.3    90  ILE90       0.0019
     37  CG2      -10.9000    8.7940   13.1870 C.3    90  ILE90       0.0020
     38  CD1       -9.4910   10.7610   11.3640 C.3    90  ILE90       0.0001
     39  N        -12.5790    6.6210   11.2340 N.am   91  GLN91      -0.1979
     40  CA       -12.3550    5.4740   10.3740 C.3    91  GLN91       0.1601
     41  C        -12.5920    4.1940   11.1530 C.2    91  GLN91       0.2287
     42  O        -12.6250    4.2170   12.3670 O.2    91  GLN91      -0.2864
     43  CB       -10.9280    5.3900    9.8030 C.3    91  GLN91       0.0394
     44  CG        -9.8280    5.5190   10.8140 C.3    91  GLN91       0.0908
     45  CD        -9.0540    4.2480   11.0950 C.2    91  GLN91       0.2608
     46  OE1       -9.5890    3.2090   11.2140 O.2    91  GLN91      -0.2717
     47  NE2       -7.7890    4.3860   11.2870 N.am   91  GLN91      -0.0878
     48  N        -11.0980   -0.0550   10.9510 N.3    93  HIS93      -0.1241
     49  CA       -10.1990   -1.0330   10.3500 C.3    93  HIS93       0.1621
     50  C        -10.2800   -2.2820   11.2040 C.2    93  HIS93       0.2264
     51  O        -10.9380   -2.3190   12.2400 O.2    93  HIS93      -0.2867
     52  CB        -8.7750   -0.5270   10.2970 C.3    93  HIS93       0.0745
     53  CG        -8.2120   -0.2500   11.6530 C.ar   93  HIS93       0.0817
     54  ND1       -8.3690    0.9650   12.2720 N.ar   93  HIS93      -0.2268
     55  CD2       -7.6110   -1.0640   12.5520 C.ar   93  HIS93       0.1154
     56  CE1       -7.8400    0.8930   13.4940 C.ar   93  HIS93       0.1986
     57  NE2       -7.4180   -0.3360   13.7040 N.ar   93  HIS93      -0.2212
     58  N         -8.0520   -6.0420   12.5360 N.3    95  HIS95      -0.1241
     59  CA        -6.8820   -6.8410   12.7450 C.3    95  HIS95       0.1621
     60  C         -7.2870   -8.2980   12.6240 C.2    95  HIS95       0.2264
     61  O         -8.3790   -8.6610   13.1220 O.2    95  HIS95      -0.2867
     62  CB        -6.2340   -6.6030   14.1130 C.3    95  HIS95       0.0745
     63  CG        -5.9550   -5.1470   14.4020 C.ar   95  HIS95       0.0817
     64  ND1       -4.6820   -4.6160   14.2330 N.ar   95  HIS95      -0.2268
     65  CD2       -6.7600   -4.1260   14.7560 C.ar   95  HIS95       0.1154
     66  CE1       -4.7250   -3.3260   14.5380 C.ar   95  HIS95       0.1986
     67  NE2       -5.9740   -2.9860   14.8240 N.ar   95  HIS95      -0.2212
     68  N        -11.9970   -2.2270   14.8880 N.3   118  HIS118     -0.1241
     69  CA       -11.7410   -1.0100   15.6500 C.3   118  HIS118      0.1621
     70  C        -12.3980    0.1600   14.9340 C.2   118  HIS118      0.2264
     71  O        -12.0090    0.5260   13.8020 O.2   118  HIS118     -0.2867
     72  CB       -10.2560   -0.7140   15.7150 C.3   118  HIS118      0.0745
     73  CG        -9.5260   -1.6780   16.6110 C.ar  118  HIS118      0.0817
     74  ND1       -8.1550   -1.8910   16.6170 N.ar  118  HIS118     -0.2268
     75  CD2      -10.0400   -2.5130   17.5450 C.ar  118  HIS118      0.1154
     76  CE1       -7.8770   -2.8230   17.5130 C.ar  118  HIS118      0.1986
     77  NE2       -8.9850   -3.2170   18.1070 N.ar  118  HIS118     -0.2212
     78  N        -12.6150    3.9840   15.2100 N.3   120  VAL120     -0.1245
     79  CA       -11.7770    4.9870   15.8300 C.3   120  VAL120      0.1561
     80  C        -12.4580    6.3450   15.8600 C.2   120  VAL120      0.2260
     81  O        -12.9680    6.7910   14.8300 O.2   120  VAL120     -0.2867
     82  CB       -10.4380    5.1250   15.1010 C.3   120  VAL120      0.0252
     83  CG1       -9.5530    6.1760   15.7390 C.3   120  VAL120      0.0019
     84  CG2       -9.7150    3.7790   14.9770 C.3   120  VAL120      0.0019
     85  N         -7.9800   15.4490   14.8820 N.3   129  PHE129     -0.1227
     86  CA        -7.3870   14.1730   15.2910 C.3   129  PHE129      0.1736
     87  C         -5.9610   14.2640   15.7650 C.2   129  PHE129      0.2596
     88  O         -5.5800   13.6650   16.7820 O.2   129  PHE129     -0.2718
     89  CB        -7.5160   13.1840   14.1230 C.3   129  PHE129      0.0547
     90  CG        -7.0420   11.8040   14.4360 C.ar  129  PHE129     -0.0202
     91  CD1       -5.7370   11.4460   14.2520 C.ar  129  PHE129     -0.0042
     92  CD2       -7.9310   10.8820   14.8830 C.ar  129  PHE129     -0.0042
     93  CE1       -5.3160   10.1770   14.5810 C.ar  129  PHE129     -0.0003
     94  CE2       -7.5050    9.6110   15.2180 C.ar  129  PHE129     -0.0003
     95  CZ        -6.2090    9.2690   15.0320 C.ar  129  PHE129     -0.0000
     96  N         -5.1270   15.0580   15.0640 N.am  130  GLY130     -0.1957
     97  CA        -3.7760   15.2060   15.4460 C.3   130  GLY130      0.1869
     98  C         -3.5490   15.8560   16.7960 C.2   130  GLY130      0.2309
     99  O         -2.6050   15.5340   17.5080 O.2   130  GLY130     -0.2863
    100  N         -4.7190   13.1210   19.6380 N.3   133  VAL133     -0.1245
    101  CA        -3.8120   12.0130   20.0220 C.3   133  VAL133      0.1561
    102  C         -2.7250   12.4410   20.9950 C.2   133  VAL133      0.2260
    103  O         -2.0290   11.5950   21.5680 O.2   133  VAL133     -0.2867
    104  CB        -3.1480   11.2890   18.8210 C.3   133  VAL133      0.0252
    105  CG1       -4.1630   10.6480   17.8800 C.3   133  VAL133      0.0019
    106  CG2       -2.2280   12.2190   18.0350 C.3   133  VAL133      0.0019
    107  N        -11.8220    4.1920   21.0920 N.3   141  VAL141     -0.1245
    108  CA       -11.8630    3.1340   20.0800 C.3   141  VAL141      0.1561
    109  C        -12.8120    2.1070   20.5900 C.2   141  VAL141      0.2260
    110  O        -12.6850    1.5860   21.6960 O.2   141  VAL141     -0.2867
    111  CB       -10.4910    2.5330   19.7350 C.3   141  VAL141      0.0252
    112  CG1      -10.6150    1.5210   18.5890 C.3   141  VAL141      0.0019
    113  CG2       -9.5280    3.6370   19.3080 C.3   141  VAL141      0.0019
    114  N         -2.9530    3.5500   21.2610 N.3   196  LEU196     -0.1231
    115  CA        -2.9920    3.0020   19.8910 C.3   196  LEU196      0.1693
    116  C         -2.2440    1.6990   19.9620 C.2   196  LEU196      0.2593
    117  O         -1.1890    1.6030   20.6430 O.2   196  LEU196     -0.2718
    118  CB        -2.2860    3.9300   18.9150 C.3   196  LEU196      0.0284
    119  CG        -2.8300    5.3570   18.8550 C.3   196  LEU196      0.0019
    120  CD1       -2.0140    6.1460   17.8520 C.3   196  LEU196      0.0001
    121  CD2       -4.2750    5.3420   18.4410 C.3   196  LEU196      0.0001
    122  N         -2.6770    0.7230   19.1940 N.am  197  THR197     -0.1939
    123  CA        -1.9980   -0.5530   19.1290 C.3   197  THR197      0.2028
    124  C         -1.0240   -0.6790   17.9820 C.2   197  THR197      0.2643
    125  O         -0.3860   -1.7400   17.8470 O.2   197  THR197     -0.2714
    126  CB        -2.9810   -1.7280   19.0420 C.3   197  THR197      0.1808
    127  OG1       -3.5870   -1.7450   17.7440 O.3   197  THR197     -0.2208
    128  CG2       -4.0380   -1.7140   20.1530 C.3   197  THR197      0.0379
    129  N         -0.8770    0.3810   17.1920 N.am  198  THR198     -0.1937
    130  CA         0.1720    0.4760   16.1530 C.3   198  THR198      0.2013
    131  C          1.0370    1.6640   16.5210 C.2   198  THR198      0.2484
    132  O          0.5740    2.6130   17.1760 O.2   198  THR198     -0.2729
    133  CB        -0.3780    0.6810   14.7250 C.3   198  THR198      0.1807
    134  OG1       -0.8290    2.0320   14.5200 O.3   198  THR198     -0.2208
    135  CG2       -1.4920   -0.2650   14.3660 C.3   198  THR198      0.0379
    136  N          2.2720    1.6630   16.0320 N.am  199  PRO199     -0.2715
    137  CA         2.9990    2.9280   16.0530 C.3   199  PRO199      0.1521
    138  C          2.1150    4.0650   15.5490 C.2   199  PRO199      0.2440
    139  O          1.3610    3.8760   14.5400 O.2   199  PRO199     -0.2731
    140  CB         4.2300    2.6260   15.1560 C.3   199  PRO199      0.0310
    141  CG         4.4500    1.1480   15.3680 C.3   199  PRO199      0.0237
    142  CD         3.0290    0.5860   15.3780 C.3   199  PRO199      0.0939
    143  N          2.1440    5.2340   16.1750 N.am  200  PRO200     -0.2727
    144  CA         3.0930    5.6400   17.2280 C.3   200  PRO200      0.1402
    145  C          2.7760    5.2610   18.6760 C.2   200  PRO200      0.2269
    146  O          3.4630    5.7040   19.6180 O.2   200  PRO200     -0.2865
    147  CB         3.0450    7.1700   17.1030 C.3   200  PRO200      0.0296
    148  CG         1.7020    7.4720   16.6310 C.3   200  PRO200      0.0237
    149  CD         1.3600    6.3790   15.6610 C.3   200  PRO200      0.0939
    150  N          0.5850    5.8880   20.8530 N.3   202  LEU202     -0.1245
    151  CA         0.2900    6.9730   21.7810 C.3   202  LEU202      0.1561
    152  C         -0.7680    6.6160   22.8070 C.2   202  LEU202      0.2260
    153  O         -1.7510    5.9660   22.4930 O.2   202  LEU202     -0.2867
    154  CB        -0.1450    8.2280   20.9980 C.3   202  LEU202      0.0270
    155  CG         0.9570    8.7890   20.0600 C.3   202  LEU202      0.0019
    156  CD1        0.3280    9.8030   19.1530 C.3   202  LEU202      0.0001
    157  CD2        2.1210    9.3480   20.8290 C.3   202  LEU202      0.0001
    158  N        -10.4440    2.7720   25.6740 N.3   207  TRP207     -0.1241
    159  CA       -10.9040    1.5600   25.0020 C.3   207  TRP207      0.1605
    160  C        -12.2570    1.1440   25.4800 C.2   207  TRP207      0.2264
    161  O        -12.5190    1.1190   26.6880 O.2   207  TRP207     -0.2867
    162  CB        -9.9110    0.3900   25.2380 C.3   207  TRP207      0.0550
    163  CG        -8.7650    0.5170   24.2300 C.ar  207  TRP207      0.0003
    164  CD1       -7.5320    1.0740   24.4170 C.ar  207  TRP207      0.0946
    165  CD2       -8.8020    0.1130   22.8730 C.ar  207  TRP207      0.0152
    166  NE1       -6.8330    1.0810   23.2550 N.ar  207  TRP207     -0.2442
    167  CE2       -7.5730    0.4770   22.2860 C.ar  207  TRP207      0.0810
    168  CE3       -9.7770   -0.5350   22.0780 C.ar  207  TRP207      0.0012
    169  CZ2       -7.2890    0.2210   20.9490 C.ar  207  TRP207      0.0191
    170  CZ3       -9.4660   -0.8070   20.7780 C.ar  207  TRP207      0.0001
    171  CH2       -8.2470   -0.4390   20.2300 C.ar  207  TRP207      0.0015
@<TRIPOS>BOND
     1    15    16    1
     2    16    17    1
     3    16    19    1
     4    17    18    2
     5    26    25    2
     6    19    20    1
     7    25    24    1
     8    23    24    1
     9    21    20    2
    10    20    22   am
    11    24    27    1
    12    27    28    1
    13    30    28   am
    14    28    29    2
    15     4     3    2
    16    34    33    2
    17    43    40    1
    18    43    44    1
    19     1     2    1
    20    52    49    1
    21    52    53    1
    22    49    48    1
    23    49    50    1
    24     3     2    1
    25    40    41    1
    26    40    39    1
    27    33    39   am
    28    33    32    1
    29    44    45    1
    30    36    38    1
    31    36    35    1
    32    45    46    2
    33    45    47   am
    34     2     5    1
    35    41    42    2
    36    50    51    2
    37     9    10   ar
    38     9     7   ar
    39    12    10   ar
    40    12    14   ar
    41    10     8   ar
    42     7     6   ar
    43    53    54   ar
    44    53    55   ar
    45    32    35    1
    46    32    31    1
    47    14    13   ar
    48     6     8   ar
    49     6     5    1
    50     8    11   ar
    51    13    11   ar
    52    35    37    1
    53    54    56   ar
    54    58    59    1
    55    55    57   ar
    56    60    59    1
    57    60    61    2
    58    59    62    1
    59    56    57   ar
    60    71    70    2
    61    62    63    1
    62    89    90    1
    63    89    86    1
    64    64    63   ar
    65    64    66   ar
    66    91    90   ar
    67    91    93   ar
    68   135   133    1
    69    63    65   ar
    70    90    92   ar
    71   134   133    1
    72    66    67   ar
    73   139   138    2
    74    93    95   ar
    75   133   130    1
    76    65    67   ar
    77    81    80    2
    78    85    86    1
    79    92    94   ar
    80    68    69    1
    81    70    69    1
    82    84    82    1
    83    95    94   ar
    84    96    97    1
    85    96    87   am
    86    82    83    1
    87    82    79    1
    88   140   141    1
    89   140   137    1
    90    78    79    1
    91    86    87    1
    92   141   142    1
    93   142   136    1
    94    97    98    1
    95   138   137    1
    96   138   143   am
    97    69    72    1
    98   149   143    1
    99   149   148    1
   100    72    73    1
   101    87    88    2
   102    79    80    1
   103   136   137    1
   104   136   131   am
   105   130   131    1
   106   130   129    1
   107   143   144    1
   108   131   132    2
   109    73    74   ar
   110    73    75   ar
   111    74    76   ar
   112   148   147    1
   113    98    99    2
   114   147   144    1
   115   129   124   am
   116   144   145    1
   117    76    77   ar
   118    75    77   ar
   119   127   126    1
   120   125   124    2
   121   120   119    1
   122   105   104    1
   123   124   123    1
   124   106   104    1
   125   121   119    1
   126   112   111    1
   127   145   146    2
   128   104   101    1
   129   119   118    1
   130   118   115    1
   131   126   123    1
   132   126   128    1
   133   123   122    1
   134   156   155    1
   135   122   116   am
   136   113   111    1
   137   100   101    1
   138   111   108    1
   139   115   116    1
   140   115   114    1
   141   116   117    2
   142   101   102    1
   143   155   157    1
   144   155   154    1
   145   108   109    1
   146   108   107    1
   147   171   170   ar
   148   171   169   ar
   149   109   110    2
   150   170   168   ar
   151   150   151    1
   152   169   167   ar
   153   102   103    2
   154   154   151    1
   155   151   152    1
   156   168   165   ar
   157   167   165   ar
   158   167   166   ar
   159   153   152    2
   160   165   163   ar
   161   166   164   ar
   162   163   164   ar
   163   163   162    1
   164   159   162    1
   165   159   160    1
   166   159   158    1
   167   160   161    2
