@<TRIPOS>MOLECULE
tmp/6c7yA00.pdb
 176 167 0 0 0
SMALL
GASTEIGER

@<TRIPOS>ATOM
      1  N         -5.7330   25.7150  -14.7190 N.3    14  LEU14      -0.1231
      2  CA        -7.1510   25.8100  -14.3940 C.3    14  LEU14       0.1693
      3  C         -7.6740   27.2380  -14.4300 C.2    14  LEU14       0.2593
      4  O         -8.7290   27.4960  -15.0170 O.2    14  LEU14      -0.2718
      5  CB        -7.4130   25.2020  -13.0110 C.3    14  LEU14       0.0284
      6  CG        -7.2460   23.6880  -12.9240 C.3    14  LEU14       0.0019
      7  CD1       -7.5450   23.2030  -11.5160 C.3    14  LEU14       0.0001
      8  CD2       -8.1490   23.0090  -13.9400 C.3    14  LEU14       0.0001
      9  N         -6.9630   28.1740  -13.8080 N.am   15  GLY15      -0.1942
     10  CA        -7.3920   29.5570  -13.7790 C.3    15  GLY15       0.2014
     11  C         -6.3440   30.4740  -13.1860 C.2    15  GLY15       0.2639
     12  O         -5.5130   30.0400  -12.3830 O.2    15  GLY15      -0.2714
     13  N         -6.3680   31.7450  -13.5740 N.am   16  GLU16      -0.1963
     14  CA        -5.4130   32.7300  -13.0880 C.3    16  GLU16       0.1733
     15  C         -6.1580   33.8420  -12.3660 C.2    16  GLU16       0.2617
     16  O         -7.0790   34.4460  -12.9260 O.2    16  GLU16      -0.2715
     17  CB        -4.5810   33.3070  -14.2360 C.3    16  GLU16       0.0429
     18  CG        -3.5440   34.3260  -13.7940 C.3    16  GLU16       0.1163
     19  CD        -2.7960   34.9370  -14.9610 C.2    16  GLU16       0.3649
     20  OE1       -3.1850   34.6760  -16.1190 O.co2  16  GLU16      -0.2457
     21  OE2       -1.8200   35.6780  -14.7210 O.co2  16  GLU16      -0.2457
     22  N         -5.7610   34.1030  -11.1200 N.am   17  GLY17      -0.1940
     23  CA        -6.3050   35.1970  -10.3510 C.3    17  GLY17       0.2014
     24  C         -5.3670   36.3950  -10.3290 C.2    17  GLY17       0.2639
     25  O         -4.3120   36.4180  -10.9580 O.2    17  GLY17      -0.2714
     26  N         -5.7820   37.4140   -9.5750 N.am   18  HIS18      -0.1959
     27  CA        -4.9650   38.6110   -9.4330 C.3    18  HIS18       0.1787
     28  C         -3.7330   38.3810   -8.5680 C.2    18  HIS18       0.2620
     29  O         -2.8160   39.2080   -8.5950 O.2    18  HIS18      -0.2715
     30  CB        -5.8050   39.7510   -8.8500 C.3    18  HIS18       0.0785
     31  CG        -5.1050   41.0740   -8.8380 C.ar   18  HIS18       0.0821
     32  ND1       -4.8210   41.7770   -9.9890 N.ar   18  HIS18      -0.2267
     33  CD2       -4.6290   41.8210   -7.8140 C.ar   18  HIS18       0.1154
     34  CE1       -4.2010   42.9010   -9.6740 C.ar   18  HIS18       0.1986
     35  NE2       -4.0720   42.9510   -8.3600 N.ar   18  HIS18      -0.2212
     36  N         -3.6810   37.2810   -7.8200 N.am   19  PHE19      -0.1960
     37  CA        -2.5910   37.0310   -6.8890 C.3    19  PHE19       0.1771
     38  C         -1.8030   35.7620   -7.1720 C.2    19  PHE19       0.2620
     39  O         -0.6250   35.7040   -6.8170 O.2    19  PHE19      -0.2715
     40  CB        -3.1250   36.9700   -5.4490 C.3    19  PHE19       0.0574
     41  CG        -3.6790   38.2750   -4.9550 C.ar   19  PHE19      -0.0200
     42  CD1       -5.0100   38.6000   -5.1580 C.ar   19  PHE19      -0.0042
     43  CD2       -2.8670   39.1790   -4.2900 C.ar   19  PHE19      -0.0042
     44  CE1       -5.5210   39.8020   -4.7060 C.ar   19  PHE19      -0.0003
     45  CE2       -3.3720   40.3810   -3.8350 C.ar   19  PHE19      -0.0003
     46  CZ        -4.7010   40.6930   -4.0430 C.ar   19  PHE19      -0.0000
     47  N         -2.4070   34.7500   -7.7930 N.am   20  GLY20      -0.1954
     48  CA        -1.7130   33.5040   -8.0370 C.3    20  GLY20       0.1869
     49  C         -2.2860   32.7600   -9.2240 C.2    20  GLY20       0.2309
     50  O         -3.2280   33.2150   -9.8770 O.2    20  GLY20      -0.2863
     51  N         -3.5010   28.7430  -10.6590 N.3    22  VAL22      -0.1245
     52  CA        -4.0010   27.4350  -10.2520 C.3    22  VAL22       0.1561
     53  C         -3.8550   26.4800  -11.4280 C.2    22  VAL22       0.2260
     54  O         -4.2590   26.8030  -12.5510 O.2    22  VAL22      -0.2867
     55  CB        -5.4660   27.5060   -9.7840 C.3    22  VAL22       0.0252
     56  CG1       -5.9620   26.1280   -9.3750 C.3    22  VAL22       0.0019
     57  CG2       -5.6080   28.4900   -8.6340 C.3    22  VAL22       0.0019
     58  N         -6.0610   20.4050   -7.5330 N.3    36  ALA36      -0.1245
     59  CA        -5.8030   21.7810   -7.9370 C.3    36  ALA36       0.1562
     60  C         -4.6770   22.3430   -7.0790 C.2    36  ALA36       0.2260
     61  O         -4.7900   22.3870   -5.8490 O.2    36  ALA36      -0.2867
     62  CB        -7.0620   22.6370   -7.8030 C.3    36  ALA36       0.0290
     63  N         -2.2100   25.5620   -6.2300 N.3    38  LYS38      -0.1245
     64  CA        -2.1450   27.0170   -6.3040 C.3    38  LYS38       0.1561
     65  C         -0.7280   27.4680   -5.9730 C.2    38  LYS38       0.2260
     66  O         -0.2360   27.2170   -4.8680 O.2    38  LYS38      -0.2867
     67  CB        -3.1510   27.6550   -5.3450 C.3    38  LYS38       0.0271
     68  CG        -3.2330   29.1700   -5.4450 C.3    38  LYS38       0.0035
     69  CD        -4.3000   29.7270   -4.5160 C.3    38  LYS38       0.0206
     70  CE        -4.3870   31.2420   -4.6150 C.3    38  LYS38       0.1093
     71  NZ        -5.4200   31.8040   -3.7010 N.3    38  LYS38      -0.1314
     72  N        -14.3500   25.0180   -0.1940 N.3    63  VAL63      -0.1245
     73  CA       -13.4000   24.1140   -0.8330 C.3    63  VAL63       0.1561
     74  C        -12.5950   23.3780    0.2280 C.2    63  VAL63       0.2260
     75  O        -12.0880   23.9830    1.1810 O.2    63  VAL63      -0.2867
     76  CB       -12.4880   24.8940   -1.7910 C.3    63  VAL63       0.0252
     77  CG1      -11.6090   23.9400   -2.5850 C.3    63  VAL63       0.0019
     78  CG2      -13.3190   25.7590   -2.7210 C.3    63  VAL63       0.0019
     79  N         -5.6120   21.3900   -3.1070 N.3    77  MET77      -0.1230
     80  CA        -7.0050   21.3660   -2.6950 C.3    77  MET77       0.1702
     81  C         -7.7850   20.5000   -3.6720 C.2    77  MET77       0.2592
     82  O         -7.2710   20.0860   -4.7140 O.2    77  MET77      -0.2718
     83  CB        -7.5830   22.7820   -2.6220 C.3    77  MET77       0.0401
     84  CG        -7.2640   23.6330   -3.8420 C.3    77  MET77       0.0596
     85  SD        -7.8390   25.3320   -3.6840 S.3    77  MET77      -0.1393
     86  CE        -7.0500   26.0890   -5.1020 C.3    77  MET77       0.0692
     87  N         -9.0390   20.2280   -3.3220 N.am   78  GLU78      -0.1966
     88  CA        -9.8900   19.4100   -4.1720 C.3    78  GLU78       0.1733
     89  C        -10.1870   20.1270   -5.4850 C.2    78  GLU78       0.2616
     90  O        -10.3060   21.3540   -5.5380 O.2    78  GLU78      -0.2715
     91  CB       -11.1940   19.0640   -3.4530 C.3    78  GLU78       0.0429
     92  CG       -12.0050   20.2720   -3.0130 C.3    78  GLU78       0.1163
     93  CD       -13.3270   19.8870   -2.3770 C.2    78  GLU78       0.3649
     94  OE1      -13.6800   18.6890   -2.4160 O.co2  78  GLU78      -0.2457
     95  OE2      -14.0120   20.7800   -1.8360 O.co2  78  GLU78      -0.2457
     96  N        -10.3030   19.3440   -6.5530 N.am   79  PHE79      -0.1960
     97  CA       -10.5360   19.8680   -7.8920 C.3    79  PHE79       0.1771
     98  C        -12.0160   19.7510   -8.2350 C.2    79  PHE79       0.2619
     99  O        -12.5580   18.6420   -8.2970 O.2    79  PHE79      -0.2715
    100  CB        -9.6860   19.1260   -8.9230 C.3    79  PHE79       0.0574
    101  CG       -10.0950   19.3850  -10.3450 C.ar   79  PHE79      -0.0200
    102  CD1       -9.9810   20.6520  -10.8930 C.ar   79  PHE79      -0.0042
    103  CD2      -10.5880   18.3610  -11.1370 C.ar   79  PHE79      -0.0042
    104  CE1      -10.3570   20.8950  -12.2010 C.ar   79  PHE79      -0.0003
    105  CE2      -10.9640   18.5970  -12.4470 C.ar   79  PHE79      -0.0003
    106  CZ       -10.8470   19.8660  -12.9790 C.ar   79  PHE79      -0.0000
    107  N        -12.6640   20.8950   -8.4560 N.am   80  LEU80      -0.1977
    108  CA       -14.0480   20.9210   -8.9010 C.3    80  LEU80       0.1596
    109  C        -14.0770   21.1260  -10.4060 C.2    80  LEU80       0.2287
    110  O        -13.6270   22.1790  -10.8850 O.2    80  LEU80      -0.2864
    111  CB       -14.8200   22.0290   -8.1950 C.3    80  LEU80       0.0297
    112  CG       -14.7930   21.9720   -6.6650 C.3    80  LEU80       0.0022
    113  CD1      -15.7570   22.9820   -6.0640 C.3    80  LEU80       0.0001
    114  CD2      -15.1030   20.5690   -6.1650 C.3    80  LEU80       0.0001
    115  N        -15.3330   24.4080  -12.5980 N.3    83  GLY83      -0.1210
    116  CA       -14.7120   25.7120  -12.4680 C.3    83  GLY83       0.1956
    117  C        -15.5230   26.6490  -11.5880 C.2    83  GLY83       0.2612
    118  O        -16.2510   26.2310  -10.6830 O.2    83  GLY83      -0.2717
    119  N        -15.3910   27.9420  -11.8630 N.am   84  SER84      -0.1952
    120  CA       -16.1010   28.9770  -11.1290 C.3    84  SER84       0.1924
    121  C        -17.3750   29.3740  -11.8660 C.2    84  SER84       0.2314
    122  O        -17.5880   29.0260  -13.0300 O.2    84  SER84      -0.2863
    123  CB       -15.2020   30.2000  -10.9190 C.3    84  SER84       0.2116
    124  OG       -14.8240   30.7720  -12.1590 O.3    84  SER84      -0.2180
    125  N        -17.0900   31.0870  -15.1690 N.3    87  GLU87      -0.1245
    126  CA       -16.9200   30.2360  -16.3380 C.3    87  GLU87       0.1567
    127  C        -18.0490   29.2370  -16.5310 C.2    87  GLU87       0.2260
    128  O        -18.2920   28.8130  -17.6620 O.2    87  GLU87      -0.2867
    129  CB       -15.5940   29.4700  -16.2440 C.3    87  GLU87       0.0388
    130  CG       -14.3860   30.3620  -16.0090 C.3    87  GLU87       0.1160
    131  CD       -13.2340   29.6220  -15.3590 C.2    87  GLU87       0.3649
    132  OE1      -13.4450   28.4840  -14.8900 O.co2  87  GLU87      -0.2457
    133  OE2      -12.1170   30.1800  -15.3120 O.co2  87  GLU87      -0.2457
    134  N        -13.2960   39.0100   -0.6270 N.3   124  ASP124     -0.1239
    135  CA       -13.1880   38.8100   -2.0670 C.3   124  ASP124      0.1674
    136  C        -14.3120   37.9090   -2.5640 C.2   124  ASP124      0.2266
    137  O        -14.1060   37.0770   -3.4540 O.2   124  ASP124     -0.2867
    138  CB       -11.8220   38.2200   -2.4310 C.3   124  ASP124      0.1410
    139  CG       -11.4750   38.4050   -3.9010 C.2   124  ASP124      0.3668
    140  OD1      -12.2900   38.9950   -4.6420 O.co2 124  ASP124     -0.2456
    141  OD2      -10.3850   37.9580   -4.3160 O.co2 124  ASP124     -0.2456
    142  N        -16.1680   34.8150   -9.5160 N.3   128  ARG128     -0.1231
    143  CA       -14.9350   34.1720   -9.9540 C.3   128  ARG128      0.1694
    144  C        -14.3050   33.3210   -8.8590 C.2   128  ARG128      0.2592
    145  O        -13.4450   32.4860   -9.1580 O.2   128  ARG128     -0.2718
    146  CB       -13.9350   35.2250  -10.4290 C.3   128  ARG128      0.0321
    147  CG       -13.5130   36.1990   -9.3420 C.3   128  ARG128      0.0489
    148  CD       -12.6460   37.3140   -9.8940 C.3   128  ARG128      0.2205
    149  NE       -12.2120   38.2250   -8.8400 N.pl3 128  ARG128     -0.0865
    150  CZ       -12.9320   39.2500   -8.3960 C.cat 128  ARG128      0.5346
    151  NH1      -14.1260   39.4990   -8.9150 N.pl3 128  ARG128      0.1354
    152  NH2      -12.4590   40.0270   -7.4310 N.pl3 128  ARG128      0.1354
    153  N        -14.7080   33.5150   -7.6030 N.am  129  ASN129     -0.1974
    154  CA       -14.1830   32.7490   -6.4810 C.3   129  ASN129      0.1688
    155  C        -15.2130   31.7920   -5.8940 C.2   129  ASN129      0.2292
    156  O        -14.9650   31.2040   -4.8360 O.2   129  ASN129     -0.2864
    157  CB       -13.6610   33.6920   -5.3950 C.3   129  ASN129      0.1181
    158  CG       -12.4980   34.5390   -5.8700 C.2   129  ASN129      0.2629
    159  OD1      -11.7150   34.1180   -6.7200 O.2   129  ASN129     -0.2716
    160  ND2      -12.3790   35.7410   -5.3200 N.am  129  ASN129     -0.0877
    161  N        -16.5950   28.3980   -6.6060 N.3   131  LEU131     -0.1245
    162  CA       -16.3380   27.2310   -7.4340 C.3   131  LEU131      0.1561
    163  C        -17.5670   26.3320   -7.4950 C.2   131  LEU131      0.2260
    164  O        -18.3470   26.2390   -6.5420 O.2   131  LEU131     -0.2867
    165  CB       -15.1390   26.4520   -6.8970 C.3   131  LEU131      0.0270
    166  CG       -13.8710   27.2830   -6.6890 C.3   131  LEU131      0.0019
    167  CD1      -12.7150   26.4060   -6.2420 C.3   131  LEU131      0.0001
    168  CD2      -13.5130   28.0430   -7.9570 C.3   131  LEU131      0.0001
    169  N        -10.6890   30.8340   -2.5360 N.3   142  ASP142     -0.1239
    170  CA        -9.8700   32.0420   -2.6020 C.3   142  ASP142      0.1674
    171  C         -9.9330   32.8350   -1.3020 C.2   142  ASP142      0.2266
    172  O        -10.7180   33.7800   -1.1800 O.2   142  ASP142     -0.2867
    173  CB       -10.2990   32.9180   -3.7820 C.3   142  ASP142      0.1410
    174  CG        -9.3360   34.0640   -4.0440 C.2   142  ASP142      0.3668
    175  OD1       -8.3480   34.2080   -3.2950 O.co2 142  ASP142     -0.2456
    176  OD2       -9.5670   34.8230   -5.0100 O.co2 142  ASP142     -0.2456
@<TRIPOS>BOND
     1   128   127    2
     2   127   126    1
     3   126   129    1
     4   126   125    1
     5   129   130    1
     6    20    19   ar
     7   130   131    1
     8   131   133   ar
     9   131   132   ar
    10     4     3    2
    11    19    21   ar
    12    19    18    1
    13     1     2    1
    14     3     2    1
    15     3     9   am
    16     2     5    1
    17    17    18    1
    18    17    14    1
    19     8     6    1
    20     9    10    1
    21    10    11    1
    22    13    11   am
    23    13    14    1
    24    11    12    2
    25    14    15    1
    26   122   121    2
    27     5     6    1
    28   106   105   ar
    29   106   104   ar
    30    16    15    2
    31     6     7    1
    32   115   116    1
    33    54    53    2
    34   116   117    1
    35   105   103   ar
    36    15    22   am
    37   104   102   ar
    38   124   123    1
    39   121   120    1
    40   119   117   am
    41   119   120    1
    42   117   118    2
    43    53    52    1
    44   103   101   ar
    45   120   123    1
    46    22    23    1
    47    25    24    2
    48   102   101   ar
    49   110   109    2
    50    51    52    1
    51   146   143    1
    52   146   147    1
    53   109   108    1
    54    23    24    1
    55   101   100    1
    56    24    26   am
    57    52    55    1
    58    32    34   ar
    59    32    31   ar
    60   143   142    1
    61   143   144    1
    62   148   147    1
    63   148   149    1
    64    50    49    2
    65    55    56    1
    66    55    57    1
    67    34    35   ar
    68    26    27    1
    69    27    30    1
    70    27    28    1
    71    49    48    1
    72   145   144    2
    73   100    97    1
    74   151   150    1
    75   108   107    1
    76   108   111    1
    77   144   153   am
    78    30    31    1
    79   149   150    2
    80    31    33   ar
    81    29    28    2
    82    28    36   am
    83   107    98   am
    84   150   152    1
    85    35    33   ar
    86    99    98    2
    87    98    97    1
    88   111   112    1
    89    48    47    1
    90   168   166    1
    91    59    62    1
    92    59    58    1
    93    59    60    1
    94    97    96    1
    95    36    37    1
    96    47    38   am
    97   153   154    1
    98   163   162    1
    99   163   164    2
   100   162   165    1
   101   162   161    1
   102    38    37    1
   103    38    39    2
   104    60    61    2
   105   165   166    1
   106    37    40    1
   107   159   158    2
   108   166   167    1
   109   112   114    1
   110   112   113    1
   111    96    89   am
   112   154   155    1
   113   154   157    1
   114    64    63    1
   115    64    65    1
   116    64    67    1
   117    65    66    2
   118   155   156    2
   119   158   157    1
   120   158   160   am
   121    90    89    2
   122    89    88    1
   123    40    41    1
   124    68    67    1
   125    68    69    1
   126    42    41   ar
   127    42    44   ar
   128    86    85    1
   129   176   174   ar
   130    41    43   ar
   131    82    81    2
   132    44    46   ar
   133   140   139   ar
   134    70    69    1
   135    70    71    1
   136   141   139   ar
   137    43    45   ar
   138    88    91    1
   139    88    87    1
   140   174   173    1
   141   174   175   ar
   142    46    45   ar
   143   139   138    1
   144    84    85    1
   145    84    83    1
   146   173   170    1
   147    81    87   am
   148    81    80    1
   149   137   136    2
   150    91    92    1
   151    79    80    1
   152    92    93    1
   153    78    76    1
   154    80    83    1
   155   170   169    1
   156   170   171    1
   157    77    76    1
   158   136   135    1
   159   138   135    1
   160    94    93   ar
   161    93    95   ar
   162   135   134    1
   163    76    73    1
   164   171   172    2
   165    73    72    1
   166    73    74    1
   167    74    75    2
