@<TRIPOS>MOLECULE
tmp/6c7zB00.pdb
 156 146 0 0 0
SMALL
GASTEIGER

@<TRIPOS>ATOM
      1  N          2.5960   22.5830   30.7480 N.3    16  PHE16      -0.1241
      2  CA         3.8340   22.0880   31.3020 C.3    16  PHE16       0.1605
      3  C          4.9230   23.1570   31.1960 C.2    16  PHE16       0.2264
      4  O          5.7500   23.3140   32.1160 O.2    16  PHE16      -0.2867
      5  CB         4.2490   20.7840   30.6270 C.3    16  PHE16       0.0534
      6  CG         5.3700   20.0860   31.3210 C.ar   16  PHE16      -0.0203
      7  CD1        5.3400   19.8980   32.6900 C.ar   16  PHE16      -0.0042
      8  CD2        6.4560   19.6190   30.6080 C.ar   16  PHE16      -0.0042
      9  CE1        6.3720   19.2650   33.3280 C.ar   16  PHE16      -0.0003
     10  CE2        7.4980   18.9850   31.2470 C.ar   16  PHE16      -0.0003
     11  CZ         7.4590   18.8070   32.6010 C.ar   16  PHE16      -0.0000
     12  N          4.5070   25.7250   34.0420 N.3    19  TYR19      -0.1241
     13  CA         4.9430   25.0980   35.2760 C.3    19  TYR19       0.1605
     14  C          6.4660   25.0950   35.3460 C.2    19  TYR19       0.2264
     15  O          7.0450   25.5160   36.3510 O.2    19  TYR19      -0.2867
     16  CB         4.3770   23.6730   35.3720 C.3    19  TYR19       0.0534
     17  CG         4.9450   22.8260   36.4910 C.ar   19  TYR19      -0.0201
     18  CD1        4.5500   23.0120   37.8170 C.ar   19  TYR19      -0.0009
     19  CD2        5.8820   21.8360   36.2230 C.ar   19  TYR19      -0.0009
     20  CE1        5.0870   22.2310   38.8450 C.ar   19  TYR19       0.0417
     21  CE2        6.4190   21.0610   37.2370 C.ar   19  TYR19       0.0417
     22  CZ         6.0200   21.2480   38.5340 C.ar   19  TYR19       0.1957
     23  OH         6.5750   20.4400   39.5020 O.3    19  TYR19      -0.2866
     24  N          4.4680   10.1820   27.4680 N.3    38  GLN38      -0.1245
     25  CA         5.0240   10.0350   28.7920 C.3    38  GLN38       0.1566
     26  C          4.3370    8.8650   29.4380 C.2    38  GLN38       0.2260
     27  O          3.1350    8.6620   29.2490 O.2    38  GLN38      -0.2867
     28  CB         4.7820   11.3080   29.5740 C.3    38  GLN38       0.0367
     29  CG         5.3010   11.2780   30.9880 C.3    38  GLN38       0.0905
     30  CD         4.9590   12.5340   31.7450 C.2    38  GLN38       0.2608
     31  OE1        5.3070   13.6400   31.3300 O.2    38  GLN38      -0.2717
     32  NE2        4.2610   12.3740   32.8630 N.am   38  GLN38      -0.0878
     33  N          3.7560    6.8820   33.1660 N.3    40  LEU40      -0.1245
     34  CA         3.8270    6.9350   34.6110 C.3    40  LEU40       0.1561
     35  C          3.5490    5.5190   35.0900 C.2    40  LEU40       0.2260
     36  O          2.5050    4.9560   34.7860 O.2    40  LEU40      -0.2867
     37  CB         2.7730    7.9170   35.1220 C.3    40  LEU40       0.0270
     38  CG         2.6750    8.4060   36.5640 C.3    40  LEU40       0.0019
     39  CD1        4.0050    8.8760   37.0860 C.3    40  LEU40       0.0001
     40  CD2        1.6720    9.5510   36.6160 C.3    40  LEU40       0.0001
     41  N          3.0950    3.3140   38.4630 N.3    42  ILE42      -0.1245
     42  CA         2.8260    3.4330   39.8840 C.3    42  ILE42       0.1561
     43  C          2.6340    2.0570   40.5110 C.2    42  ILE42       0.2260
     44  O          1.7450    1.2870   40.1120 O.2    42  ILE42      -0.2867
     45  CB         1.5940    4.3070   40.1380 C.3    42  ILE42       0.0252
     46  CG1        1.8140    5.7040   39.5350 C.3    42  ILE42       0.0019
     47  CG2        1.2730    4.3620   41.6330 C.3    42  ILE42       0.0019
     48  CD1        0.5990    6.6000   39.6060 C.3    42  ILE42       0.0001
     49  N          7.0850    5.3230   42.2540 N.3    51  VAL51      -0.1245
     50  CA         6.5790    5.9820   41.0520 C.3    51  VAL51       0.1561
     51  C          7.7180    6.2180   40.0780 C.2    51  VAL51       0.2260
     52  O          8.7750    6.7170   40.4660 O.2    51  VAL51      -0.2867
     53  CB         5.8860    7.3250   41.3950 C.3    51  VAL51       0.0252
     54  CG1        5.4000    8.0260   40.1330 C.3    51  VAL51       0.0019
     55  CG2        4.7210    7.0860   42.3270 C.3    51  VAL51       0.0019
     56  N          8.4890    7.9650   36.2330 N.3    53  THR53      -0.1218
     57  CA         8.0220    8.8560   35.1750 C.3    53  THR53       0.1862
     58  C          9.0460    8.8540   34.0600 C.2    53  THR53       0.2287
     59  O         10.2000    9.2320   34.2780 O.2    53  THR53      -0.2866
     60  CB         7.8920   10.3070   35.6720 C.3    53  THR53       0.1770
     61  OG1        7.0070   10.3530   36.7970 O.3    53  THR53      -0.2211
     62  CG2        7.3530   11.1940   34.5660 C.3    53  THR53       0.0375
     63  N         14.0810   10.9610   32.9460 N.3    59  ASN59      -0.1225
     64  CA        13.1610   10.2160   33.7730 C.3    59  ASN59       0.1785
     65  C         13.1360   10.8820   35.1380 C.2    59  ASN59       0.2597
     66  O         14.0200   11.6760   35.4650 O.2    59  ASN59      -0.2718
     67  CB        13.6180    8.7680   33.9180 C.3    59  ASN59       0.1169
     68  CG        13.9400    8.1280   32.5910 C.2    59  ASN59       0.2627
     69  OD1       13.1260    8.1410   31.6640 O.2    59  ASN59      -0.2716
     70  ND2       15.1420    7.5760   32.4820 N.am   59  ASN59      -0.0877
     71  N         12.1230   10.5620   35.9310 N.am   60  TYR60      -0.1976
     72  CA        12.0460   11.0520   37.2990 C.3    60  TYR60       0.1639
     73  C         11.4020    9.9850   38.1600 C.2    60  TYR60       0.2290
     74  O         10.2460    9.6200   37.9480 O.2    60  TYR60      -0.2864
     75  CB        11.2380   12.3420   37.3700 C.3    60  TYR60       0.0560
     76  CG        11.2590   12.9900   38.7380 C.ar   60  TYR60      -0.0198
     77  CD1       12.2550   13.8920   39.0830 C.ar   60  TYR60      -0.0009
     78  CD2       10.2870   12.6960   39.6860 C.ar   60  TYR60      -0.0009
     79  CE1       12.2810   14.4900   40.3310 C.ar   60  TYR60       0.0417
     80  CE2       10.2980   13.2920   40.9350 C.ar   60  TYR60       0.0417
     81  CZ        11.2980   14.1870   41.2520 C.ar   60  TYR60       0.1957
     82  OH        11.3260   14.7820   42.4900 O.3    60  TYR60      -0.2866
     83  N         10.6240    8.3790   42.1160 N.3    62  VAL62      -0.1245
     84  CA        10.4990    8.7810   43.5080 C.3    62  VAL62       0.1561
     85  C          9.7370    7.7190   44.2920 C.2    62  VAL62       0.2260
     86  O          8.7620    7.1440   43.8060 O.2    62  VAL62      -0.2867
     87  CB         9.8380   10.1860   43.6350 C.3    62  VAL62       0.0252
     88  CG1        8.3870   10.1510   43.1700 C.3    62  VAL62       0.0019
     89  CG2        9.9340   10.7190   45.0680 C.3    62  VAL62       0.0019
     90  N          7.9160    7.0450   48.1190 N.3    64  PHE64      -0.1241
     91  CA         7.4730    7.7030   49.3390 C.3    64  PHE64       0.1605
     92  C          6.4360    6.8940   50.0940 C.2    64  PHE64       0.2264
     93  O          5.7890    6.0130   49.5310 O.2    64  PHE64      -0.2867
     94  CB         6.9220    9.1080   49.0550 C.3    64  PHE64       0.0534
     95  CG         5.7840    9.1300   48.0800 C.ar   64  PHE64      -0.0203
     96  CD1        4.4710    8.9250   48.4890 C.ar   64  PHE64      -0.0042
     97  CD2        6.0310    9.3550   46.7390 C.ar   64  PHE64      -0.0042
     98  CE1        3.4360    8.9390   47.5800 C.ar   64  PHE64      -0.0003
     99  CE2        4.9910    9.3650   45.8090 C.ar   64  PHE64      -0.0003
    100  CZ         3.6890    9.1690   46.2410 C.ar   64  PHE64      -0.0000
    101  N         15.4790   18.6990   38.2340 N.3    77  LEU77      -0.1245
    102  CA        14.5190   19.6800   37.7620 C.3    77  LEU77       0.1561
    103  C         15.0820   21.0790   37.9520 C.2    77  LEU77       0.2260
    104  O         15.7780   21.5950   37.0860 O.2    77  LEU77      -0.2867
    105  CB        13.2010   19.5080   38.5230 C.3    77  LEU77       0.0270
    106  CG        11.8970   19.8080   37.7830 C.3    77  LEU77       0.0019
    107  CD1       11.8810   19.1400   36.4230 C.3    77  LEU77       0.0001
    108  CD2       10.7050   19.3420   38.6100 C.3    77  LEU77       0.0001
    109  N          1.7610   18.8050   44.0310 N.3   106  TRP106     -0.1241
    110  CA         0.9220   18.1670   43.0360 C.3   106  TRP106      0.1605
    111  C         -0.2750   17.4930   43.6820 C.2   106  TRP106      0.2264
    112  O         -0.3040   17.2740   44.8970 O.2   106  TRP106     -0.2867
    113  CB         1.7070   17.1980   42.1310 C.3   106  TRP106      0.0550
    114  CG         2.5440   16.1300   42.8090 C.ar  106  TRP106      0.0003
    115  CD1        3.9060   16.1050   42.9070 C.ar  106  TRP106      0.0946
    116  CD2        2.0800   14.9070   43.4220 C.ar  106  TRP106      0.0152
    117  NE1        4.3190   14.9610   43.5520 N.ar  106  TRP106     -0.2442
    118  CE2        3.2190   14.2150   43.8840 C.ar  106  TRP106      0.0810
    119  CE3        0.8150   14.3500   43.6420 C.ar  106  TRP106      0.0012
    120  CZ2        3.1350   12.9920   44.5600 C.ar  106  TRP106      0.0191
    121  CZ3        0.7310   13.1350   44.3230 C.ar  106  TRP106      0.0001
    122  CH2        1.8890   12.4720   44.7730 C.ar  106  TRP106      0.0015
    123  N         -3.0960   14.2370   42.6260 N.3   108  LYS108     -0.1245
    124  CA        -3.3040   13.1540   41.6790 C.3   108  LYS108      0.1561
    125  C         -4.5390   12.3830   42.0600 C.2   108  LYS108      0.2260
    126  O         -4.7360   12.0680   43.2480 O.2   108  LYS108     -0.2867
    127  CB        -2.1030   12.2290   41.6850 C.3   108  LYS108      0.0271
    128  CG        -2.2310   11.0540   40.7550 C.3   108  LYS108      0.0035
    129  CD        -1.1270   10.0440   40.9700 C.3   108  LYS108      0.0206
    130  CE         0.2350   10.6700   40.8190 C.3   108  LYS108      0.1093
    131  NZ         1.1440   10.0180   41.7850 N.3   108  LYS108     -0.1314
    132  N         -3.2090   14.3630   36.9390 N.3   117  LEU117     -0.1245
    133  CA        -2.1050   14.8830   37.7160 C.3   117  LEU117      0.1561
    134  C         -2.0520   16.3890   37.5340 C.2   117  LEU117      0.2260
    135  O         -1.9580   16.8760   36.4020 O.2   117  LEU117     -0.2867
    136  CB        -0.7960   14.2410   37.2550 C.3   117  LEU117      0.0270
    137  CG         0.4590   14.8040   37.9290 C.3   117  LEU117      0.0019
    138  CD1        0.4740   14.4780   39.4160 C.3   117  LEU117      0.0001
    139  CD2        1.6890   14.2600   37.2430 C.3   117  LEU117      0.0001
    140  N          0.1900   19.5390   38.5430 N.3   119  LEU119     -0.1245
    141  CA         1.4520   20.0360   39.0890 C.3   119  LEU119      0.1561
    142  C          1.3380   21.5370   39.2930 C.2   119  LEU119      0.2260
    143  O          0.9560   22.2650   38.3770 O.2   119  LEU119     -0.2867
    144  CB         2.5930   19.7310   38.1340 C.3   119  LEU119      0.0270
    145  CG         2.8960   18.2720   37.8320 C.3   119  LEU119      0.0019
    146  CD1        3.4700   18.1510   36.4190 C.3   119  LEU119      0.0001
    147  CD2        3.8530   17.7020   38.8680 C.3   119  LEU119      0.0001
    148  N         -2.0600   17.1790   33.6020 N.3   128  GLN128     -0.1245
    149  CA        -1.7650   16.0360   32.7450 C.3   128  GLN128      0.1566
    150  C         -2.8280   14.9600   32.9430 C.2   128  GLN128      0.2260
    151  O         -3.2920   14.7340   34.0650 O.2   128  GLN128     -0.2867
    152  CB        -0.3580   15.4860   33.0070 C.3   128  GLN128      0.0367
    153  CG         0.7500   16.5600   32.8880 C.3   128  GLN128      0.0905
    154  CD         2.1680   16.0160   33.0710 C.2   128  GLN128      0.2608
    155  OE1        2.3870   14.9850   33.7140 O.2   128  GLN128     -0.2717
    156  NE2        3.1390   16.7070   32.4800 N.am  128  GLN128     -0.0878
@<TRIPOS>BOND
     1    24    25    1
     2    25    26    1
     3    25    28    1
     4    27    26    2
     5    28    29    1
     6     8    10   ar
     7     8     6   ar
     8     5     2    1
     9     5     6    1
    10     1     2    1
    11    29    30    1
    12     3     2    1
    13     3     4    2
    14    10    11   ar
    15     6     7   ar
    16    31    30    2
    17    69    68    2
    18    30    32   am
    19   156   154   am
    20    70    68   am
    21    68    67    1
    22    11     9   ar
    23     7     9   ar
    24   149   150    1
    25   149   152    1
    26   149   148    1
    27   153   152    1
    28   153   154    1
    29   150   151    2
    30    63    64    1
    31   154   155    2
    32    33    34    1
    33    64    67    1
    34    64    65    1
    35    12    13    1
    36    58    59    2
    37    58    57    1
    38    62    60    1
    39    34    35    1
    40    34    37    1
    41    36    35    2
    42    37    38    1
    43    65    66    2
    44    65    71   am
    45    57    60    1
    46    57    56    1
    47    13    14    1
    48    13    16    1
    49    14    15    2
    50    16    17    1
    51    60    61    1
    52    71    72    1
    53    19    17   ar
    54    19    21   ar
    55   135   134    2
    56   146   145    1
    57   107   106    1
    58    17    18   ar
    59    38    40    1
    60    38    39    1
    61   132   133    1
    62   104   103    2
    63    21    22   ar
    64   139   137    1
    65   136   133    1
    66   136   137    1
    67    72    75    1
    68    72    73    1
    69    75    76    1
    70   134   133    1
    71   102   103    1
    72   102   101    1
    73   102   105    1
    74   106   105    1
    75   106   108    1
    76    18    20   ar
    77   145   144    1
    78   145   147    1
    79   137   138    1
    80    74    73    2
    81   144   141    1
    82   143   142    2
    83    41    42    1
    84    22    20   ar
    85    22    23    1
    86   140   141    1
    87    76    77   ar
    88    76    78   ar
    89    77    79   ar
    90   141   142    1
    91    46    48    1
    92    46    45    1
    93    78    80   ar
    94    42    45    1
    95    42    43    1
    96    51    52    2
    97    51    50    1
    98    44    43    2
    99    54    53    1
   100    45    47    1
   101    79    81   ar
   102   128   129    1
   103   128   127    1
   104   130   129    1
   105   130   131    1
   106    80    81   ar
   107    50    53    1
   108    50    49    1
   109    81    82    1
   110    53    55    1
   111   124   127    1
   112   124   125    1
   113   124   123    1
   114   125   126    2
   115    83    84    1
   116   113   114    1
   117   113   110    1
   118   114   115   ar
   119   114   116   ar
   120   115   117   ar
   121   110   111    1
   122   110   109    1
   123    88    87    1
   124   116   119   ar
   125   116   118   ar
   126    84    87    1
   127    84    85    1
   128   117   118   ar
   129    87    89    1
   130   119   121   ar
   131   111   112    2
   132    86    85    2
   133   118   120   ar
   134   121   122   ar
   135   120   122   ar
   136    99   100   ar
   137    99    97   ar
   138   100    98   ar
   139    97    95   ar
   140    98    96   ar
   141    95    96   ar
   142    95    94    1
   143    90    91    1
   144    94    91    1
   145    91    92    1
   146    93    92    2
