@<TRIPOS>MOLECULE
tmp/6c80B03.pdb
 102 93 0 0 0
SMALL
GASTEIGER

@<TRIPOS>ATOM
      1  N        204.7660   -9.4470  403.9800 N.3   122  ASP122     -0.1239
      2  CA       203.9550   -8.2250  403.8380 C.3   122  ASP122      0.1674
      3  C        203.2220   -8.2070  402.5010 C.2   122  ASP122      0.2266
      4  O        202.1020   -7.7120  402.3880 O.2   122  ASP122     -0.2867
      5  CB       204.8270   -6.9590  403.9250 C.3   122  ASP122      0.1410
      6  CG       205.5690   -6.8380  405.2310 C.2   122  ASP122      0.3668
      7  OD1      205.0820   -7.3710  406.2490 O.co2 122  ASP122     -0.2456
      8  OD2      206.6380   -6.1800  405.2300 O.co2 122  ASP122     -0.2456
      9  N        198.8450    2.2340  414.2360 N.3   206  ARG206     -0.1245
     10  CA       200.1550    2.8580  414.0560 C.3   206  ARG206      0.1563
     11  C        200.3660    3.9450  415.0890 C.2   206  ARG206      0.2260
     12  O        199.4800    4.7630  415.3310 O.2   206  ARG206     -0.2867
     13  CB       200.3170    3.4520  412.6460 C.3   206  ARG206      0.0307
     14  CG       200.6290    2.3860  411.6130 C.3   206  ARG206      0.0489
     15  CD       200.7890    2.9960  410.2140 C.3   206  ARG206      0.2205
     16  NE       201.1380    1.9700  409.2370 N.pl3 206  ARG206     -0.0865
     17  CZ       201.3880    2.2340  407.9600 C.cat 206  ARG206      0.5346
     18  NH1      201.2980    3.4840  407.5160 N.pl3 206  ARG206      0.1354
     19  NH2      201.7160    1.2560  407.1280 N.pl3 206  ARG206      0.1354
     20  N        205.2660   -4.7010  413.6350 N.3   235  GLU235     -0.1245
     21  CA       206.3200   -4.2020  412.7480 C.3   235  GLU235      0.1567
     22  C        206.6430   -2.7720  413.1420 C.2   235  GLU235      0.2260
     23  O        206.0820   -2.2420  414.1010 O.2   235  GLU235     -0.2867
     24  CB       205.9170   -4.2530  411.2710 C.3   235  GLU235      0.0388
     25  CG       205.7740   -5.6600  410.7400 C.3   235  GLU235      0.1160
     26  CD       205.7320   -5.7380  409.2180 C.2   235  GLU235      0.3649
     27  OE1      205.9280   -4.7020  408.5290 O.co2 235  GLU235     -0.2457
     28  OE2      205.4990   -6.8560  408.7230 O.co2 235  GLU235     -0.2457
     29  N        208.7610    1.0590  411.3540 N.3   237  PHE237     -0.1241
     30  CA       209.5710    1.6490  410.3070 C.3   237  PHE237      0.1605
     31  C        209.9940    3.0640  410.6680 C.2   237  PHE237      0.2264
     32  O        209.3360    3.7440  411.4630 O.2   237  PHE237     -0.2867
     33  CB       208.8130    1.6250  408.9690 C.3   237  PHE237      0.0534
     34  CG       207.4750    2.3300  408.9880 C.ar  237  PHE237     -0.0203
     35  CD1      206.3150    1.6530  409.3620 C.ar  237  PHE237     -0.0042
     36  CD2      207.3720    3.6620  408.5820 C.ar  237  PHE237     -0.0042
     37  CE1      205.0790    2.3030  409.3510 C.ar  237  PHE237     -0.0003
     38  CE2      206.1410    4.3220  408.5680 C.ar  237  PHE237     -0.0003
     39  CZ       204.9960    3.6460  408.9510 C.ar  237  PHE237     -0.0000
     40  N        202.6840    9.1550  404.3800 N.3   251  SER251     -0.1217
     41  CA       202.6740    7.7010  404.2350 C.3   251  SER251      0.1889
     42  C        202.2480    6.9960  405.5170 C.2   251  SER251      0.2288
     43  O        202.1160    5.7750  405.5470 O.2   251  SER251     -0.2866
     44  CB       204.0590    7.1880  403.8080 C.3   251  SER251      0.2089
     45  OG       205.0230    7.3730  404.8370 O.3   251  SER251     -0.2183
     46  N        203.9480   -0.3930  414.4510 N.3   273  GLU273     -0.1245
     47  CA       202.7450   -0.8560  413.7650 C.3   273  GLU273      0.1567
     48  C        202.2880   -2.1410  414.4020 C.2   273  GLU273      0.2260
     49  O        203.0530   -3.1050  414.4560 O.2   273  GLU273     -0.2867
     50  CB       203.0180   -1.0960  412.2770 C.3   273  GLU273      0.0388
     51  CG       201.7540   -1.3600  411.4530 C.3   273  GLU273      0.1160
     52  CD       202.0940   -1.5570  409.9680 C.2   273  GLU273      0.3649
     53  OE1      202.9510   -2.4090  409.6560 O.co2 273  GLU273     -0.2457
     54  OE2      201.5150   -0.8450  409.1350 O.co2 273  GLU273     -0.2457
     55  N        196.8930   -5.8650  402.6520 N.3   318  ARG318     -0.1231
     56  CA       196.9650   -4.4040  402.7210 C.3   318  ARG318      0.1694
     57  C        197.9230   -3.7800  401.6990 C.2   318  ARG318      0.2591
     58  O        197.7280   -2.6410  401.3010 O.2   318  ARG318     -0.2718
     59  CB       197.3650   -3.9570  404.1390 C.3   318  ARG318      0.0321
     60  CG       198.7750   -4.3700  404.5520 C.3   318  ARG318      0.0489
     61  CD       198.9680   -4.3710  406.0960 C.3   318  ARG318      0.2205
     62  NE       200.3220   -4.8210  406.3870 N.pl3 318  ARG318     -0.0865
     63  CZ       200.6860   -6.0970  406.3600 C.cat 318  ARG318      0.5346
     64  NH1      199.7710   -7.0350  406.1140 N.pl3 318  ARG318      0.1354
     65  NH2      201.9470   -6.4450  406.5820 N.pl3 318  ARG318      0.1354
     66  N        198.9400   -4.5190  401.2650 N.am  319  VAL319     -0.1980
     67  CA       199.9510   -3.9450  400.3770 C.3   319  VAL319      0.1595
     68  C        199.4930   -3.9410  398.9130 C.2   319  VAL319      0.2287
     69  O        200.1230   -3.3130  398.0680 O.2   319  VAL319     -0.2864
     70  CB       201.3100   -4.6940  400.5160 C.3   319  VAL319      0.0276
     71  CG1      202.3530   -4.1620  399.5270 C.3   319  VAL319      0.0022
     72  CG2      201.8430   -4.5690  401.9440 C.3   319  VAL319      0.0022
     73  N        199.2990   -0.5930  397.3790 N.3   322  VAL322     -0.1245
     74  CA       200.6170   -0.0580  397.0660 C.3   322  VAL322      0.1561
     75  C        201.0730   -0.4940  395.6690 C.2   322  VAL322      0.2260
     76  O        201.5700    0.3180  394.8910 O.2   322  VAL322     -0.2867
     77  CB       201.6580   -0.4980  398.1150 C.3   322  VAL322      0.0252
     78  CG1      203.0360    0.0720  397.7840 C.3   322  VAL322      0.0019
     79  CG2      201.2150   -0.0660  399.5090 C.3   322  VAL322      0.0019
     80  N        209.4970    2.7050  402.2580 N.3   367  PRO367     -0.2116
     81  CA       209.5770    2.3110  403.6690 C.3   367  PRO367      0.1372
     82  C        210.9800    1.8830  404.1060 C.2   367  PRO367      0.2244
     83  O        211.6870    1.1950  403.3730 O.2   367  PRO367     -0.2868
     84  CB       208.6010    1.1290  403.7540 C.3   367  PRO367      0.0268
     85  CG       207.6180    1.3670  402.6160 C.3   367  PRO367      0.0207
     86  CD       208.4860    1.9270  401.5140 C.3   367  PRO367      0.0892
     87  N        211.8970   -0.2990  406.9130 N.3   369  LEU369     -0.1245
     88  CA       211.3470   -1.1520  407.9670 C.3   369  LEU369      0.1561
     89  C        212.3890   -1.4650  409.0170 C.2   369  LEU369      0.2260
     90  O        213.5730   -1.6120  408.7120 O.2   369  LEU369     -0.2867
     91  CB       210.8040   -2.4650  407.3880 C.3   369  LEU369      0.0270
     92  CG       209.7510   -2.3200  406.2860 C.3   369  LEU369      0.0019
     93  CD1      209.1180   -3.6770  405.9870 C.3   369  LEU369      0.0001
     94  CD2      208.6940   -1.3220  406.6920 C.3   369  LEU369      0.0001
     95  N        213.4920   -0.1290  401.4430 N.3   400  LEU400     -0.1245
     96  CA       212.7170   -0.3360  400.2420 C.3   400  LEU400      0.1561
     97  C        212.8020    0.9070  399.3560 C.2   400  LEU400      0.2260
     98  O        211.8490    1.6730  399.2440 O.2   400  LEU400     -0.2867
     99  CB       211.2640   -0.6820  400.6090 C.3   400  LEU400      0.0270
    100  CG       211.1070   -1.8920  401.5370 C.3   400  LEU400      0.0019
    101  CD1      209.6400   -2.3140  401.6400 C.3   400  LEU400      0.0001
    102  CD2      211.9790   -3.0690  401.0980 C.3   400  LEU400      0.0001
@<TRIPOS>BOND
     1    76    75    2
     2    75    74    1
     3    74    73    1
     4    74    77    1
     5    78    77    1
     6    69    68    2
     7    77    79    1
     8    68    67    1
     9    98    97    2
    10    97    96    1
    11    71    70    1
    12    96    99    1
    13    96    95    1
    14    67    70    1
    15    67    66    1
    16    70    72    1
    17    99   100    1
    18   102   100    1
    19    66    57   am
    20    58    57    2
    21    86    80    1
    22    86    85    1
    23   100   101    1
    24    57    56    1
    25    80    81    1
    26     4     3    2
    27     3     2    1
    28    85    84    1
    29    55    56    1
    30    56    59    1
    31    83    82    2
    32    81    84    1
    33    81    82    1
    34    44    41    1
    35    44    45    1
    36     2     5    1
    37     2     1    1
    38     5     6    1
    39    59    60    1
    40    41    40    1
    41    41    42    1
    42    60    61    1
    43     8     6   ar
    44     6     7   ar
    45    42    43    2
    46    93    92    1
    47    61    62    1
    48    64    63    1
    49    92    94    1
    50    92    91    1
    51    63    62    2
    52    63    65    1
    53    87    88    1
    54    19    17    1
    55    91    88    1
    56    18    17    1
    57    17    16    2
    58    88    89    1
    59    27    26   ar
    60    38    36   ar
    61    38    39   ar
    62    36    34   ar
    63    90    89    2
    64    28    26   ar
    65    39    37   ar
    66    33    34    1
    67    33    30    1
    68    34    35   ar
    69    54    52   ar
    70    26    25    1
    71    16    15    1
    72    37    35   ar
    73    53    52   ar
    74    52    51    1
    75    15    14    1
    76    30    31    1
    77    30    29    1
    78    31    32    2
    79    25    24    1
    80    24    21    1
    81    51    50    1
    82    14    13    1
    83    50    47    1
    84    13    10    1
    85    21    22    1
    86    21    20    1
    87    22    23    2
    88    47    48    1
    89    47    46    1
    90    10     9    1
    91    10    11    1
    92    48    49    2
    93    11    12    2
