@<TRIPOS>MOLECULE
tmp/6c80A02.pdb
 226 219 0 0 0
SMALL
GASTEIGER

@<TRIPOS>ATOM
      1  N        166.4120   12.5300  389.5670 N.3    19  PHE19      -0.1241
      2  CA       166.7670   11.3230  390.3150 C.3    19  PHE19       0.1605
      3  C        165.6160   10.3260  390.4280 C.2    19  PHE19       0.2264
      4  O        165.8290    9.1150  390.4560 O.2    19  PHE19      -0.2867
      5  CB       167.2360   11.7360  391.7170 C.3    19  PHE19       0.0534
      6  CG       167.7230   10.6000  392.5710 C.ar   19  PHE19      -0.0203
      7  CD1      169.0130   10.0900  392.4170 C.ar   19  PHE19      -0.0042
      8  CD2      166.9200   10.0780  393.5820 C.ar   19  PHE19      -0.0042
      9  CE1      169.4770    9.0790  393.2260 C.ar   19  PHE19      -0.0003
     10  CE2      167.3840    9.0530  394.3910 C.ar   19  PHE19      -0.0003
     11  CZ       168.6670    8.5540  394.2160 C.ar   19  PHE19      -0.0000
     12  N        171.2500   14.1390  404.9670 N.3   123  ASP123     -0.1225
     13  CA       172.0320   12.9000  404.9880 C.3   123  ASP123      0.1805
     14  C        173.0030   12.8380  403.8110 C.2   123  ASP123      0.2597
     15  O        174.1080   12.3300  403.9200 O.2   123  ASP123     -0.2718
     16  CB       171.1220   11.6620  404.9250 C.3   123  ASP123      0.1424
     17  CG       170.1750   11.5740  406.0910 C.2   123  ASP123      0.3668
     18  OD1      170.5010   12.1270  407.1550 O.co2 123  ASP123     -0.2456
     19  OD2      169.1100   10.9320  405.9390 O.co2 123  ASP123     -0.2456
     20  N        172.5330   13.3390  402.6750 N.am  124  TYR124     -0.1976
     21  CA       173.2430   13.2770  401.4140 C.3   124  TYR124      0.1639
     22  C        173.6370   14.6980  401.0300 C.2   124  TYR124      0.2290
     23  O        172.7900   15.5960  401.0750 O.2   124  TYR124     -0.2864
     24  CB       172.3470   12.6330  400.3470 C.3   124  TYR124      0.0560
     25  CG       172.9640   12.6030  398.9840 C.ar  124  TYR124     -0.0198
     26  CD1      173.9810   11.7110  398.6900 C.ar  124  TYR124     -0.0009
     27  CD2      172.5370   13.4730  397.9880 C.ar  124  TYR124     -0.0009
     28  CE1      174.5660   11.6810  397.4340 C.ar  124  TYR124      0.0417
     29  CE2      173.1050   13.4470  396.7290 C.ar  124  TYR124      0.0417
     30  CZ       174.1260   12.5540  396.4580 C.ar  124  TYR124      0.1957
     31  OH       174.6970   12.5290  395.2130 O.3   124  TYR124     -0.2866
     32  N        180.1810    7.2160  416.1550 N.3   205  TRP205     -0.1241
     33  CA       178.9990    6.8450  415.3800 C.3   205  TRP205      0.1605
     34  C        178.4870    5.4930  415.9000 C.2   205  TRP205      0.2264
     35  O        179.2400    4.5200  415.9800 O.2   205  TRP205     -0.2867
     36  CB       179.3720    6.7830  413.8920 C.3   205  TRP205      0.0550
     37  CG       178.2960    6.4640  412.8980 C.ar  205  TRP205      0.0003
     38  CD1      176.9480    6.4150  413.1030 C.ar  205  TRP205      0.0946
     39  CD2      178.5050    6.1610  411.5140 C.ar  205  TRP205      0.0152
     40  NE1      176.3020    6.0910  411.9220 N.ar  205  TRP205     -0.2442
     41  CE2      177.2400    5.9290  410.9370 C.ar  205  TRP205      0.0810
     42  CE3      179.6440    6.0570  410.7110 C.ar  205  TRP205      0.0012
     43  CZ2      177.0830    5.6060  409.5840 C.ar  205  TRP205      0.0191
     44  CZ3      179.4870    5.7230  409.3650 C.ar  205  TRP205      0.0001
     45  CH2      178.2130    5.5090  408.8200 C.ar  205  TRP205      0.0015
     46  N        175.2700    2.4780  416.1490 N.3   207  ARG207     -0.1245
     47  CA       173.9950    1.8830  415.7360 C.3   207  ARG207      0.1563
     48  C        173.5740    0.7930  416.7130 C.2   207  ARG207      0.2260
     49  O        174.3920   -0.0420  417.1070 O.2   207  ARG207     -0.2867
     50  CB       174.0860    1.3020  414.3210 C.3   207  ARG207      0.0307
     51  CG       174.0290    2.3820  413.2360 C.3   207  ARG207      0.0489
     52  CD       174.0960    1.7580  411.8440 C.3   207  ARG207      0.2205
     53  NE       173.9150    2.7830  410.8090 N.pl3 207  ARG207     -0.0865
     54  CZ       173.8770    2.5150  409.5070 C.cat 207  ARG207      0.5346
     55  NH1      174.0280    1.2620  409.0830 N.pl3 207  ARG207      0.1354
     56  NH2      173.6980    3.4970  408.6280 N.pl3 207  ARG207      0.1354
     57  N        173.3870   13.8390  417.1540 N.3   234  TYR234     -0.1241
     58  CA       172.7640   13.2930  415.9590 C.3   234  TYR234      0.1605
     59  C        171.8940   12.1290  416.3920 C.2   234  TYR234      0.2264
     60  O        172.3550   11.2480  417.1260 O.2   234  TYR234     -0.2867
     61  CB       173.8310   12.8340  414.9590 C.3   234  TYR234      0.0534
     62  CG       173.3470   12.0180  413.7710 C.ar  234  TYR234     -0.0201
     63  CD1      173.0220   10.6630  413.9060 C.ar  234  TYR234     -0.0009
     64  CD2      173.2850   12.5760  412.5100 C.ar  234  TYR234     -0.0009
     65  CE1      172.6140    9.9090  412.8020 C.ar  234  TYR234      0.0417
     66  CE2      172.8800   11.8330  411.4050 C.ar  234  TYR234      0.0417
     67  CZ       172.5420   10.5030  411.5610 C.ar  234  TYR234      0.1957
     68  OH       172.1630    9.7820  410.4500 O.3   234  TYR234     -0.2866
     69  N        169.0190    9.5050  414.4490 N.3   236  GLU236     -0.1245
     70  CA       168.1380    9.0340  413.3790 C.3   236  GLU236      0.1567
     71  C        167.7670    7.5880  413.6810 C.2   236  GLU236      0.2260
     72  O        168.1700    7.0400  414.7030 O.2   236  GLU236     -0.2867
     73  CB       168.8060    9.1280  412.0030 C.3   236  GLU236      0.0388
     74  CG       168.9530   10.5600  411.4900 C.3   236  GLU236      0.1160
     75  CD       169.3070   10.6190  410.0160 C.2   236  GLU236      0.3649
     76  OE1      169.2450    9.5680  409.3370 O.co2 236  GLU236     -0.2457
     77  OE2      169.6350   11.7280  409.5440 O.co2 236  GLU236     -0.2457
     78  N        166.0110    3.7410  411.5170 N.3   238  PHE238     -0.1241
     79  CA       165.3990    3.1630  410.3340 C.3   238  PHE238      0.1605
     80  C        164.8950    1.7620  410.6310 C.2   238  PHE238      0.2264
     81  O        165.4170    1.0730  411.4990 O.2   238  PHE238     -0.2867
     82  CB       166.3880    3.1480  409.1560 C.3   238  PHE238      0.0534
     83  CG       167.7010    2.4430  409.4410 C.ar  238  PHE238     -0.0203
     84  CD1      168.7620    3.1210  410.0210 C.ar  238  PHE238     -0.0042
     85  CD2      167.8850    1.1120  409.0730 C.ar  238  PHE238     -0.0042
     86  CE1      169.9780    2.4820  410.2670 C.ar  238  PHE238     -0.0003
     87  CE2      169.1050    0.4600  409.3090 C.ar  238  PHE238     -0.0003
     88  CZ       170.1510    1.1470  409.9100 C.ar  238  PHE238     -0.0000
     89  N        173.0800   -4.3480  405.8620 N.3   252  SER252     -0.1217
     90  CA       173.0610   -2.8910  405.7350 C.3   252  SER252      0.1889
     91  C        173.2720   -2.1920  407.0810 C.2   252  SER252      0.2288
     92  O        173.4070   -0.9700  407.1300 O.2   252  SER252     -0.2866
     93  CB       171.7390   -2.4280  405.1200 C.3   252  SER252      0.2089
     94  OG       170.6750   -2.5710  406.0470 O.3   252  SER252     -0.2183
     95  N        175.5550   -3.0610  410.1730 N.3   254  PRO254     -0.2102
     96  CA       176.8540   -2.8150  410.8310 C.3   254  PRO254      0.1504
     97  C        177.6770   -1.6870  410.2030 C.2   254  PRO254      0.2575
     98  O        177.5440   -1.3880  409.0110 O.2   254  PRO254     -0.2718
     99  CB       177.5870   -4.1520  410.6770 C.3   254  PRO254      0.0282
    100  CG       176.4740   -5.1710  410.5190 C.3   254  PRO254      0.0208
    101  CD       175.4360   -4.4570  409.7010 C.3   254  PRO254      0.0893
    102  N        178.5320   -1.0620  411.0080 N.am  255  LEU255     -0.1980
    103  CA       179.2580    0.1190  410.5530 C.3   255  LEU255      0.1596
    104  C        180.5940   -0.1940  409.8950 C.2   255  LEU255      0.2287
    105  O        181.1670    0.6590  409.2210 O.2   255  LEU255     -0.2864
    106  CB       179.4750    1.0810  411.7270 C.3   255  LEU255      0.0297
    107  CG       178.1680    1.6550  412.2680 C.3   255  LEU255      0.0022
    108  CD1      178.4170    2.4840  413.5340 C.3   255  LEU255      0.0001
    109  CD2      177.4880    2.4890  411.2040 C.3   255  LEU255      0.0001
    110  N        170.1900    5.1950  415.4670 N.3   269  GLU269     -0.1245
    111  CA       171.4990    5.6310  414.9750 C.3   269  GLU269      0.1567
    112  C        171.8460    6.9410  415.6510 C.2   269  GLU269      0.2260
    113  O        171.0830    7.9110  415.5630 O.2   269  GLU269     -0.2867
    114  CB       171.5010    5.8100  413.4520 C.3   269  GLU269      0.0388
    115  CG       172.8790    6.1360  412.8850 C.3   269  GLU269      0.1160
    116  CD       172.8500    6.3470  411.3740 C.2   269  GLU269      0.3649
    117  OE1      172.0090    7.1430  410.9050 O.co2 269  GLU269     -0.2457
    118  OE2      173.6530    5.7090  410.6680 O.co2 269  GLU269     -0.2457
    119  N        179.2130   10.5060  405.0940 N.3   314  ARG314     -0.1231
    120  CA       179.1310    9.0450  405.1670 C.3   314  ARG314      0.1694
    121  C        178.3530    8.3970  404.0110 C.2   314  ARG314      0.2591
    122  O        178.5540    7.2260  403.7030 O.2   314  ARG314     -0.2718
    123  CB       178.5000    8.6220  406.5060 C.3   314  ARG314      0.0321
    124  CG       177.0630    9.0920  406.6710 C.3   314  ARG314      0.0489
    125  CD       176.5340    9.0000  408.1260 C.3   314  ARG314      0.2205
    126  NE       175.1610    9.5040  408.1360 N.pl3 314  ARG314     -0.0865
    127  CZ       174.8450   10.7940  408.0270 C.cat 314  ARG314      0.5346
    128  NH1      175.8070   11.7030  407.9460 N.pl3 314  ARG314      0.1354
    129  NH2      173.5700   11.1780  408.0010 N.pl3 314  ARG314      0.1354
    130  N        177.4440    9.1350  403.3900 N.am  315  VAL315     -0.1980
    131  CA       176.5950    8.5320  402.3700 C.3   315  VAL315      0.1595
    132  C        177.3180    8.4930  401.0100 C.2   315  VAL315      0.2287
    133  O        176.8580    7.8440  400.0710 O.2   315  VAL315     -0.2864
    134  CB       175.2380    9.2770  402.2920 C.3   315  VAL315      0.0276
    135  CG1      174.3850    8.7790  401.1440 C.3   315  VAL315      0.0022
    136  CG2      174.4750    9.1100  403.6270 C.3   315  VAL315      0.0022
    137  N        179.8330    6.7880  400.2480 N.3   317  ARG317     -0.1231
    138  CA       180.1100    5.3750  399.9830 C.3   317  ARG317      0.1694
    139  C        178.9020    4.7110  399.3270 C.2   317  ARG317      0.2591
    140  O        179.0450    3.8870  398.4290 O.2   317  ARG317     -0.2718
    141  CB       180.4650    4.6400  401.2780 C.3   317  ARG317      0.0321
    142  CG       181.2120    5.4920  402.3000 C.3   317  ARG317      0.0489
    143  CD       181.0870    4.9100  403.7100 C.3   317  ARG317      0.2205
    144  NE       179.6940    4.8740  404.1550 N.pl3 317  ARG317     -0.0865
    145  CZ       179.2880    4.3650  405.3150 C.cat 317  ARG317      0.5346
    146  NH1      180.1720    3.8430  406.1580 N.pl3 317  ARG317      0.1354
    147  NH2      177.9950    4.3790  405.6290 N.pl3 317  ARG317      0.1354
    148  N        177.7100    5.0810  399.7770 N.am  318  VAL318     -0.1980
    149  CA       176.4880    4.5000  399.2240 C.3   318  VAL318      0.1595
    150  C        176.3180    4.9000  397.7600 C.2   318  VAL318      0.2287
    151  O        175.9760    4.0590  396.9230 O.2   318  VAL318     -0.2864
    152  CB       175.2360    4.9140  400.0310 C.3   318  VAL318      0.0276
    153  CG1      173.9790    4.2930  399.4210 C.3   318  VAL318      0.0022
    154  CG2      175.3800    4.4910  401.4850 C.3   318  VAL318      0.0022
    155  N        176.1910    2.3260  394.4690 N.3   322  ALA322     -0.1245
    156  CA       175.0990    2.3780  393.5040 C.3   322  ALA322      0.1562
    157  C        175.6060    2.6520  392.0890 C.2   322  ALA322      0.2260
    158  O        175.2010    1.9760  391.1420 O.2   322  ALA322     -0.2867
    159  CB       174.0750    3.4350  393.9210 C.3   322  ALA322      0.0290
    160  N        172.3970    4.1700  389.9130 N.3   328  TRP328     -0.1241
    161  CA       172.2190    5.5710  390.2800 C.3   328  TRP328      0.1605
    162  C        171.3760    6.2950  389.2440 C.2   328  TRP328      0.2264
    163  O        170.4880    7.0670  389.5840 O.2   328  TRP328     -0.2867
    164  CB       173.5680    6.2650  390.4310 C.3   328  TRP328      0.0550
    165  CG       173.4650    7.6360  391.0340 C.ar  328  TRP328      0.0003
    166  CD1      173.5090    8.8290  390.3680 C.ar  328  TRP328      0.0946
    167  CD2      173.3110    7.9550  392.4240 C.ar  328  TRP328      0.0152
    168  NE1      173.3850    9.8680  391.2590 N.ar  328  TRP328     -0.2442
    169  CE2      173.2680    9.3580  392.5270 C.ar  328  TRP328      0.0810
    170  CE3      173.2060    7.1900  393.5910 C.ar  328  TRP328      0.0012
    171  CZ2      173.1270   10.0110  393.7490 C.ar  328  TRP328      0.0191
    172  CZ3      173.0530    7.8420  394.8060 C.ar  328  TRP328      0.0001
    173  CH2      173.0190    9.2410  394.8750 C.ar  328  TRP328      0.0015
    174  N        163.9340    6.0980  391.1090 N.3   332  HIS332     -0.1241
    175  CA       163.9020    6.0940  392.5710 C.3   332  HIS332      0.1621
    176  C        162.5980    6.7150  393.0400 C.2   332  HIS332      0.2264
    177  O        162.5620    7.8810  393.4070 O.2   332  HIS332     -0.2867
    178  CB       165.0780    6.8830  393.1800 C.3   332  HIS332      0.0745
    179  CG       166.4230    6.3380  392.8190 C.ar  332  HIS332      0.0817
    180  ND1      167.1420    6.7940  391.7330 N.ar  332  HIS332     -0.2268
    181  CD2      167.1780    5.3720  393.3940 C.ar  332  HIS332      0.1154
    182  CE1      168.2830    6.1320  391.6570 C.ar  332  HIS332      0.1986
    183  NE2      168.3280    5.2610  392.6500 N.ar  332  HIS332     -0.2212
    184  N        160.8770    7.4960  395.5180 N.3   334  TRP334     -0.1241
    185  CA       160.9070    7.6450  396.9650 C.3   334  TRP334      0.1605
    186  C        159.6750    8.3520  397.5260 C.2   334  TRP334      0.2264
    187  O        159.0710    9.1960  396.8650 O.2   334  TRP334     -0.2867
    188  CB       162.1660    8.4130  397.3650 C.3   334  TRP334      0.0550
    189  CG       163.4160    7.6190  397.1540 C.ar  334  TRP334      0.0003
    190  CD1      163.5140    6.3480  396.6770 C.ar  334  TRP334      0.0946
    191  CD2      164.7430    8.0460  397.4460 C.ar  334  TRP334      0.0152
    192  NE1      164.8380    5.9480  396.6560 N.ar  334  TRP334     -0.2442
    193  CE2      165.6090    6.9790  397.1260 C.ar  334  TRP334      0.0810
    194  CE3      165.2840    9.2290  397.9560 C.ar  334  TRP334      0.0012
    195  CZ2      166.9910    7.0590  397.3030 C.ar  334  TRP334      0.0191
    196  CZ3      166.6600    9.3090  398.1290 C.ar  334  TRP334      0.0001
    197  CH2      167.4960    8.2330  397.7920 C.ar  334  TRP334      0.0015
    198  N        166.8340    2.0160  402.5890 N.3   363  PRO363     -0.2116
    199  CA       166.5310    2.4600  403.9520 C.3   363  PRO363      0.1372
    200  C        165.0880    2.8780  404.1180 C.2   363  PRO363      0.2244
    201  O        164.5300    3.5140  403.2260 O.2   363  PRO363     -0.2868
    202  CB       167.4690    3.6590  404.1490 C.3   363  PRO363      0.0268
    203  CG       168.6370    3.3430  403.2740 C.3   363  PRO363      0.0207
    204  CD       168.0370    2.6750  402.0470 C.3   363  PRO363      0.0892
    205  N        163.6870    5.1350  406.6650 N.3   365  LEU365     -0.1245
    206  CA       164.0180    5.9840  407.8110 C.3   365  LEU365      0.1561
    207  C        162.7840    6.3130  408.6170 C.2   365  LEU365      0.2260
    208  O        161.7070    6.5380  408.0550 O.2   365  LEU365     -0.2867
    209  CB       164.6610    7.2860  407.3590 C.3   365  LEU365      0.0270
    210  CG       165.8430    7.1090  406.4080 C.3   365  LEU365      0.0019
    211  CD1      166.4410    8.4630  406.0560 C.3   365  LEU365      0.0001
    212  CD2      166.8790    6.2300  407.0470 C.3   365  LEU365      0.0001
    213  N        163.0460    4.8250  400.9890 N.3   396  LEU396     -0.1245
    214  CA       164.0350    4.9880  399.9370 C.3   396  LEU396      0.1561
    215  C        164.0940    3.7440  399.0560 C.2   396  LEU396      0.2260
    216  O        165.0470    2.9710  399.1070 O.2   396  LEU396     -0.2867
    217  CB       165.4000    5.3030  400.5480 C.3   396  LEU396      0.0270
    218  CG       165.3810    6.4410  401.5830 C.3   396  LEU396      0.0019
    219  CD1      166.7950    6.8630  401.9780 C.3   396  LEU396      0.0001
    220  CD2      164.5760    7.6390  401.0950 C.3   396  LEU396      0.0001
    221  N        164.6140    1.0090  396.3210 N.3   398  SER398     -0.1217
    222  CA       165.6760    0.6730  395.3870 C.3   398  SER398      0.1889
    223  C        165.3380   -0.6600  394.7490 C.2   398  SER398      0.2288
    224  O        165.1020   -1.6500  395.4450 O.2   398  SER398     -0.2866
    225  CB       167.0360    0.6150  396.0870 C.3   398  SER398      0.2089
    226  OG       168.0230    0.0600  395.2340 O.3   398  SER398     -0.2183
@<TRIPOS>BOND
     1   162   163    2
     2   162   161    1
     3     1     2    1
     4   160   161    1
     5   161   164    1
     6     2     3    1
     7     2     5    1
     8   166   165   ar
     9   166   168   ar
    10     3     4    2
    11   164   165    1
    12   165   167   ar
    13   174   175    1
    14   158   157    2
    15   168   169   ar
    16   182   180   ar
    17   182   183   ar
    18     5     6    1
    19   180   179   ar
    20   157   156    1
    21     7     6   ar
    22     7     9   ar
    23   167   169   ar
    24   167   170   ar
    25   169   171   ar
    26   175   176    1
    27   175   178    1
    28     6     8   ar
    29   183   181   ar
    30   179   178    1
    31   179   181   ar
    32   176   177    2
    33     9    11   ar
    34   156   159    1
    35   156   155    1
    36     8    10   ar
    37   170   172   ar
    38   171   173   ar
    39    11    10   ar
    40   223   222    1
    41   223   224    2
    42   172   173   ar
    43    31    30    1
    44   226   225    1
    45   222   225    1
    46   222   221    1
    47   184   185    1
    48    30    29   ar
    49    30    28   ar
    50   192   190   ar
    51   192   193   ar
    52   190   189   ar
    53    29    27   ar
    54   187   186    2
    55   151   150    2
    56   185   188    1
    57   185   186    1
    58   193   195   ar
    59   193   191   ar
    60   189   188    1
    61   189   191   ar
    62   195   197   ar
    63    28    26   ar
    64   191   194   ar
    65   150   149    1
    66   197   196   ar
    67   194   196   ar
    68    27    25   ar
    69   140   139    2
    70    26    25   ar
    71    25    24    1
    72   215   216    2
    73   215   214    1
    74   149   148    1
    75   149   152    1
    76   139   148   am
    77   139   138    1
    78   153   152    1
    79   214   217    1
    80   214   213    1
    81   138   137    1
    82   138   141    1
    83   152   154    1
    84   133   132    2
    85    24    21    1
    86   217   218    1
    87   132   131    1
    88    22    23    2
    89    22    21    1
    90   220   218    1
    91   135   134    1
    92   141   142    1
    93    21    20    1
    94   218   219    1
    95   204   198    1
    96   204   203    1
    97   134   131    1
    98   134   136    1
    99   142   143    1
   100   131   130    1
   101   198   199    1
   102    20    14   am
   103   201   200    2
   104   203   202    1
   105   130   121   am
   106   122   121    2
   107   143   144    1
   108    14    15    2
   109    14    13    1
   110   199   200    1
   111   199   202    1
   112   121   120    1
   113   144   145    2
   114    16    13    1
   115    16    17    1
   116    12    13    1
   117   119   120    1
   118    93    90    1
   119    93    94    1
   120   120   123    1
   121   145   147    1
   122   145   146    1
   123    90    89    1
   124    90    91    1
   125    19    17   ar
   126   211   210    1
   127    17    18   ar
   128   210   212    1
   129   210   209    1
   130   123   124    1
   131   205   206    1
   132   124   125    1
   133    91    92    2
   134   209   206    1
   135   206   207    1
   136   128   127    1
   137   129   127    1
   138   127   126    2
   139   208   207    2
   140   125   126    1
   141    56    54    1
   142    45    44   ar
   143    45    43   ar
   144    98    97    2
   145    85    87   ar
   146    85    83   ar
   147    55    54    1
   148    82    83    1
   149    82    79    1
   150   105   104    2
   151    87    88   ar
   152    76    75   ar
   153    44    42   ar
   154    83    84   ar
   155    54    53    2
   156    77    75   ar
   157    43    41   ar
   158   101    95    1
   159   101   100    1
   160   104   103    1
   161    88    86   ar
   162    75    74    1
   163    84    86   ar
   164    95    96    1
   165    97    96    1
   166    97   102   am
   167    79    80    1
   168    79    78    1
   169    68    67    1
   170   100    99    1
   171   103   102    1
   172   103   106    1
   173    80    81    2
   174   118   116   ar
   175    99    96    1
   176    42    39   ar
   177    53    52    1
   178   117   116   ar
   179    41    39   ar
   180    41    40   ar
   181   109   107    1
   182   116   115    1
   183    66    67   ar
   184    66    64   ar
   185    74    73    1
   186    39    37   ar
   187    67    65   ar
   188   106   107    1
   189    52    51    1
   190    40    38   ar
   191    73    70    1
   192   107   108    1
   193    64    62   ar
   194    65    63   ar
   195   115   114    1
   196    37    38   ar
   197    37    36    1
   198    51    50    1
   199    70    71    1
   200    70    69    1
   201   114   111    1
   202    71    72    2
   203    62    63   ar
   204    62    61    1
   205    36    33    1
   206    50    47    1
   207    61    58    1
   208   111   110    1
   209   111   112    1
   210    33    34    1
   211    33    32    1
   212   113   112    2
   213    47    46    1
   214    47    48    1
   215    34    35    2
   216    58    59    1
   217    58    57    1
   218    59    60    2
   219    48    49    2
