@<TRIPOS>MOLECULE
tmp/6c80B01.pdb
 71 63 0 0 0
SMALL
GASTEIGER

@<TRIPOS>ATOM
      1  N        212.9180  -36.2590  378.4180 N.3     2  LEU2       -0.1245
      2  CA       212.3840  -34.9020  378.3510 C.3     2  LEU2        0.1561
      3  C        211.7860  -34.5880  376.9640 C.2     2  LEU2        0.2260
      4  O        212.4890  -34.5940  375.9470 O.2     2  LEU2       -0.2867
      5  CB       213.4840  -33.9010  378.7250 C.3     2  LEU2        0.0270
      6  CG       213.1110  -32.4240  378.8190 C.3     2  LEU2        0.0019
      7  CD1      211.9160  -32.2290  379.7430 C.3     2  LEU2        0.0001
      8  CD2      214.3060  -31.5990  379.2960 C.3     2  LEU2        0.0001
      9  N        209.3840  -31.8140  375.0010 N.3     4  LEU4       -0.1245
     10  CA       208.8950  -30.4390  375.1010 C.3     4  LEU4        0.1561
     11  C        208.3050  -29.9230  373.7930 C.2     4  LEU4        0.2260
     12  O        208.7430  -30.3020  372.7110 O.2     4  LEU4       -0.2867
     13  CB       210.0340  -29.5090  375.5330 C.3     4  LEU4        0.0270
     14  CG       210.6150  -29.8220  376.9030 C.3     4  LEU4        0.0019
     15  CD1      211.9540  -29.1170  377.0950 C.3     4  LEU4        0.0001
     16  CD2      209.6140  -29.3890  377.9740 C.3     4  LEU4        0.0001
     17  N        218.8250  -19.6990  377.8900 N.3    28  LEU28      -0.1231
     18  CA       218.6840  -20.4290  376.6290 C.3    28  LEU28       0.1693
     19  C        217.2080  -20.7370  376.3800 C.2    28  LEU28       0.2591
     20  O        216.7400  -20.7300  375.2390 O.2    28  LEU28      -0.2718
     21  CB       219.4880  -21.7270  376.6470 C.3    28  LEU28       0.0284
     22  CG       220.9880  -21.6180  376.9120 C.3    28  LEU28       0.0019
     23  CD1      221.6190  -22.9990  376.8290 C.3    28  LEU28       0.0001
     24  CD2      221.6580  -20.6620  375.9300 C.3    28  LEU28       0.0001
     25  N        216.4830  -20.9990  377.4680 N.am   29  ALA29      -0.1980
     26  CA       215.0890  -21.4070  377.3680 C.3    29  ALA29       0.1597
     27  C        214.3450  -21.1500  378.6530 C.2    29  ALA29       0.2287
     28  O        214.9190  -21.2080  379.7430 O.2    29  ALA29      -0.2864
     29  CB       214.9840  -22.8810  377.0210 C.3    29  ALA29       0.0319
     30  N        211.0880  -22.8140  380.5370 N.3    31  ILE31      -0.1245
     31  CA       210.2530  -24.0090  380.5220 C.3    31  ILE31       0.1561
     32  C        209.0690  -23.8430  381.4850 C.2    31  ILE31       0.2260
     33  O        209.2290  -23.3140  382.5880 O.2    31  ILE31      -0.2867
     34  CB       211.0810  -25.2640  380.8800 C.3    31  ILE31       0.0252
     35  CG1      212.1750  -25.4730  379.8160 C.3    31  ILE31       0.0019
     36  CG2      210.1830  -26.4870  380.9550 C.3    31  ILE31       0.0019
     37  CD1      213.1060  -26.6570  380.0690 C.3    31  ILE31       0.0001
     38  N        213.9080  -32.1480  383.6330 N.3    42  VAL42      -0.1245
     39  CA       214.7940  -31.0550  383.2480 C.3    42  VAL42       0.1561
     40  C        216.1210  -31.1670  384.0010 C.2    42  VAL42       0.2260
     41  O        217.1920  -31.0610  383.4110 O.2    42  VAL42      -0.2867
     42  CB       214.1550  -29.6690  383.5080 C.3    42  VAL42       0.0252
     43  CG1      215.2010  -28.5580  383.3830 C.3    42  VAL42       0.0019
     44  CG2      212.9920  -29.4320  382.5440 C.3    42  VAL42       0.0019
     45  N        218.3700  -33.9970  382.8420 N.3    45  SER45      -0.1202
     46  CA       219.0220  -33.6730  381.5780 C.3    45  SER45       0.2020
     47  C        220.1370  -32.6660  381.7920 C.2    45  SER45       0.2618
     48  O        221.2060  -32.7880  381.1950 O.2    45  SER45      -0.2717
     49  CB       218.0150  -33.1430  380.5580 C.3    45  SER45       0.2103
     50  OG       217.1930  -34.1980  380.0910 O.3    45  SER45      -0.2182
     51  N        219.8970  -31.6740  382.6480 N.am   46  ALA46      -0.1979
     52  CA       220.9190  -30.6630  382.9080 C.3    46  ALA46       0.1597
     53  C        222.1730  -31.3180  383.4870 C.2    46  ALA46       0.2287
     54  O        223.2970  -30.9320  383.1620 O.2    46  ALA46      -0.2864
     55  CB       220.3890  -29.5790  383.8510 C.3    46  ALA46       0.0319
     56  N        225.1390  -27.0550  381.6420 N.3    52  LEU52      -0.1245
     57  CA       223.8530  -26.3560  381.7580 C.3    52  LEU52       0.1561
     58  C        223.4640  -26.1170  383.2060 C.2    52  LEU52       0.2260
     59  O        223.6830  -26.9720  384.0730 O.2    52  LEU52      -0.2867
     60  CB       222.7350  -27.1370  381.0610 C.3    52  LEU52       0.0270
     61  CG       222.8170  -27.2070  379.5400 C.3    52  LEU52       0.0019
     62  CD1      221.6570  -28.0250  378.9960 C.3    52  LEU52       0.0001
     63  CD2      222.8180  -25.8020  378.9390 C.3    52  LEU52       0.0001
     64  N        218.7920  -22.5890  381.8480 N.3    73  ILE73      -0.1245
     65  CA       217.3630  -22.8900  381.7710 C.3    73  ILE73       0.1561
     66  C        216.5960  -22.2450  382.9230 C.2    73  ILE73       0.2260
     67  O        217.0150  -22.3510  384.0690 O.2    73  ILE73      -0.2867
     68  CB       217.1190  -24.4150  381.8060 C.3    73  ILE73       0.0252
     69  CG1      217.9520  -25.1190  380.7220 C.3    73  ILE73       0.0019
     70  CG2      215.6250  -24.7420  381.6860 C.3    73  ILE73       0.0019
     71  CD1      217.7290  -24.5700  379.3350 C.3    73  ILE73       0.0001
@<TRIPOS>BOND
     1    12    11    2
     2    11    10    1
     3     9    10    1
     4    10    13    1
     5    20    19    2
     6    13    14    1
     7    24    22    1
     8     4     3    2
     9    19    18    1
    10    19    25   am
    11    18    21    1
    12    18    17    1
    13    21    22    1
    14    23    22    1
    15    14    15    1
    16    14    16    1
    17     3     2    1
    18    29    26    1
    19    26    25    1
    20    26    27    1
    21     2     1    1
    22     2     5    1
    23    27    28    2
    24     5     6    1
    25     6     8    1
    26     6     7    1
    27    63    61    1
    28    62    61    1
    29    71    69    1
    30    61    60    1
    31    35    37    1
    32    35    34    1
    33    50    49    1
    34    31    30    1
    35    31    34    1
    36    31    32    1
    37    49    46    1
    38    69    68    1
    39    34    36    1
    40    60    57    1
    41    48    47    2
    42    32    33    2
    43    46    47    1
    44    46    45    1
    45    56    57    1
    46    70    68    1
    47    57    58    1
    48    65    68    1
    49    65    64    1
    50    65    66    1
    51    47    51   am
    52    44    42    1
    53    51    52    1
    54    52    53    1
    55    52    55    1
    56    66    67    2
    57    54    53    2
    58    58    59    2
    59    39    42    1
    60    39    38    1
    61    39    40    1
    62    43    42    1
    63    41    40    2
