@<TRIPOS>MOLECULE
tmp/6c8qH00.pdb
 75 71 0 0 0
SMALL
GASTEIGER

@<TRIPOS>ATOM
      1  N         54.2530  -53.9880   55.8680 N.3    33  TYR33      -0.1241
      2  CA        52.8750  -54.3570   55.5640 C.3    33  TYR33       0.1605
      3  C         52.3320  -55.3510   56.5810 C.2    33  TYR33       0.2264
      4  O         51.1600  -55.2750   56.9680 O.2    33  TYR33      -0.2867
      5  CB        52.7740  -54.9310   54.1530 C.3    33  TYR33       0.0534
      6  CG        51.4020  -54.7500   53.5550 C.ar   33  TYR33      -0.0201
      7  CD1       51.0760  -53.5910   52.8650 C.ar   33  TYR33      -0.0009
      8  CD2       50.4220  -55.7230   53.7040 C.ar   33  TYR33      -0.0009
      9  CE1       49.8220  -53.4110   52.3270 C.ar   33  TYR33       0.0417
     10  CE2       49.1600  -55.5510   53.1680 C.ar   33  TYR33       0.0417
     11  CZ        48.8680  -54.3910   52.4800 C.ar   33  TYR33       0.1957
     12  OH        47.6210  -54.1970   51.9390 O.3    33  TYR33      -0.2866
     13  N         49.0300  -54.9070   59.4320 N.3    37  HIS37      -0.1241
     14  CA        47.9100  -55.8370   59.2940 C.3    37  HIS37       0.1621
     15  C         48.1270  -57.0290   60.2160 C.2    37  HIS37       0.2264
     16  O         48.8250  -57.9890   59.8430 O.2    37  HIS37      -0.2867
     17  CB        47.7480  -56.2830   57.8470 C.3    37  HIS37       0.0745
     18  CG        47.4050  -55.1650   56.9110 C.ar   37  HIS37       0.0817
     19  ND1       48.3620  -54.3760   56.3110 N.ar   37  HIS37      -0.2268
     20  CD2       46.2090  -54.6960   56.4850 C.ar   37  HIS37       0.1154
     21  CE1       47.7710  -53.4730   55.5490 C.ar   37  HIS37       0.1986
     22  NE2       46.4640  -53.6460   55.6360 N.ar   37  HIS37      -0.2212
     23  N         47.0620  -60.7790   59.1490 N.3    40  LEU40      -0.1245
     24  CA        47.9010  -61.4840   58.1900 C.3    40  LEU40       0.1561
     25  C         49.0970  -62.0960   58.9070 C.2    40  LEU40       0.2260
     26  O         49.7550  -61.4290   59.7120 O.2    40  LEU40      -0.2867
     27  CB        48.3710  -60.5410   57.0820 C.3    40  LEU40       0.0270
     28  CG        47.3000  -60.1310   56.0710 C.3    40  LEU40       0.0019
     29  CD1       47.8380  -59.0970   55.0940 C.3    40  LEU40       0.0001
     30  CD2       46.7740  -61.3510   55.3330 C.3    40  LEU40       0.0001
     31  N         45.7810  -68.4210   46.2550 N.3   147  TYR147     -0.1241
     32  CA        44.8330  -67.6730   47.0730 C.3   147  TYR147      0.1605
     33  C         44.0120  -68.5900   47.9690 C.2   147  TYR147      0.2264
     34  O         43.5800  -68.1720   49.0490 O.2   147  TYR147     -0.2867
     35  CB        43.9190  -66.8320   46.1830 C.3   147  TYR147      0.0534
     36  CG        44.4410  -65.4320   45.9710 C.ar  147  TYR147     -0.0201
     37  CD1       44.1680  -64.4250   46.8860 C.ar  147  TYR147     -0.0009
     38  CD2       45.2260  -65.1230   44.8690 C.ar  147  TYR147     -0.0009
     39  CE1       44.6520  -63.1450   46.7020 C.ar  147  TYR147      0.0417
     40  CE2       45.7140  -63.8460   44.6770 C.ar  147  TYR147      0.0417
     41  CZ        45.4240  -62.8610   45.5970 C.ar  147  TYR147      0.1957
     42  OH        45.9070  -61.5880   45.4150 O.3   147  TYR147     -0.2866
     43  N         46.2910  -69.2540   50.9170 N.3   150  ALA150     -0.1231
     44  CA        46.3400  -68.0560   51.7480 C.3   150  ALA150      0.1694
     45  C         45.0620  -67.8840   52.5580 C.2   150  ALA150      0.2592
     46  O         45.1050  -67.3800   53.6860 O.2   150  ALA150     -0.2718
     47  CB        46.5900  -66.8220   50.8810 C.3   150  ALA150      0.0304
     48  N         43.9200  -68.3050   52.0080 N.am  151  GLY151     -0.1957
     49  CA        42.6530  -68.1510   52.6990 C.3   151  GLY151      0.1869
     50  C         42.4800  -69.0620   53.8960 C.2   151  GLY151      0.2309
     51  O         41.5780  -68.8310   54.7080 O.2   151  GLY151     -0.2863
     52  N         47.0380  -65.2300   55.0540 N.3   155  GLY155     -0.1210
     53  CA        48.2390  -64.7400   54.4180 C.3   155  GLY155      0.1956
     54  C         47.9350  -63.9520   53.1600 C.2   155  GLY155      0.2612
     55  O         46.8060  -63.9340   52.6650 O.2   155  GLY155     -0.2717
     56  N         48.9750  -63.2950   52.6560 N.am  156  ALA156     -0.1965
     57  CA        48.9140  -62.5320   51.4210 C.3   156  ALA156      0.1728
     58  C         49.7280  -63.2340   50.3420 C.2   156  ALA156      0.2616
     59  O         50.6900  -63.9500   50.6340 O.2   156  ALA156     -0.2715
     60  CB        49.4330  -61.1050   51.6260 C.3   156  ALA156      0.0334
     61  N         49.3350  -63.0220   49.0920 N.am  157  VAL157     -0.1977
     62  CA        49.9700  -63.6840   47.9580 C.3   157  VAL157      0.1596
     63  C         51.0830  -62.7900   47.4260 C.2   157  VAL157      0.2287
     64  O         50.8370  -61.6530   47.0110 O.2   157  VAL157     -0.2864
     65  CB        48.9480  -64.0060   46.8580 C.3   157  VAL157      0.0276
     66  CG1       49.6450  -64.6310   45.6570 C.3   157  VAL157      0.0022
     67  CG2       47.8660  -64.9310   47.3980 C.3   157  VAL157      0.0022
     68  N         48.8640  -59.8990   45.8480 N.3   180  ASP180     -0.1239
     69  CA        48.5930  -58.9410   46.9130 C.3   180  ASP180      0.1674
     70  C         49.6910  -57.8940   47.0590 C.2   180  ASP180      0.2266
     71  O         49.3980  -56.6960   47.1060 O.2   180  ASP180     -0.2867
     72  CB        48.3890  -59.6770   48.2440 C.3   180  ASP180      0.1410
     73  CG        47.1080  -60.4900   48.2680 C.2   180  ASP180      0.3668
     74  OD1       46.0940  -60.0120   47.7170 O.co2 180  ASP180     -0.2456
     75  OD2       47.1120  -61.6000   48.8390 O.co2 180  ASP180     -0.2456
@<TRIPOS>BOND
     1    40    38   ar
     2    40    41   ar
     3    38    36   ar
     4    42    41    1
     5    41    39   ar
     6    66    65    1
     7    68    69    1
     8    36    35    1
     9    36    37   ar
    10    35    32    1
    11    31    32    1
    12    39    37   ar
    13    65    67    1
    14    65    62    1
    15    69    70    1
    16    69    72    1
    17    64    63    2
    18    70    71    2
    19    32    33    1
    20    63    62    1
    21    74    73   ar
    22    62    61    1
    23    33    34    2
    24    72    73    1
    25    73    75   ar
    26    61    58   am
    27    58    59    2
    28    58    57    1
    29    47    44    1
    30    43    44    1
    31    57    60    1
    32    57    56    1
    33    44    45    1
    34    12    11    1
    35    48    45   am
    36    48    49    1
    37     9    11   ar
    38     9     7   ar
    39    11    10   ar
    40    45    46    2
    41    56    54   am
    42    55    54    2
    43    49    50    1
    44     7     6   ar
    45    54    53    1
    46    10     8   ar
    47     6     8   ar
    48     6     5    1
    49    50    51    2
    50     5     2    1
    51    53    52    1
    52    29    28    1
    53    30    28    1
    54    21    22   ar
    55    21    19   ar
    56     2     1    1
    57     2     3    1
    58    22    20   ar
    59    28    27    1
    60    19    18   ar
    61    20    18   ar
    62     3     4    2
    63    18    17    1
    64    27    24    1
    65    17    14    1
    66    24    25    1
    67    24    23    1
    68    25    26    2
    69    14    13    1
    70    14    15    1
    71    16    15    2
