@<TRIPOS>MOLECULE
tmp/6c8qA01.pdb
 86 83 0 0 0
SMALL
GASTEIGER

@<TRIPOS>ATOM
      1  N         30.9600   -0.4120   -1.3530 N.3    33  TYR33      -0.1241
      2  CA        30.6990   -1.7340   -1.9110 C.3    33  TYR33       0.1605
      3  C         30.4290   -1.6640   -3.4090 C.2    33  TYR33       0.2264
      4  O         30.8910   -2.5280   -4.1640 O.2    33  TYR33      -0.2867
      5  CB        29.5310   -2.4020   -1.1870 C.3    33  TYR33       0.0534
      6  CG        29.5630   -3.9070   -1.3120 C.ar   33  TYR33      -0.0201
      7  CD1       30.4780   -4.6610   -0.5900 C.ar   33  TYR33      -0.0009
      8  CD2       28.7000   -4.5720   -2.1730 C.ar   33  TYR33      -0.0009
      9  CE1       30.5230   -6.0340   -0.7080 C.ar   33  TYR33       0.0417
     10  CE2       28.7380   -5.9480   -2.2990 C.ar   33  TYR33       0.0417
     11  CZ        29.6520   -6.6730   -1.5620 C.ar   33  TYR33       0.1957
     12  OH        29.7030   -8.0420   -1.6750 O.3    33  TYR33      -0.2866
     13  N         32.6220   -3.3730   -6.6720 N.3    37  HIS37      -0.1241
     14  CA        31.8910   -4.3460   -7.4820 C.3    37  HIS37       0.1621
     15  C         31.1640   -3.5880   -8.5840 C.2    37  HIS37       0.2264
     16  O         29.9680   -3.2860   -8.4660 O.2    37  HIS37      -0.2867
     17  CB        30.9280   -5.1650   -6.6220 C.3    37  HIS37       0.0745
     18  CG        31.5900   -5.8470   -5.4640 C.ar   37  HIS37       0.0817
     19  ND1       31.9320   -5.1820   -4.3060 N.ar   37  HIS37      -0.2268
     20  CD2       31.9830   -7.1310   -5.2900 C.ar   37  HIS37       0.1154
     21  CE1       32.5030   -6.0280   -3.4670 C.ar   37  HIS37       0.1986
     22  NE2       32.5450   -7.2180   -4.0400 N.ar   37  HIS37      -0.2212
     23  N         29.9270   -4.4480  -11.2880 N.3    39  PHE39      -0.1227
     24  CA        28.7940   -5.1500  -11.8790 C.3    39  PHE39       0.1736
     25  C         27.4870   -4.8760  -11.1470 C.2    39  PHE39       0.2595
     26  O         26.4240   -5.2520  -11.6530 O.2    39  PHE39      -0.2718
     27  CB        29.0640   -6.6570  -11.9140 C.3    39  PHE39       0.0547
     28  CG        29.6480   -7.2050  -10.6390 C.ar   39  PHE39      -0.0202
     29  CD1       31.0180   -7.1940  -10.4230 C.ar   39  PHE39      -0.0042
     30  CD2       28.8270   -7.7420   -9.6610 C.ar   39  PHE39      -0.0042
     31  CE1       31.5560   -7.7000   -9.2540 C.ar   39  PHE39      -0.0003
     32  CE2       29.3590   -8.2510   -8.4900 C.ar   39  PHE39      -0.0003
     33  CZ        30.7250   -8.2300   -8.2870 C.ar   39  PHE39      -0.0000
     34  N         27.5400   -4.2440   -9.9770 N.am   40  LEU40      -0.1980
     35  CA        26.3440   -3.8980   -9.2200 C.3    40  LEU40       0.1596
     36  C         25.9500   -2.4650   -9.5530 C.2    40  LEU40       0.2287
     37  O         26.7420   -1.5360   -9.3550 O.2    40  LEU40      -0.2864
     38  CB        26.5840   -4.0570   -7.7200 C.3    40  LEU40       0.0297
     39  CG        26.8450   -5.4810   -7.2280 C.3    40  LEU40       0.0022
     40  CD1       27.0690   -5.4950   -5.7260 C.3    40  LEU40       0.0001
     41  CD2       25.6950   -6.4000   -7.6100 C.3    40  LEU40       0.0001
     42  N         14.8250  -10.5490   -4.9370 N.3   147  TYR147     -0.1241
     43  CA        15.9570  -11.1440   -5.6380 C.3   147  TYR147      0.1605
     44  C         15.6620  -11.3460   -7.1170 C.2   147  TYR147      0.2264
     45  O         16.5880  -11.3500   -7.9360 O.2   147  TYR147     -0.2867
     46  CB        16.3450  -12.4640   -4.9780 C.3   147  TYR147      0.0534
     47  CG        17.3730  -12.2810   -3.8920 C.ar  147  TYR147     -0.0201
     48  CD1       16.9920  -11.9790   -2.5920 C.ar  147  TYR147     -0.0009
     49  CD2       18.7260  -12.3860   -4.1720 C.ar  147  TYR147     -0.0009
     50  CE1       17.9320  -11.8010   -1.5990 C.ar  147  TYR147      0.0417
     51  CE2       19.6710  -12.2100   -3.1880 C.ar  147  TYR147      0.0417
     52  CZ        19.2710  -11.9190   -1.9050 C.ar  147  TYR147      0.1957
     53  OH        20.2210  -11.7430   -0.9310 O.3   147  TYR147     -0.2866
     54  N         16.3860   -7.8050   -8.4740 N.3   150  ALA150     -0.1231
     55  CA        17.8270   -7.5760   -8.5170 C.3   150  ALA150      0.1694
     56  C         18.4840   -8.4210   -9.6000 C.2   150  ALA150      0.2592
     57  O         19.4100   -7.9620  -10.2810 O.2   150  ALA150     -0.2718
     58  CB        18.4480   -7.8730   -7.1520 C.3   150  ALA150      0.0304
     59  N         18.0120   -9.6550   -9.7820 N.am  151  GLY151     -0.1957
     60  CA        18.5370  -10.5210  -10.8240 C.3   151  GLY151      0.1869
     61  C         18.2940  -10.0210  -12.2320 C.2   151  GLY151      0.2309
     62  O         18.8490  -10.5910  -13.1780 O.2   151  GLY151     -0.2863
     63  N         21.4550   -5.8260   -9.4800 N.3   155  GLY155     -0.1210
     64  CA        21.2890   -5.1870   -8.1970 C.3   155  GLY155      0.1956
     65  C         21.7460   -6.0410   -7.0240 C.2   155  GLY155      0.2612
     66  O         22.0510   -7.2260   -7.1460 O.2   155  GLY155     -0.2717
     67  N         21.7950   -5.3900   -5.8660 N.am  156  ALA156     -0.1965
     68  CA        22.0510   -6.0390   -4.5910 C.3   156  ALA156      0.1728
     69  C         20.8650   -5.7910   -3.6710 C.2   156  ALA156      0.2616
     70  O         20.2700   -4.7080   -3.6860 O.2   156  ALA156     -0.2715
     71  CB        23.3420   -5.5220   -3.9490 C.3   156  ALA156      0.0334
     72  N         20.5200   -6.7950   -2.8740 N.am  157  VAL157     -0.1977
     73  CA        19.3250   -6.7460   -2.0400 C.3   157  VAL157      0.1596
     74  C         19.6910   -6.1640   -0.6800 C.2   157  VAL157      0.2287
     75  O         20.5040   -6.7370    0.0550 O.2   157  VAL157     -0.2864
     76  CB        18.6930   -8.1370   -1.8980 C.3   157  VAL157      0.0276
     77  CG1       17.5040   -8.0850   -0.9490 C.3   157  VAL157      0.0022
     78  CG2       18.2760   -8.6590   -3.2640 C.3   157  VAL157      0.0022
     79  N         21.6660   -9.1700    0.7140 N.3   180  ASP180     -0.1239
     80  CA        23.0330   -9.0470    0.2230 C.3   180  ASP180      0.1674
     81  C         23.9160   -8.1800    1.1100 C.2   180  ASP180      0.2266
     82  O         25.0710   -8.5360    1.3550 O.2   180  ASP180     -0.2867
     83  CB        23.0360   -8.4790   -1.2000 C.3   180  ASP180      0.1410
     84  CG        22.5350   -9.4760   -2.2250 C.2   180  ASP180      0.3668
     85  OD1       22.7740  -10.6880   -2.0420 O.co2 180  ASP180     -0.2456
     86  OD2       21.9070   -9.0480   -3.2160 O.co2 180  ASP180     -0.2456
@<TRIPOS>BOND
     1    62    61    2
     2    61    60    1
     3    27    24    1
     4    27    28    1
     5    24    23    1
     6    24    25    1
     7    26    25    2
     8    25    34   am
     9    60    59    1
    10    28    29   ar
    11    28    30   ar
    12    29    31   ar
    13    57    56    2
    14    34    35    1
    15    59    56   am
    16    30    32   ar
    17    56    55    1
    18    36    37    2
    19    36    35    1
    20    63    64    1
    21    31    33   ar
    22    35    38    1
    23    15    16    2
    24    15    14    1
    25    55    54    1
    26    55    58    1
    27    32    33   ar
    28    64    65    1
    29    45    44    2
    30    38    39    1
    31    41    39    1
    32    14    13    1
    33    14    17    1
    34    39    40    1
    35    66    65    2
    36    44    43    1
    37    65    67   am
    38    17    18    1
    39    67    68    1
    40    43    46    1
    41    43    42    1
    42    18    20   ar
    43    18    19   ar
    44    20    22   ar
    45    46    47    1
    46    68    71    1
    47    68    69    1
    48    19    21   ar
    49    49    47   ar
    50    49    51   ar
    51     4     3    2
    52    22    21   ar
    53    47    48   ar
    54    70    69    2
    55    69    72   am
    56     3     2    1
    57    78    76    1
    58    86    84   ar
    59    51    52   ar
    60    72    73    1
    61    48    50   ar
    62    10     8   ar
    63    10    11   ar
    64    84    85   ar
    65    84    83    1
    66     8     6   ar
    67    73    76    1
    68    73    74    1
    69     2     1    1
    70     2     5    1
    71    52    50   ar
    72    52    53    1
    73    76    77    1
    74    12    11    1
    75    11     9   ar
    76     6     5    1
    77     6     7   ar
    78    83    80    1
    79     9     7   ar
    80    74    75    2
    81    80    79    1
    82    80    81    1
    83    81    82    2
