@<TRIPOS>MOLECULE
tmp/6c8qD00.pdb
 114 110 0 0 0
SMALL
GASTEIGER

@<TRIPOS>ATOM
      1  N         -8.9880  -19.8950   78.6290 N.3   132  PHE132     -0.1241
      2  CA       -10.2840  -19.3810   78.2010 C.3   132  PHE132      0.1605
      3  C        -11.4030  -19.8910   79.1000 C.2   132  PHE132      0.2264
      4  O        -12.3060  -19.1310   79.4700 O.2   132  PHE132     -0.2867
      5  CB       -10.5520  -19.7630   76.7460 C.3   132  PHE132      0.0534
      6  CG       -11.9530  -19.4710   76.2950 C.ar  132  PHE132     -0.0203
      7  CD1      -12.3510  -18.1720   76.0300 C.ar  132  PHE132     -0.0042
      8  CD2      -12.8750  -20.4940   76.1410 C.ar  132  PHE132     -0.0042
      9  CE1      -13.6400  -17.8960   75.6170 C.ar  132  PHE132     -0.0003
     10  CE2      -14.1660  -20.2250   75.7290 C.ar  132  PHE132     -0.0003
     11  CZ       -14.5490  -18.9240   75.4660 C.ar  132  PHE132     -0.0000
     12  N        -14.1380  -17.8270   81.9490 N.3   136  ASN136     -0.1240
     13  CA       -15.5500  -17.9850   82.2780 C.3   136  ASN136      0.1653
     14  C        -15.7410  -18.3170   83.7510 C.2   136  ASN136      0.2266
     15  O        -16.7470  -17.9220   84.3510 O.2   136  ASN136     -0.2867
     16  CB       -16.1780  -19.0710   81.4040 C.3   136  ASN136      0.1155
     17  CG       -16.4250  -18.6070   79.9820 C.2   136  ASN136      0.2627
     18  OD1      -16.7580  -17.4460   79.7440 O.2   136  ASN136     -0.2716
     19  ND2      -16.2670  -19.5170   79.0280 N.am  136  ASN136     -0.0877
     20  N        -18.0280  -16.2800   86.7010 N.3   140  ARG140     -0.1245
     21  CA       -18.9380  -17.0220   87.5660 C.3   140  ARG140      0.1563
     22  C        -18.5550  -16.8630   89.0320 C.2   140  ARG140      0.2260
     23  O        -19.4290  -16.7970   89.9040 O.2   140  ARG140     -0.2867
     24  CB       -18.9530  -18.4970   87.1660 C.3   140  ARG140      0.0307
     25  CG       -19.5510  -18.7570   85.7940 C.3   140  ARG140      0.0489
     26  CD       -19.8070  -20.2370   85.5690 C.3   140  ARG140      0.2205
     27  NE       -20.4150  -20.4880   84.2660 N.pl3 140  ARG140     -0.0865
     28  CZ       -19.7390  -20.8660   83.1860 C.cat 140  ARG140      0.5346
     29  NH1      -18.4260  -21.0420   83.2500 N.pl3 140  ARG140      0.1354
     30  NH2      -20.3760  -21.0700   82.0410 N.pl3 140  ARG140      0.1354
     31  N        -24.6460  -12.1180   72.6090 N.3   169  ALA169     -0.1231
     32  CA       -24.5930  -12.9630   73.8020 C.3   169  ALA169      0.1694
     33  C        -23.1880  -12.9660   74.3940 C.2   169  ALA169      0.2592
     34  O        -22.6770  -13.9940   74.8430 O.2   169  ALA169     -0.2718
     35  CB       -25.0660  -14.3860   73.4970 C.3   169  ALA169      0.0304
     36  N        -22.5560  -11.7920   74.3880 N.am  170  PHE170     -0.1962
     37  CA       -21.1500  -11.6540   74.7680 C.3   170  PHE170      0.1771
     38  C        -21.0370  -11.5070   76.2850 C.2   170  PHE170      0.2620
     39  O        -20.6280  -10.4770   76.8230 O.2   170  PHE170     -0.2715
     40  CB       -20.5220  -10.4750   74.0380 C.3   170  PHE170      0.0574
     41  CG       -19.0370  -10.5950   73.8510 C.ar  170  PHE170     -0.0200
     42  CD1      -18.5070  -11.5880   73.0450 C.ar  170  PHE170     -0.0042
     43  CD2      -18.1730   -9.7060   74.4690 C.ar  170  PHE170     -0.0042
     44  CE1      -17.1410  -11.6990   72.8670 C.ar  170  PHE170     -0.0003
     45  CE2      -16.8070   -9.8110   74.2930 C.ar  170  PHE170     -0.0003
     46  CZ       -16.2910  -10.8070   73.4890 C.ar  170  PHE170     -0.0000
     47  N        -21.4130  -12.5800   76.9760 N.am  171  PHE171     -0.1960
     48  CA       -21.3020  -12.6360   78.4260 C.3   171  PHE171      0.1771
     49  C        -21.2280  -14.0950   78.8490 C.2   171  PHE171      0.2620
     50  O        -21.5630  -15.0010   78.0820 O.2   171  PHE171     -0.2715
     51  CB       -22.4730  -11.9230   79.1150 C.3   171  PHE171      0.0574
     52  CG       -23.8180  -12.5200   78.8080 C.ar  171  PHE171     -0.0200
     53  CD1      -24.3390  -13.5350   79.5950 C.ar  171  PHE171     -0.0042
     54  CD2      -24.5670  -12.0590   77.7380 C.ar  171  PHE171     -0.0042
     55  CE1      -25.5760  -14.0850   79.3160 C.ar  171  PHE171     -0.0003
     56  CE2      -25.8070  -12.6050   77.4550 C.ar  171  PHE171     -0.0003
     57  CZ       -26.3110  -13.6190   78.2450 C.ar  171  PHE171     -0.0000
     58  N        -20.7850  -14.3070   80.0840 N.am  172  THR172     -0.1937
     59  CA       -20.6730  -15.6540   80.6250 C.3   172  THR172      0.2028
     60  C        -22.0110  -16.0930   81.2070 C.2   172  THR172      0.2642
     61  O        -22.6050  -15.3850   82.0260 O.2   172  THR172     -0.2714
     62  CB       -19.5800  -15.7140   81.6920 C.3   172  THR172      0.1808
     63  OG1      -18.3470  -15.2300   81.1430 O.3   172  THR172     -0.2208
     64  CG2      -19.3890  -17.1410   82.1800 C.3   172  THR172      0.0379
     65  N        -22.4830  -17.2600   80.7730 N.am  173  LYS173     -0.1977
     66  CA       -23.7530  -17.7920   81.2500 C.3   173  LYS173      0.1596
     67  C        -23.6830  -18.0500   82.7480 C.2   173  LYS173      0.2287
     68  O        -22.8010  -18.7740   83.2210 O.2   173  LYS173     -0.2864
     69  CB       -24.0970  -19.0780   80.5020 C.3   173  LYS173      0.0298
     70  CG       -25.5220  -19.5620   80.7050 C.3   173  LYS173      0.0038
     71  CD       -25.8570  -20.6800   79.7330 C.3   173  LYS173      0.0206
     72  CE       -27.3430  -20.9920   79.7360 C.3   173  LYS173      0.1093
     73  NZ       -27.6980  -21.9950   78.6950 N.3   173  LYS173     -0.1314
     74  N        -12.5100  -10.2790   69.0570 N.3   216  ALA216     -0.1245
     75  CA       -13.0670  -11.5980   69.3280 C.3   216  ALA216      0.1562
     76  C        -14.4380  -11.7900   68.6950 C.2   216  ALA216      0.2260
     77  O        -14.8860  -12.9330   68.5530 O.2   216  ALA216     -0.2867
     78  CB       -13.1550  -11.8310   70.8370 C.3   216  ALA216      0.0290
     79  N        -26.4920  -18.2910   67.8090 N.3   247  LYS247     -0.1245
     80  CA       -25.6120  -19.1090   68.6370 C.3   247  LYS247      0.1561
     81  C        -25.8990  -18.9240   70.1220 C.2   247  LYS247      0.2260
     82  O        -25.7700  -19.8760   70.9000 O.2   247  LYS247     -0.2867
     83  CB       -24.1500  -18.7780   68.3340 C.3   247  LYS247      0.0271
     84  CG       -23.1520  -19.6920   69.0250 C.3   247  LYS247      0.0035
     85  CD       -21.7860  -19.0410   69.1540 C.3   247  LYS247      0.0206
     86  CE       -20.8450  -19.9080   69.9770 C.3   247  LYS247      0.1093
     87  NZ       -19.5750  -19.2050   70.3000 N.3   247  LYS247     -0.1314
     88  N        -29.6420  -19.9200   73.6950 N.3   250  HIS250     -0.1226
     89  CA       -29.7550  -20.5960   74.9810 C.3   250  HIS250      0.1752
     90  C        -29.4300  -19.6750   76.1500 C.2   250  HIS250      0.2595
     91  O        -29.9010  -19.9200   77.2660 O.2   250  HIS250     -0.2718
     92  CB       -28.8350  -21.8170   75.0130 C.3   250  HIS250      0.0759
     93  CG       -27.3800  -21.4790   74.9150 C.ar  250  HIS250      0.0818
     94  ND1      -26.5200  -21.5710   75.9870 N.ar  250  HIS250     -0.2268
     95  CD2      -26.6350  -21.0420   73.8720 C.ar  250  HIS250      0.1154
     96  CE1      -25.3080  -21.2080   75.6090 C.ar  250  HIS250      0.1986
     97  NE2      -25.3500  -20.8820   74.3300 N.ar  250  HIS250     -0.2212
     98  N        -28.6380  -18.6240   75.9230 N.am  251  LYS251     -0.1980
     99  CA       -28.3210  -17.6880   76.9950 C.3   251  LYS251      0.1596
    100  C        -29.4690  -16.7280   77.2810 C.2   251  LYS251      0.2287
    101  O        -29.5830  -16.2270   78.4050 O.2   251  LYS251     -0.2864
    102  CB       -27.0590  -16.8930   76.6530 C.3   251  LYS251      0.0298
    103  CG       -25.8210  -17.7380   76.4070 C.3   251  LYS251      0.0038
    104  CD       -24.5700  -16.8720   76.4430 C.3   251  LYS251      0.0206
    105  CE       -23.3470  -17.6250   75.9490 C.3   251  LYS251      0.1093
    106  NZ       -22.1130  -16.7990   76.0720 N.3   251  LYS251     -0.1314
    107  N        -33.6450  -25.2480   79.2460 N.3   256  ILE256     -0.1245
    108  CA       -34.5710  -25.7340   78.2300 C.3   256  ILE256      0.1561
    109  C        -35.4510  -26.8370   78.7980 C.2   256  ILE256      0.2260
    110  O        -34.9710  -27.7670   79.4600 O.2   256  ILE256     -0.2867
    111  CB       -33.7990  -26.2100   76.9910 C.3   256  ILE256      0.0252
    112  CG1      -32.8460  -25.1120   76.5130 C.3   256  ILE256      0.0019
    113  CG2      -34.7540  -26.6110   75.8790 C.3   256  ILE256      0.0019
    114  CD1      -31.4960  -25.6180   76.0800 C.3   256  ILE256      0.0001
@<TRIPOS>BOND
     1    79    80    1
     2    83    80    1
     3    83    84    1
     4    77    76    2
     5    80    81    1
     6    76    75    1
     7    84    85    1
     8    74    75    1
     9    85    86    1
    10    75    78    1
    11    86    87    1
    12    81    82    2
    13    31    32    1
    14    44    42   ar
    15    44    46   ar
    16    42    41   ar
    17    46    45   ar
    18    35    32    1
    19    88    89    1
    20    32    33    1
    21    41    40    1
    22    41    43   ar
    23    95    97   ar
    24    95    93   ar
    25    40    37    1
    26    45    43   ar
    27    97    96   ar
    28    36    33   am
    29    36    37    1
    30    33    34    2
    31    37    38    1
    32    93    92    1
    33    93    94   ar
    34    89    92    1
    35    89    90    1
    36    11     9   ar
    37    11    10   ar
    38    96    94   ar
    39     9     7   ar
    40    10     8   ar
    41   113   111    1
    42    98    90   am
    43    98    99    1
    44   105   106    1
    45   105   104    1
    46     7     6   ar
    47   114   112    1
    48     8     6   ar
    49    90    91    2
    50    38    39    2
    51    38    47   am
    52     6     5    1
    53   103   104    1
    54   103   102    1
    55   112   111    1
    56   102    99    1
    57     5     2    1
    58    47    48    1
    59   111   108    1
    60    99   100    1
    61   100   101    2
    62    56    54   ar
    63    56    57   ar
    64    54    52   ar
    65    50    49    2
    66     2     1    1
    67     2     3    1
    68   108   109    1
    69   108   107    1
    70    57    55   ar
    71    48    49    1
    72    48    51    1
    73    73    72    1
    74   109   110    2
    75    52    51    1
    76    52    53   ar
    77    49    58   am
    78    19    17   am
    79     3     4    2
    80    55    53   ar
    81    71    72    1
    82    71    70    1
    83    18    17    2
    84    17    16    1
    85    58    59    1
    86    69    70    1
    87    69    66    1
    88    59    60    1
    89    59    62    1
    90    65    60   am
    91    65    66    1
    92    63    62    1
    93    60    61    2
    94    66    67    1
    95    16    13    1
    96    62    64    1
    97    12    13    1
    98    30    28    1
    99    13    14    1
   100    67    68    2
   101    28    29    1
   102    28    27    2
   103    14    15    2
   104    27    26    1
   105    26    25    1
   106    25    24    1
   107    20    21    1
   108    24    21    1
   109    21    22    1
   110    22    23    2
