@<TRIPOS>MOLECULE
tmp/6c8qA00.pdb
 114 110 0 0 0
SMALL
GASTEIGER

@<TRIPOS>ATOM
      1  N          1.2400  -18.9870   11.7250 N.3   132  PHE132     -0.1241
      2  CA         2.5660  -18.4030   11.8920 C.3   132  PHE132      0.1605
      3  C          3.5250  -18.8760   10.8070 C.2   132  PHE132      0.2264
      4  O          4.3230  -18.0860   10.2910 O.2   132  PHE132     -0.2867
      5  CB         3.1150  -18.7350   13.2780 C.3   132  PHE132      0.0534
      6  CG         2.3040  -18.1590   14.4010 C.ar  132  PHE132     -0.0203
      7  CD1        2.3780  -16.8090   14.7040 C.ar  132  PHE132     -0.0042
      8  CD2        1.4640  -18.9640   15.1510 C.ar  132  PHE132     -0.0042
      9  CE1        1.6350  -16.2740   15.7390 C.ar  132  PHE132     -0.0003
     10  CE2        0.7170  -18.4320   16.1830 C.ar  132  PHE132     -0.0003
     11  CZ         0.8030  -17.0880   16.4780 C.ar  132  PHE132     -0.0000
     12  N          6.0050  -16.8900    7.8860 N.3   136  ASN136     -0.1240
     13  CA         7.3570  -17.1680    7.4090 C.3   136  ASN136      0.1653
     14  C          7.3700  -17.4020    5.9040 C.2   136  ASN136      0.2266
     15  O          8.3280  -17.0300    5.2180 O.2   136  ASN136     -0.2867
     16  CB         7.9360  -18.3790    8.1390 C.3   136  ASN136      0.1155
     17  CG         8.1800  -18.1110    9.6100 C.2   136  ASN136      0.2627
     18  OD1        8.7160  -17.0680    9.9830 O.2   136  ASN136     -0.2716
     19  ND2        7.7910  -19.0580   10.4560 N.am  136  ASN136     -0.0877
     20  N          9.6100  -15.2440    3.0840 N.3   140  ARG140     -0.1245
     21  CA        10.4690  -15.8950    2.1020 C.3   140  ARG140      0.1563
     22  C         10.0190  -15.5940    0.6790 C.2   140  ARG140      0.2260
     23  O         10.8580  -15.4810   -0.2230 O.2   140  ARG140     -0.2867
     24  CB        10.4990  -17.4030    2.3490 C.3   140  ARG140      0.0307
     25  CG        11.1100  -17.7800    3.6820 C.3   140  ARG140      0.0489
     26  CD        11.5630  -19.2260    3.7140 C.3   140  ARG140      0.2205
     27  NE        12.1540  -19.5600    5.0060 N.pl3 140  ARG140     -0.0865
     28  CZ        11.4730  -20.0680    6.0270 C.cat 140  ARG140      0.5346
     29  NH1       10.1730  -20.3040    5.9070 N.pl3 140  ARG140      0.1354
     30  NH2       12.0890  -20.3390    7.1690 N.pl3 140  ARG140      0.1354
     31  N         17.0980  -12.9200   17.0620 N.3   169  ALA169     -0.1231
     32  CA        16.8840  -13.6370   15.8040 C.3   169  ALA169      0.1694
     33  C         15.4380  -13.4820   15.3390 C.2   169  ALA169      0.2592
     34  O         14.8140  -14.4190   14.8340 O.2   169  ALA169     -0.2718
     35  CB        17.2720  -15.1110   15.9340 C.3   169  ALA169      0.0304
     36  N         14.9000  -12.2750   15.5260 N.am  170  PHE170     -0.1962
     37  CA        13.5050  -11.9610   15.2190 C.3   170  PHE170      0.1771
     38  C         13.3760  -11.6680   13.7230 C.2   170  PHE170      0.2620
     39  O         13.0840  -10.5540   13.2860 O.2   170  PHE170     -0.2715
     40  CB        13.0380  -10.7900   16.0740 C.3   170  PHE170      0.0574
     41  CG        11.5430  -10.6530   16.1790 C.ar  170  PHE170     -0.0200
     42  CD1       10.8340   -9.9090   15.2490 C.ar  170  PHE170     -0.0042
     43  CD2       10.8500  -11.2410   17.2250 C.ar  170  PHE170     -0.0042
     44  CE1        9.4620   -9.7680   15.3490 C.ar  170  PHE170     -0.0003
     45  CE2        9.4750  -11.0990   17.3350 C.ar  170  PHE170     -0.0003
     46  CZ         8.7820  -10.3640   16.3920 C.ar  170  PHE170     -0.0000
     47  N         13.6180  -12.7080   12.9290 N.am  171  PHE171     -0.1960
     48  CA        13.4730  -12.6200   11.4830 C.3   171  PHE171      0.1771
     49  C         13.3420  -14.0280   10.9230 C.2   171  PHE171      0.2620
     50  O         13.7370  -15.0080   11.5580 O.2   171  PHE171     -0.2715
     51  CB        14.6530  -11.8830   10.8330 C.3   171  PHE171      0.0574
     52  CG        15.9840  -12.5530   11.0410 C.ar  171  PHE171     -0.0200
     53  CD1       16.4380  -13.5180   10.1530 C.ar  171  PHE171     -0.0042
     54  CD2       16.7900  -12.2080   12.1150 C.ar  171  PHE171     -0.0042
     55  CE1       17.6620  -14.1330   10.3380 C.ar  171  PHE171     -0.0003
     56  CE2       18.0180  -12.8210   12.3040 C.ar  171  PHE171     -0.0003
     57  CZ        18.4530  -13.7830   11.4150 C.ar  171  PHE171     -0.0000
     58  N         12.7830  -14.1120    9.7190 N.am  172  THR172     -0.1937
     59  CA        12.6110  -15.3950    9.0530 C.3   172  THR172      0.2028
     60  C         13.9110  -15.8110    8.3760 C.2   172  THR172      0.2642
     61  O         14.4930  -15.0430    7.6040 O.2   172  THR172     -0.2714
     62  CB        11.4810  -15.3200    8.0280 C.3   172  THR172      0.1808
     63  OG1       10.2270  -15.1750    8.7070 O.3   172  THR172     -0.2208
     64  CG2       11.4480  -16.5830    7.1730 C.3   172  THR172      0.0379
     65  N         14.3670  -17.0250    8.6800 N.am  173  LYS173     -0.1977
     66  CA        15.5610  -17.5710    8.0490 C.3   173  LYS173      0.1596
     67  C         15.3580  -17.6580    6.5430 C.2   173  LYS173      0.2287
     68  O         14.4200  -18.3100    6.0720 O.2   173  LYS173     -0.2864
     69  CB        15.8680  -18.9500    8.6300 C.3   173  LYS173      0.0298
     70  CG        17.2990  -19.4210    8.4290 C.3   173  LYS173      0.0038
     71  CD        17.4920  -20.8110    9.0170 C.3   173  LYS173      0.0206
     72  CE        18.9150  -21.0260    9.5050 C.3   173  LYS173      0.1093
     73  NZ        19.0850  -22.3700   10.1250 N.3   173  LYS173     -0.1314
     74  N          5.3880  -10.7780   21.1940 N.3   220  ALA220     -0.1245
     75  CA         5.9470  -12.0700   20.8100 C.3   220  ALA220      0.1562
     76  C          7.2010  -12.3910   21.6120 C.2   220  ALA220      0.2260
     77  O          7.4130  -13.5400   22.0150 O.2   220  ALA220     -0.2867
     78  CB         6.2560  -12.0800   19.3140 C.3   220  ALA220      0.0290
     79  N         18.6440  -19.4550   21.4040 N.3   251  LYS251     -0.1245
     80  CA        17.6210  -20.1150   20.6000 C.3   251  LYS251      0.1561
     81  C         17.8310  -19.8760   19.1100 C.2   251  LYS251      0.2260
     82  O         17.5500  -20.7610   18.2940 O.2   251  LYS251     -0.2867
     83  CB        16.2330  -19.6320   21.0280 C.3   251  LYS251      0.0271
     84  CG        15.1030  -20.0140   20.0850 C.3   251  LYS251      0.0035
     85  CD        14.2720  -21.1560   20.6450 C.3   251  LYS251      0.0206
     86  CE        13.1690  -21.5540   19.6790 C.3   251  LYS251      0.1093
     87  NZ        12.3580  -20.3800   19.2510 N.3   251  LYS251     -0.1314
     88  N         21.4160  -20.6560   15.2100 N.3   254  HIS254     -0.1226
     89  CA        21.4550  -21.2360   13.8730 C.3   254  HIS254      0.1752
     90  C         21.1130  -20.2220   12.7890 C.2   254  HIS254      0.2595
     91  O         21.5090  -20.4100   11.6340 O.2   254  HIS254     -0.2718
     92  CB        20.5040  -22.4320   13.7930 C.3   254  HIS254      0.0759
     93  CG        19.0620  -22.0690   13.9620 C.ar  254  HIS254      0.0818
     94  ND1       18.2020  -21.9230   12.8950 N.ar  254  HIS254     -0.2268
     95  CD2       18.3290  -21.8200   15.0730 C.ar  254  HIS254      0.1154
     96  CE1       17.0010  -21.6000   13.3410 C.ar  254  HIS254      0.1986
     97  NE2       17.0510  -21.5310   14.6590 N.ar  254  HIS254     -0.2212
     98  N         20.3890  -19.1540   13.1300 N.am  255  LYS255     -0.1980
     99  CA        20.1170  -18.0980   12.1640 C.3   255  LYS255      0.1596
    100  C         21.2830  -17.1320   12.0110 C.2   255  LYS255      0.2287
    101  O         21.3850  -16.4630   10.9770 O.2   255  LYS255     -0.2864
    102  CB        18.8630  -17.3170   12.5650 C.3   255  LYS255      0.0298
    103  CG        17.5820  -18.1340   12.5680 C.3   255  LYS255      0.0038
    104  CD        16.4110  -17.2980   13.0590 C.3   255  LYS255      0.0206
    105  CE        15.1270  -18.1070   13.1110 C.3   255  LYS255      0.1093
    106  NZ        14.0100  -17.3240   13.7070 N.3   255  LYS255     -0.1314
    107  N         25.1640  -25.3500    8.9310 N.3   260  ILE260     -0.1245
    108  CA        26.0950  -25.9840    9.8570 C.3   260  ILE260      0.1561
    109  C         26.8280  -27.1200    9.1590 C.2   260  ILE260      0.2260
    110  O         26.2050  -28.0240    8.5870 O.2   260  ILE260     -0.2867
    111  CB        25.3570  -26.4840   11.1080 C.3   260  ILE260      0.0252
    112  CG1       24.8350  -25.2930   11.9090 C.3   260  ILE260      0.0019
    113  CG2       26.2780  -27.3410   11.9630 C.3   260  ILE260      0.0019
    114  CD1       23.4480  -25.4910   12.4430 C.3   260  ILE260      0.0001
@<TRIPOS>BOND
     1    23    22    2
     2    22    21    1
     3    21    24    1
     4    21    20    1
     5    24    25    1
     6    25    26    1
     7    26    27    1
     8    27    28    2
     9    15    14    2
    10    14    13    1
    11    29    28    1
    12    28    30    1
    13    68    67    2
    14    67    66    1
    15    64    62    1
    16    13    12    1
    17    13    16    1
    18    61    60    2
    19    62    63    1
    20    62    59    1
    21    66    69    1
    22    66    65    1
    23    16    17    1
    24    60    65   am
    25    60    59    1
    26    70    69    1
    27    70    71    1
    28   110   109    2
    29   107   108    1
    30    71    72    1
    31    59    58    1
    32   109   108    1
    33    72    73    1
    34    17    18    2
    35    17    19   am
    36    58    49   am
    37   108   111    1
    38    53    55   ar
    39    53    52   ar
    40     4     3    2
    41    55    57   ar
    42     3     2    1
    43    51    52    1
    44    51    48    1
    45    49    48    1
    46    49    50    2
    47   101   100    2
    48    52    54   ar
    49   111   112    1
    50   111   113    1
    51    57    56   ar
    52    48    47    1
    53    91    90    2
    54     1     2    1
    55     2     5    1
    56   112   114    1
    57   100    99    1
    58    54    56   ar
    59    99   102    1
    60    99    98    1
    61   102   103    1
    62   103   104    1
    63    90    98   am
    64    90    89    1
    65    94    96   ar
    66    94    93   ar
    67    47    38   am
    68   104   105    1
    69   105   106    1
    70     5     6    1
    71    39    38    2
    72    96    97   ar
    73    38    37    1
    74    92    89    1
    75    92    93    1
    76    89    88    1
    77    93    95   ar
    78     6     7   ar
    79     6     8   ar
    80    97    95   ar
    81     7     9   ar
    82    34    33    2
    83     8    10   ar
    84    37    36    1
    85    37    40    1
    86    42    44   ar
    87    42    41   ar
    88    33    36   am
    89    33    32    1
    90    44    46   ar
    91     9    11   ar
    92    32    35    1
    93    32    31    1
    94    40    41    1
    95    41    43   ar
    96    10    11   ar
    97    46    45   ar
    98    43    45   ar
    99    82    81    2
   100    81    80    1
   101    87    86    1
   102    78    75    1
   103    86    85    1
   104    84    85    1
   105    84    83    1
   106    80    83    1
   107    80    79    1
   108    75    74    1
   109    75    76    1
   110    76    77    2
