@<TRIPOS>MOLECULE
tmp/6c8rA00.pdb
 221 218 0 0 0
SMALL
GASTEIGER

@<TRIPOS>ATOM
      1  N         -0.2090    8.5680  -58.3630 N.3     4  HIS4       -0.1227
      2  CA        -0.9930    9.7960  -58.2010 C.3     4  HIS4        0.1737
      3  C         -2.2710    9.5570  -57.3780 C.2     4  HIS4        0.2438
      4  O         -3.3580    9.3940  -57.9490 O.2     4  HIS4       -0.2733
      5  CB        -1.3600   10.3880  -59.5720 C.3     4  HIS4        0.0758
      6  CG        -0.2160   10.4390  -60.5410 C.ar    4  HIS4        0.0818
      7  ND1       -0.1660    9.6580  -61.6770 N.ar    4  HIS4       -0.2268
      8  CD2        0.9260   11.1690  -60.5370 C.ar    4  HIS4        0.1154
      9  CE1        0.9530    9.9080  -62.3330 C.ar    4  HIS4        0.1986
     10  NE2        1.6330   10.8220  -61.6640 N.ar    4  HIS4       -0.2212
     11  N         -2.1490    9.5350  -56.0330 N.am    5  PRO5       -0.2718
     12  CA        -3.3400    9.3570  -55.1960 C.3     5  PRO5        0.1535
     13  C         -4.2410   10.5960  -55.2060 C.2     5  PRO5        0.2598
     14  O         -3.8550   11.6520  -55.7260 O.2     5  PRO5       -0.2715
     15  CB        -2.7540    9.1130  -53.7970 C.3     5  PRO5        0.0310
     16  CG        -1.4640    9.8480  -53.8170 C.3     5  PRO5        0.0237
     17  CD        -0.9270    9.6730  -55.2190 C.3     5  PRO5        0.0939
     18  N         -5.4330   10.4580  -54.6290 N.am    6  MET6       -0.1978
     19  CA        -6.4020   11.5460  -54.5950 C.3     6  MET6        0.1605
     20  C         -6.0460   12.5430  -53.4840 C.2     6  MET6        0.2287
     21  O         -5.2430   12.2300  -52.5980 O.2     6  MET6       -0.2864
     22  CB        -7.8110   10.9910  -54.3890 C.3     6  MET6        0.0413
     23  CG        -8.1730    9.8110  -55.2970 C.3     6  MET6        0.0598
     24  SD        -8.3190   10.1580  -57.0770 S.3     6  MET6       -0.1393
     25  CE        -6.6980    9.7040  -57.7000 C.3     6  MET6        0.0692
     26  N        -10.4640   14.4090  -51.0500 N.3    15  TYR15      -0.1241
     27  CA       -11.1880   13.3680  -51.7850 C.3    15  TYR15       0.1605
     28  C        -12.3680   12.8730  -50.9640 C.2    15  TYR15       0.2264
     29  O        -13.4510   12.6710  -51.4950 O.2    15  TYR15      -0.2867
     30  CB       -10.2780   12.1890  -52.1430 C.3    15  TYR15       0.0534
     31  CG       -10.9820   11.1430  -52.9830 C.ar   15  TYR15      -0.0201
     32  CD1      -11.2570   11.3790  -54.3280 C.ar   15  TYR15      -0.0009
     33  CD2      -11.3700    9.9190  -52.4370 C.ar   15  TYR15      -0.0009
     34  CE1      -11.8960   10.4300  -55.1060 C.ar   15  TYR15       0.0417
     35  CE2      -12.0120    8.9680  -53.2020 C.ar   15  TYR15       0.0417
     36  CZ       -12.2740    9.2260  -54.5410 C.ar   15  TYR15       0.1957
     37  OH       -12.9150    8.2800  -55.3140 O.3    15  TYR15      -0.2866
     38  N        -18.3460    8.5060  -56.9390 N.3    22  GLN22      -0.1245
     39  CA       -17.7630    7.1890  -56.7170 C.3    22  GLN22       0.1566
     40  C        -18.4810    6.4420  -55.5810 C.2    22  GLN22       0.2260
     41  O        -18.3870    5.2100  -55.4870 O.2    22  GLN22      -0.2867
     42  CB       -16.2630    7.3130  -56.4230 C.3    22  GLN22       0.0367
     43  CG       -15.4380    7.9520  -57.5540 C.3    22  GLN22       0.0905
     44  CD       -15.1470    9.4400  -57.3350 C.2    22  GLN22       0.2608
     45  OE1      -16.0430   10.2350  -57.0290 O.2    22  GLN22      -0.2717
     46  NE2      -13.8820    9.8160  -57.4970 N.am   22  GLN22      -0.0878
     47  N        -20.6900    2.7440  -55.6170 N.3    26  ILE26      -0.1245
     48  CA       -20.7070    1.7480  -54.5360 C.3    26  ILE26       0.1561
     49  C        -22.1340    1.3920  -54.0760 C.2    26  ILE26       0.2260
     50  O        -22.4530    0.2180  -53.8750 O.2    26  ILE26      -0.2867
     51  CB       -19.8910    2.2400  -53.3060 C.3    26  ILE26       0.0252
     52  CG1      -18.4310    2.5010  -53.6940 C.3    26  ILE26       0.0019
     53  CG2      -19.9910    1.2550  -52.1440 C.3    26  ILE26       0.0019
     54  CD1      -17.6790    1.2630  -54.1160 C.3    26  ILE26       0.0001
     55  N         -9.4000   -4.3820  -50.4610 N.3    59  ASP59      -0.1239
     56  CA        -9.8350   -3.3080  -51.3450 C.3    59  ASP59       0.1674
     57  C         -8.5930   -2.7210  -52.0090 C.2    59  ASP59       0.2266
     58  O         -7.6870   -2.2070  -51.3310 O.2    59  ASP59      -0.2867
     59  CB       -10.6100   -2.2160  -50.5590 C.3    59  ASP59       0.1410
     60  CG       -11.4020   -1.2740  -51.4740 C.2    59  ASP59       0.3668
     61  OD1      -11.6250   -1.6190  -52.6590 O.co2  59  ASP59      -0.2456
     62  OD2      -11.8430   -0.1960  -51.0070 O.co2  59  ASP59      -0.2456
     63  N         -6.9700    0.0560  -54.1950 N.3    61  GLY61      -0.1210
     64  CA        -7.1970    1.4650  -54.4930 C.3    61  GLY61       0.1956
     65  C         -8.2680    2.0630  -53.5980 C.2    61  GLY61       0.2612
     66  O         -9.2150    2.6730  -54.0950 O.2    61  GLY61      -0.2717
     67  N         -8.1070    1.8890  -52.2810 N.am   62  CYS62      -0.1956
     68  CA        -9.1270    2.2680  -51.3000 C.3    62  CYS62       0.1843
     69  C         -9.2770    3.7710  -51.0540 C.2    62  CYS62       0.2626
     70  O        -10.3280    4.2140  -50.5800 O.2    62  CYS62      -0.2714
     71  CB        -8.8310    1.5850  -49.9530 C.3    62  CYS62       0.0997
     72  SG        -7.2490    2.0850  -49.2390 S.3    62  CYS62      -0.0797
     73  N         -8.2380    4.5400  -51.3770 N.am   63  SER63      -0.1950
     74  CA        -8.1790    5.9740  -51.0720 C.3    63  SER63       0.1924
     75  C         -8.3220    6.2370  -49.5670 C.2    63  SER63       0.2314
     76  O         -7.7920    5.4840  -48.7520 O.2    63  SER63      -0.2863
     77  CB        -9.2500    6.7420  -51.8480 C.3    63  SER63       0.2116
     78  OG        -9.0490    8.1160  -51.7000 O.3    63  SER63      -0.2180
     79  N        -15.8600    6.0400  -48.9490 N.3    67  ASN67      -0.1225
     80  CA       -16.3700    5.0350  -49.8890 C.3    67  ASN67       0.1785
     81  C        -15.8270    3.6440  -49.6040 C.2    67  ASN67       0.2597
     82  O        -16.5740    2.6700  -49.6440 O.2    67  ASN67      -0.2718
     83  CB       -16.0510    5.4210  -51.3410 C.3    67  ASN67       0.1169
     84  CG       -16.8130    6.6680  -51.7940 C.2    67  ASN67       0.2627
     85  OD1      -17.5810    7.2480  -51.0230 O.2    67  ASN67      -0.2716
     86  ND2      -16.5910    7.0870  -53.0360 N.am   67  ASN67      -0.0877
     87  N        -14.5340    3.5420  -49.3080 N.am   68  THR68      -0.1953
     88  CA       -13.9610    2.2240  -49.0370 C.3    68  THR68       0.1897
     89  C        -14.6370    1.5560  -47.8290 C.2    68  THR68       0.2313
     90  O        -14.8490    0.3460  -47.8320 O.2    68  THR68      -0.2863
     91  CB       -12.4290    2.2930  -48.8300 C.3    68  THR68       0.1794
     92  OG1      -11.9120    0.9660  -48.6740 O.3    68  THR68      -0.2208
     93  CG2      -12.0350    3.1480  -47.5980 C.3    68  THR68       0.0378
     94  N         -5.7240   -1.3770  -49.5000 N.3    97  ASN97      -0.1225
     95  CA        -4.5300   -1.1460  -50.3080 C.3    97  ASN97       0.1785
     96  C         -4.6180    0.1170  -51.1520 C.2    97  ASN97       0.2597
     97  O         -5.6660    0.4400  -51.7090 O.2    97  ASN97      -0.2718
     98  CB        -4.2590   -2.3570  -51.2210 C.3    97  ASN97       0.1169
     99  CG        -3.3970   -1.9980  -52.4080 C.2    97  ASN97       0.2627
    100  OD1       -3.9100   -1.7840  -53.5070 O.2    97  ASN97      -0.2716
    101  ND2       -2.0810   -1.9020  -52.1910 N.am   97  ASN97      -0.0877
    102  N         -3.5070    0.8320  -51.2390 N.am   98  ASP98      -0.1960
    103  CA        -3.4060    1.9910  -52.1220 C.3    98  ASP98       0.1840
    104  C         -1.9240    2.2560  -52.3020 C.2    98  ASP98       0.2622
    105  O         -1.0940    1.5490  -51.7200 O.2    98  ASP98      -0.2715
    106  CB        -4.1280    3.2230  -51.5430 C.3    98  ASP98       0.1450
    107  CG        -4.6640    4.1540  -52.6230 C.2    98  ASP98       0.3671
    108  OD1       -5.8920    4.2180  -52.8060 O.co2  98  ASP98      -0.2456
    109  OD2       -3.8610    4.8380  -53.2880 O.co2  98  ASP98      -0.2456
    110  N         -1.6030    3.2580  -53.1160 N.am   99  HIS99      -0.1973
    111  CA        -0.2410    3.7350  -53.2870 C.3    99  HIS99       0.1656
    112  C          0.3870    4.0900  -51.9530 C.2    99  HIS99       0.2291
    113  O         -0.3080    4.4730  -51.0150 O.2    99  HIS99      -0.2864
    114  CB        -0.2160    4.9660  -54.1970 C.3    99  HIS99       0.0771
    115  CG        -0.2560    4.6350  -55.6560 C.ar   99  HIS99       0.0820
    116  ND1        0.5920    3.7060  -56.2210 N.ar   99  HIS99      -0.2267
    117  CD2       -1.0260    5.1120  -56.6590 C.ar   99  HIS99       0.1154
    118  CE1        0.3470    3.6320  -57.5200 C.ar   99  HIS99       0.1986
    119  NE2       -0.6350    4.4640  -57.8100 N.ar   99  HIS99      -0.2212
    120  N         -0.6490    7.4240  -50.5590 N.3   102  ASN102     -0.1240
    121  CA        -2.0360    7.6120  -50.1290 C.3   102  ASN102      0.1653
    122  C         -2.0330    8.0880  -48.6680 C.2   102  ASN102      0.2266
    123  O         -1.1340    7.7380  -47.9110 O.2   102  ASN102     -0.2867
    124  CB        -2.8350    6.3110  -50.2670 C.3   102  ASN102      0.1155
    125  CG        -4.2920    6.4620  -49.8770 C.2   102  ASN102      0.2627
    126  OD1       -5.0320    7.2600  -50.4660 O.2   102  ASN102     -0.2716
    127  ND2       -4.7300    5.6610  -48.9110 N.am  102  ASN102     -0.0877
    128  N          1.3470    0.1040  -51.5000 N.3   124  GLY124     -0.1210
    129  CA         1.9780   -0.5270  -52.6490 C.3   124  GLY124      0.1956
    130  C          1.1140   -0.4940  -53.8920 C.2   124  GLY124      0.2613
    131  O         -0.1200   -0.5080  -53.8110 O.2   124  GLY124     -0.2717
    132  N          1.7630   -0.4490  -55.0520 N.am  125  SER125     -0.1938
    133  CA         1.0300   -0.4980  -56.3120 C.3   125  SER125      0.2055
    134  C          0.3230   -1.8270  -56.4930 C.2   125  SER125      0.2643
    135  O          0.9310   -2.8930  -56.3530 O.2   125  SER125     -0.2714
    136  CB         1.9620   -0.2630  -57.4980 C.3   125  SER125      0.2130
    137  OG         1.2170   -0.3470  -58.7040 O.3   125  SER125     -0.2179
    138  N         -0.9580   -1.7890  -56.8330 N.am  126  PHE126     -0.1959
    139  CA        -1.6300   -3.0490  -57.0870 C.3   126  PHE126      0.1771
    140  C         -1.2860   -3.6600  -58.4520 C.2   126  PHE126      0.2619
    141  O         -1.8280   -4.6950  -58.8260 O.2   126  PHE126     -0.2715
    142  CB        -3.1510   -2.9320  -56.8660 C.3   126  PHE126      0.0574
    143  CG        -3.8570   -1.8730  -57.6890 C.ar  126  PHE126     -0.0200
    144  CD1       -3.7220   -1.7640  -59.0800 C.ar  126  PHE126     -0.0042
    145  CD2       -4.7830   -1.0640  -57.0570 C.ar  126  PHE126     -0.0042
    146  CE1       -4.4240   -0.7830  -59.7910 C.ar  126  PHE126     -0.0003
    147  CE2       -5.4910   -0.0850  -57.7440 C.ar  126  PHE126     -0.0003
    148  CZ        -5.3170    0.0510  -59.1280 C.ar  126  PHE126     -0.0000
    149  N         -0.3380   -3.0550  -59.1610 N.am  127  TYR127     -0.1974
    150  CA         0.2430   -3.7130  -60.3290 C.3   127  TYR127      0.1639
    151  C          1.4050   -4.6130  -59.8990 C.2   127  TYR127      0.2290
    152  O          2.0770   -5.1980  -60.7360 O.2   127  TYR127     -0.2864
    153  CB         0.6960   -2.6830  -61.3720 C.3   127  TYR127      0.0560
    154  CG        -0.4840   -1.9730  -61.9940 C.ar  127  TYR127     -0.0198
    155  CD1       -1.5290   -2.7010  -62.5550 C.ar  127  TYR127     -0.0009
    156  CD2       -0.5970   -0.5900  -61.9470 C.ar  127  TYR127     -0.0009
    157  CE1       -2.6330   -2.0710  -63.1000 C.ar  127  TYR127      0.0417
    158  CE2       -1.7010    0.0530  -62.4840 C.ar  127  TYR127      0.0417
    159  CZ        -2.7160   -0.6960  -63.0530 C.ar  127  TYR127      0.1957
    160  OH        -3.8120   -0.0710  -63.6040 O.3   127  TYR127     -0.2866
    161  N        -11.8040   -6.5420  -54.0300 N.3   140  HIS140     -0.1241
    162  CA       -12.6680   -5.4620  -54.4880 C.3   140  HIS140      0.1621
    163  C        -11.7740   -4.3940  -55.0970 C.2   140  HIS140      0.2264
    164  O        -10.6990   -4.1000  -54.5670 O.2   140  HIS140     -0.2867
    165  CB       -13.4960   -4.9190  -53.3040 C.3   140  HIS140      0.0745
    166  CG       -14.4310   -3.7970  -53.6530 C.ar  140  HIS140      0.0817
    167  ND1      -14.0680   -2.4710  -53.5570 N.ar  140  HIS140     -0.2268
    168  CD2      -15.7240   -3.8030  -54.0520 C.ar  140  HIS140      0.1154
    169  CE1      -15.0880   -1.7070  -53.9060 C.ar  140  HIS140      0.1986
    170  NE2      -16.1100   -2.4930  -54.2080 N.ar  140  HIS140     -0.2212
    171  N        -12.6340   -0.6350  -57.0270 N.3   142  SER142     -0.1202
    172  CA       -13.6290    0.2630  -57.5900 C.3   142  SER142      0.2020
    173  C        -13.0220    1.6030  -58.0060 C.2   142  SER142      0.2619
    174  O        -12.4070    2.2890  -57.1900 O.2   142  SER142     -0.2717
    175  CB       -14.7570    0.4930  -56.5760 C.3   142  SER142      0.2103
    176  OG       -15.8210    1.2160  -57.1650 O.3   142  SER142     -0.2182
    177  N        -13.1920    1.9640  -59.2760 N.am  143  TYR143     -0.1961
    178  CA       -12.7160    3.2440  -59.7840 C.3   143  TYR143      0.1771
    179  C        -11.2430    3.4930  -59.5940 C.2   143  TYR143      0.2619
    180  O        -10.8440    4.5870  -59.1910 O.2   143  TYR143     -0.2715
    181  CB       -13.5170    4.3730  -59.1390 C.3   143  TYR143      0.0574
    182  CG       -14.6900    4.7150  -59.9880 C.ar  143  TYR143     -0.0198
    183  CD1      -14.6610    5.8310  -60.8080 C.ar  143  TYR143     -0.0009
    184  CD2      -15.7820    3.8710  -60.0570 C.ar  143  TYR143     -0.0009
    185  CE1      -15.7130    6.1380  -61.6140 C.ar  143  TYR143      0.0417
    186  CE2      -16.8410    4.1610  -60.8760 C.ar  143  TYR143      0.0417
    187  CZ       -16.7950    5.2970  -61.6500 C.ar  143  TYR143      0.1957
    188  OH       -17.8290    5.6330  -62.4720 O.3   143  TYR143     -0.2866
    189  N        -10.4340    2.4930  -59.9150 N.am  144  ALA144     -0.1977
    190  CA        -8.9960    2.6240  -59.7630 C.3   144  ALA144      0.1597
    191  C         -8.2520    2.0840  -60.9770 C.2   144  ALA144      0.2287
    192  O         -7.2120    2.6080  -61.3390 O.2   144  ALA144     -0.2864
    193  CB        -8.5280    1.9130  -58.4790 C.3   144  ALA144      0.0319
    194  N         -6.6680    3.8880  -64.0020 N.3   147  TRP147     -0.1227
    195  CA        -5.3660    4.5270  -63.8160 C.3   147  TRP147      0.1737
    196  C         -4.2310    3.5950  -64.2320 C.2   147  TRP147      0.2595
    197  O         -4.0160    2.5620  -63.6110 O.2   147  TRP147     -0.2718
    198  CB        -5.1670    4.9410  -62.3570 C.3   147  TRP147      0.0564
    199  CG        -6.0090    6.0920  -61.9160 C.ar  147  TRP147      0.0003
    200  CD1       -7.1770    6.0370  -61.2140 C.ar  147  TRP147      0.0946
    201  CD2       -5.7280    7.4910  -62.1260 C.ar  147  TRP147      0.0152
    202  NE1       -7.6460    7.3190  -60.9770 N.ar  147  TRP147     -0.2442
    203  CE2       -6.7770    8.2210  -61.5250 C.ar  147  TRP147      0.0810
    204  CE3       -4.6970    8.1850  -62.7630 C.ar  147  TRP147      0.0012
    205  CZ2       -6.8240    9.6230  -61.5460 C.ar  147  TRP147      0.0191
    206  CZ3       -4.7430    9.5840  -62.7730 C.ar  147  TRP147      0.0001
    207  CH2       -5.8020   10.2810  -62.1750 C.ar  147  TRP147      0.0015
    208  N         -3.5000    3.9750  -65.2720 N.am  148  LEU148     -0.1966
    209  CA        -2.3640    3.2010  -65.7590 C.3   148  LEU148      0.1728
    210  C         -1.1720    3.3340  -64.8270 C.2   148  LEU148      0.2616
    211  O         -1.1300    4.2520  -64.0120 O.2   148  LEU148     -0.2715
    212  CB        -1.9750    3.6800  -67.1620 C.3   148  LEU148      0.0311
    213  CG        -3.1310    3.6170  -68.1660 C.3   148  LEU148      0.0022
    214  CD1       -2.7310    4.2450  -69.4920 C.3   148  LEU148      0.0001
    215  CD2       -3.5740    2.1660  -68.3600 C.3   148  LEU148      0.0001
    216  N         -0.1860    2.4510  -64.9710 N.am  149  SER149     -0.1950
    217  CA         1.0180    2.5430  -64.1560 C.3   149  SER149      0.1924
    218  C          1.9030    3.6930  -64.6150 C.2   149  SER149      0.2314
    219  O          2.7470    4.1640  -63.8710 O.2   149  SER149     -0.2863
    220  CB         1.7990    1.2240  -64.1940 C.3   149  SER149      0.2116
    221  OG         2.2590    0.9220  -65.5060 O.3   149  SER149     -0.2180
@<TRIPOS>BOND
     1   214   213    1
     2   215   213    1
     3   213   212    1
     4   212   209    1
     5   209   208    1
     6   209   210    1
     7   221   220    1
     8   208   196   am
     9   216   210   am
    10   216   217    1
    11   210   211    2
    12   218   217    1
    13   218   219    2
    14   196   195    1
    15   196   197    2
    16   220   217    1
    17   194   195    1
    18   195   198    1
    19   160   159    1
    20   157   159   ar
    21   157   155   ar
    22   159   158   ar
    23   206   204   ar
    24   206   207   ar
    25   204   201   ar
    26   155   154   ar
    27   158   156   ar
    28   188   187    1
    29   198   199    1
    30     9     7   ar
    31     9    10   ar
    32   207   205   ar
    33   201   199   ar
    34   201   203   ar
    35   154   156   ar
    36   154   153    1
    37   199   200   ar
    38     7     6   ar
    39    10     8   ar
    40   187   185   ar
    41   187   186   ar
    42   185   183   ar
    43   205   203   ar
    44   203   202   ar
    45   153   150    1
    46   192   191    2
    47   200   202   ar
    48   191   190    1
    49   186   184   ar
    50   183   182   ar
    51   152   151    2
    52     6     8   ar
    53     6     5    1
    54   150   151    1
    55   150   149    1
    56   184   182   ar
    57   182   181    1
    58   189   190    1
    59   189   179   am
    60   146   148   ar
    61   146   144   ar
    62   178   179    1
    63   178   177    1
    64   178   181    1
    65   190   193    1
    66   179   180    2
    67     5     2    1
    68   177   173   am
    69   149   140   am
    70   148   147   ar
    71   144   143   ar
    72   141   140    2
    73   137   136    1
    74   140   139    1
    75     1     2    1
    76     2     3    1
    77   173   172    1
    78   173   174    2
    79     4     3    2
    80   119   118   ar
    81   119   117   ar
    82   147   145   ar
    83    25    24    1
    84   143   145   ar
    85   143   142    1
    86   172   171    1
    87   172   175    1
    88    43    44    1
    89    43    42    1
    90   118   116   ar
    91   136   133    1
    92    46    44   am
    93     3    11   am
    94    44    45    2
    95   176   175    1
    96   139   142    1
    97   139   138    1
    98    24    23    1
    99    38    39    1
   100   138   134   am
   101    39    42    1
   102    39    40    1
   103   117   115   ar
   104   134   135    2
   105   134   133    1
   106   133   132    1
   107   116   115   ar
   108    11    17    1
   109    11    12    1
   110    14    13    2
   111   115   114    1
   112    47    48    1
   113    40    41    2
   114    37    36    1
   115    23    22    1
   116    17    16    1
   117    13    12    1
   118    13    18   am
   119    12    15    1
   120    34    36   ar
   121    34    32   ar
   122   163   164    2
   123   163   162    1
   124   132   130   am
   125    18    19    1
   126    19    22    1
   127    19    20    1
   128    36    35   ar
   129    48    49    1
   130    48    51    1
   131    64    63    1
   132    64    65    1
   133   162   161    1
   134   162   165    1
   135    32    31   ar
   136   170   168   ar
   137   170   169   ar
   138   114   111    1
   139    54    52    1
   140    66    65    2
   141    49    50    2
   142   168   166   ar
   143   169   167   ar
   144   130   131    2
   145   130   129    1
   146    16    15    1
   147    52    51    1
   148   166   167   ar
   149   166   165    1
   150    65    67   am
   151   100    99    2
   152    20    21    2
   153    51    53    1
   154   109   107   ar
   155   111   110    1
   156   111   112    1
   157    35    33   ar
   158   110   104   am
   159    86    84   am
   160    31    33   ar
   161    31    30    1
   162   108   107   ar
   163    61    60   ar
   164   129   128    1
   165   107   106    1
   166    99   101   am
   167    99    98    1
   168   104   103    1
   169   104   105    2
   170    67    68    1
   171    30    27    1
   172   103   106    1
   173   103   102    1
   174    57    56    1
   175    57    58    2
   176   112   113    2
   177    77    78    1
   178    77    74    1
   179    84    83    1
   180    84    85    2
   181    27    26    1
   182    27    28    1
   183    97    96    2
   184    29    28    2
   185    60    62   ar
   186    60    59    1
   187    73    74    1
   188    73    69   am
   189    56    59    1
   190    56    55    1
   191    83    80    1
   192    68    69    1
   193    68    71    1
   194   102    96   am
   195    98    95    1
   196    96    95    1
   197    74    75    1
   198    69    70    2
   199   120   121    1
   200   126   125    2
   201    95    94    1
   202   124   121    1
   203   124   125    1
   204   121   122    1
   205    71    72    1
   206    80    81    1
   207    80    79    1
   208   125   127   am
   209    82    81    2
   210    81    87   am
   211    75    76    2
   212    87    88    1
   213    88    91    1
   214    88    89    1
   215    91    92    1
   216    91    93    1
   217   122   123    2
   218    90    89    2
