@<TRIPOS>MOLECULE
tmp/6c8zA00.pdb
 148 140 0 0 0
SMALL
GASTEIGER

@<TRIPOS>ATOM
      1  N         23.4120    4.1270   19.7160 N.3   282  GLU282     -0.1245
      2  CA        22.2910    3.9370   18.8040 C.3   282  GLU282      0.1567
      3  C         21.2020    4.9420   19.1510 C.2   282  GLU282      0.2260
      4  O         20.7080    4.9660   20.2820 O.2   282  GLU282     -0.2867
      5  CB        21.7180    2.5230   18.8720 C.3   282  GLU282      0.0388
      6  CG        20.5760    2.3080   17.8820 C.3   282  GLU282      0.1160
      7  CD        21.0750    2.2210   16.4500 C.2   282  GLU282      0.3649
      8  OE1       22.2040    1.7140   16.2540 O.co2 282  GLU282     -0.2457
      9  OE2       20.3570    2.6800   15.5340 O.co2 282  GLU282     -0.2457
     10  N         18.2810    5.6940   11.9320 N.3   310  ASP310     -0.1239
     11  CA        17.5040    5.5000   10.7150 C.3   310  ASP310      0.1674
     12  C         17.1970    6.8270   10.0330 C.2   310  ASP310      0.2266
     13  O         17.4810    7.8770   10.5770 O.2   310  ASP310     -0.2867
     14  CB        16.2780    4.5930   10.9180 C.3   310  ASP310      0.1410
     15  CG        15.0970    5.2930   11.5390 C.2   310  ASP310      0.3668
     16  OD1       15.1500    6.5090   11.7600 O.co2 310  ASP310     -0.2456
     17  OD2       14.0930    4.6090   11.8040 O.co2 310  ASP310     -0.2456
     18  N         15.2280    9.4990   11.9990 N.3   313  GLU313     -0.1245
     19  CA        16.0030    9.9780   13.1340 C.3   313  GLU313      0.1567
     20  C         17.0270   11.0270   12.7220 C.2   313  GLU313      0.2260
     21  O         17.3310   11.9300   13.5090 O.2   313  GLU313     -0.2867
     22  CB        16.6560    8.7730   13.8040 C.3   313  GLU313      0.0388
     23  CG        15.6200    7.8950   14.4950 C.3   313  GLU313      0.1160
     24  CD        16.1110    6.4910   14.7750 C.2   313  GLU313      0.3649
     25  OE1       17.2650    6.1730   14.4180 O.co2 313  GLU313     -0.2457
     26  OE2       15.3150    5.6830   15.2990 O.co2 313  GLU313     -0.2457
     27  N         21.1820    3.8460    8.3760 N.3   360  HIS360     -0.1226
     28  CA        20.6970    2.6980    7.6580 C.3   360  HIS360      0.1752
     29  C         19.2950    2.9540    7.1900 C.2   360  HIS360      0.2597
     30  O         18.4040    3.1870    7.9790 O.2   360  HIS360     -0.2718
     31  CB        20.7490    1.4510    8.5260 C.3   360  HIS360      0.0759
     32  CG        20.1320    1.6210    9.8750 C.ar  360  HIS360      0.0818
     33  ND1       18.7770    1.5250   10.0890 N.ar  360  HIS360     -0.2268
     34  CD2       20.6870    1.8540   11.0840 C.ar  360  HIS360      0.1154
     35  CE1       18.5210    1.7020   11.3690 C.ar  360  HIS360      0.1986
     36  NE2       19.6630    1.9050   11.9950 N.ar  360  HIS360     -0.2212
     37  N         19.1050    2.8910    5.8860 N.am  361  SER361     -0.1938
     38  CA        17.8020    3.1060    5.3110 C.3   361  SER361      0.2055
     39  C         17.3030    1.8140    4.7210 C.2   361  SER361      0.2642
     40  O         17.9550    0.7820    4.8110 O.2   361  SER361     -0.2714
     41  CB        17.8490    4.1850    4.2480 C.3   361  SER361      0.2130
     42  OG        16.5730    4.3560    3.6790 O.3   361  SER361     -0.2179
     43  N         16.1440    1.8620    4.0750 N.am  362  LEU362     -0.1977
     44  CA        15.5390    0.6530    3.5040 C.3   362  LEU362      0.1596
     45  C         16.2650   -0.0870    2.3860 C.2   362  LEU362      0.2287
     46  O         16.3010   -1.3010    2.3860 O.2   362  LEU362     -0.2864
     47  CB        14.1030    0.9090    3.0700 C.3   362  LEU362      0.0297
     48  CG        13.4910   -0.3460    2.4670 C.3   362  LEU362      0.0022
     49  CD1       13.7890   -1.5360    3.3550 C.3   362  LEU362      0.0001
     50  CD2       11.9950   -0.1760    2.2940 C.3   362  LEU362      0.0001
     51  N         22.7730    1.8410    2.6550 N.3   365  TYR365     -0.1241
     52  CA        23.3690    2.3600    3.8720 C.3   365  TYR365      0.1605
     53  C         24.2460    3.5190    3.4810 C.2   365  TYR365      0.2264
     54  O         24.7650    3.5590    2.3860 O.2   365  TYR365     -0.2867
     55  CB        24.2500    1.3380    4.5840 C.3   365  TYR365      0.0534
     56  CG        23.5480    0.1320    5.1370 C.ar  365  TYR365     -0.0201
     57  CD1       22.2010    0.1510    5.4080 C.ar  365  TYR365     -0.0009
     58  CD2       24.2480   -1.0200    5.4110 C.ar  365  TYR365     -0.0009
     59  CE1       21.5640   -0.9560    5.9130 C.ar  365  TYR365      0.0417
     60  CE2       23.6210   -2.1290    5.9200 C.ar  365  TYR365      0.0417
     61  CZ        22.2770   -2.0910    6.1640 C.ar  365  TYR365      0.1957
     62  OH        21.6490   -3.1970    6.6710 O.3   365  TYR365     -0.2866
     63  N         21.7300   -8.3810    8.4660 N.3   391  ALA391     -0.1245
     64  CA        20.3380   -7.9520    8.4720 C.3   391  ALA391      0.1562
     65  C         19.4880   -8.8320    7.5660 C.2   391  ALA391      0.2260
     66  O         18.3280   -9.1220    7.8820 O.2   391  ALA391     -0.2867
     67  CB        20.2450   -6.4880    8.0500 C.3   391  ALA391      0.0290
     68  N         16.3060  -11.0550    8.9750 N.3   395  ALA395     -0.1245
     69  CA        14.9870  -10.9150    8.3680 C.3   395  ALA395      0.1562
     70  C         14.4970  -12.2460    7.8120 C.2   395  ALA395      0.2260
     71  O         13.3250  -12.5980    7.9810 O.2   395  ALA395     -0.2867
     72  CB        15.0280   -9.8540    7.2690 C.3   395  ALA395      0.0290
     73  N         20.9060   -5.8820    0.8580 N.3   458  LYS458     -0.1231
     74  CA        20.1550   -7.0920    0.5540 C.3   458  LYS458      0.1693
     75  C         18.8480   -7.0410    1.3380 C.2   458  LYS458      0.2592
     76  O         18.8550   -7.0910    2.5720 O.2   458  LYS458     -0.2718
     77  CB        20.9840   -8.3180    0.9200 C.3   458  LYS458      0.0285
     78  CG        22.1970   -8.5290    0.0250 C.3   458  LYS458      0.0035
     79  CD        23.0840   -9.6440    0.5580 C.3   458  LYS458      0.0206
     80  CE        24.2430   -9.9660   -0.3770 C.3   458  LYS458      0.1093
     81  NZ        23.8010  -10.8110   -1.5230 N.3   458  LYS458     -0.1314
     82  N         17.7300   -6.9520    0.6210 N.am  459  VAL459     -0.1966
     83  CA        16.4230   -6.6970    1.2090 C.3   459  VAL459      0.1727
     84  C         15.5380   -7.9160    0.9740 C.2   459  VAL459      0.2616
     85  O         15.4480   -8.4200   -0.1530 O.2   459  VAL459     -0.2715
     86  CB        15.7910   -5.4270    0.6130 C.3   459  VAL459      0.0290
     87  CG1       14.3980   -5.1900    1.1790 C.3   459  VAL459      0.0023
     88  CG2       16.6920   -4.2270    0.8740 C.3   459  VAL459      0.0023
     89  N         14.8770   -8.3760    2.0380 N.am  460  VAL460     -0.1977
     90  CA        14.0610   -9.5870    2.0230 C.3   460  VAL460      0.1596
     91  C         12.6140   -9.1890    1.7630 C.2   460  VAL460      0.2287
     92  O         12.0990   -8.2570    2.3890 O.2   460  VAL460     -0.2864
     93  CB        14.1990  -10.3520    3.3530 C.3   460  VAL460      0.0276
     94  CG1       13.2770  -11.5650    3.4040 C.3   460  VAL460      0.0022
     95  CG2       15.6550  -10.7670    3.5800 C.3   460  VAL460      0.0022
     96  N          9.9530  -11.3210    4.8650 N.3   463  PRO463     -0.2116
     97  CA        10.7260  -11.4610    6.0860 C.3   463  PRO463      0.1372
     98  C          9.9070  -11.9990    7.2290 C.2   463  PRO463      0.2244
     99  O          8.7260  -11.7110    7.3370 O.2   463  PRO463     -0.2868
    100  CB        11.1260  -10.0250    6.3900 C.3   463  PRO463      0.0268
    101  CG         9.9880   -9.2330    5.8820 C.3   463  PRO463      0.0207
    102  CD         9.5510   -9.9270    4.6300 C.3   463  PRO463      0.0892
    103  N         10.7190   -8.1660   11.7260 N.3   466  THR466     -0.1203
    104  CA        11.4120   -6.9100   11.4740 C.3   466  THR466      0.1994
    105  C         11.7580   -6.1610   12.7580 C.2   466  THR466      0.2618
    106  O         11.9560   -4.9400   12.7230 O.2   466  THR466     -0.2717
    107  CB        10.5630   -6.0170   10.5670 C.3   466  THR466      0.1784
    108  OG1        9.2490   -5.8830   11.1260 O.3   466  THR466     -0.2211
    109  CG2       10.4820   -6.5840    9.1540 C.3   466  THR466      0.0376
    110  N         11.8460   -6.8630   13.8830 N.am  467  VAL467     -0.1965
    111  CA        12.0880   -6.2430   15.1810 C.3   467  VAL467      0.1727
    112  C         13.5770   -6.3190   15.4920 C.2   467  VAL467      0.2617
    113  O         14.1560   -7.4100   15.5550 O.2   467  VAL467     -0.2715
    114  CB        11.2440   -6.9050   16.2840 C.3   467  VAL467      0.0290
    115  CG1       11.5250   -8.4030   16.3790 C.3   467  VAL467      0.0023
    116  CG2       11.4960   -6.2270   17.6280 C.3   467  VAL467      0.0023
    117  N         14.1940   -5.1550   15.6800 N.am  468  GLY468     -0.1940
    118  CA        15.5930   -5.0800   16.0330 C.3   468  GLY468      0.2014
    119  C         16.5610   -5.1960   14.8790 C.2   468  GLY468      0.2639
    120  O         17.7600   -5.3690   15.1220 O.2   468  GLY468     -0.2714
    121  N         16.0940   -5.1080   13.6310 N.am  469  ILE469     -0.1963
    122  CA        17.0170   -5.1810   12.5030 C.3   469  ILE469      0.1727
    123  C         17.9380   -3.9690   12.5020 C.2   469  ILE469      0.2617
    124  O         19.1590   -4.0980   12.3650 O.2   469  ILE469     -0.2715
    125  CB        16.2530   -5.3130   11.1720 C.3   469  ILE469      0.0290
    126  CG1       15.4350   -6.6090   11.1510 C.3   469  ILE469      0.0022
    127  CG2       17.2220   -5.2910    9.9990 C.3   469  ILE469      0.0023
    128  CD1       14.6140   -6.8100    9.8800 C.3   469  ILE469      0.0001
    129  N         17.3700   -2.7730   12.6660 N.am  470  GLY470     -0.1940
    130  CA        18.1920   -1.5720   12.6760 C.3   470  GLY470      0.2014
    131  C         19.2390   -1.5970   13.7710 C.2   470  GLY470      0.2638
    132  O         20.4060   -1.2670   13.5440 O.2   470  GLY470     -0.2714
    133  N         18.8320   -1.9830   14.9820 N.am  471  ASP471     -0.1971
    134  CA        19.7930   -2.1680   16.0640 C.3   471  ASP471      0.1709
    135  C         20.8750   -3.1500   15.6500 C.2   471  ASP471      0.2293
    136  O         22.0720   -2.8970   15.8290 O.2   471  ASP471     -0.2864
    137  CB        19.0730   -2.6650   17.3160 C.3   471  ASP471      0.1436
    138  CG        18.0720   -1.6600   17.8460 C.2   471  ASP471      0.3671
    139  OD1       18.2690   -0.4520   17.6050 O.co2 471  ASP471     -0.2456
    140  OD2       17.0880   -2.0740   18.4980 O.co2 471  ASP471     -0.2456
    141  N         21.8300   -3.8850   12.6220 N.3   473  ILE473     -0.1245
    142  CA        22.6690   -3.3250   11.5630 C.3   473  ILE473      0.1561
    143  C         23.8030   -2.5020   12.1590 C.2   473  ILE473      0.2260
    144  O         24.9730   -2.6570   11.7860 O.2   473  ILE473     -0.2867
    145  CB        21.8170   -2.4890   10.5890 C.3   473  ILE473      0.0252
    146  CG1       20.8630   -3.3960    9.8190 C.3   473  ILE473      0.0019
    147  CG2       22.7020   -1.7360    9.6010 C.3   473  ILE473      0.0019
    148  CD1       19.7680   -2.6620    9.0790 C.3   473  ILE473      0.0001
@<TRIPOS>BOND
     1    81    80    1
     2    80    79    1
     3    85    84    2
     4    78    79    1
     5    78    77    1
     6    74    73    1
     7    74    77    1
     8    74    75    1
     9    86    88    1
    10    86    87    1
    11    86    83    1
    12    82    83    1
    13    82    75   am
    14    84    83    1
    15    84    89   am
    16    75    76    2
    17    91    90    1
    18    91    92    2
    19    90    89    1
    20    90    93    1
    21    50    48    1
    22    46    45    2
    23    45    44    1
    24    54    53    2
    25    48    47    1
    26    48    49    1
    27    51    52    1
    28    47    44    1
    29    93    94    1
    30    93    95    1
    31    53    52    1
    32    44    43    1
    33    42    41    1
    34    52    55    1
    35    43    39   am
    36    41    38    1
    37    55    56    1
    38   102    96    1
    39   102   101    1
    40    39    40    2
    41    39    38    1
    42    96    97    1
    43    56    57   ar
    44    56    58   ar
    45    38    37    1
    46    57    59   ar
    47    58    60   ar
    48   101   100    1
    49    37    29   am
    50    59    61   ar
    51    60    61   ar
    52    97   100    1
    53    97    98    1
    54    61    62    1
    55    29    28    1
    56    29    30    2
    57    98    99    2
    58    72    69    1
    59    65    66    2
    60    65    64    1
    61    28    27    1
    62    28    31    1
    63    70    71    2
    64    70    69    1
    65    67    64    1
    66    69    68    1
    67    63    64    1
    68    31    32    1
    69   148   146    1
    70   109   107    1
    71   147   145    1
    72   146   145    1
    73    32    33   ar
    74    32    34   ar
    75   128   126    1
    76   127   125    1
    77    12    13    2
    78    12    11    1
    79    33    35   ar
    80   107   108    1
    81   107   104    1
    82   145   142    1
    83    11    14    1
    84    11    10    1
    85    14    15    1
    86    34    36   ar
    87   126   125    1
    88   125   122    1
    89    35    36   ar
    90   104   103    1
    91   104   105    1
    92    15    16   ar
    93    15    17   ar
    94   142   143    1
    95   142   141    1
    96   144   143    2
    97    18    19    1
    98   124   123    2
    99   123   122    1
   100   123   129   am
   101   122   121    1
   102   129   130    1
   103   130   131    1
   104    20    19    1
   105    20    21    2
   106   106   105    2
   107   105   110   am
   108    19    22    1
   109   132   131    2
   110   121   119   am
   111   131   133   am
   112    22    23    1
   113   110   111    1
   114    25    24   ar
   115    23    24    1
   116    24    26   ar
   117   119   120    2
   118   119   118    1
   119   133   134    1
   120   111   112    1
   121   111   114    1
   122   112   113    2
   123   112   117   am
   124     9     7   ar
   125   135   136    2
   126   135   134    1
   127   117   118    1
   128   134   137    1
   129     8     7   ar
   130   114   115    1
   131   114   116    1
   132     7     6    1
   133   137   138    1
   134   139   138   ar
   135   138   140   ar
   136     6     5    1
   137     2     5    1
   138     2     3    1
   139     2     1    1
   140     3     4    2
