@<TRIPOS>MOLECULE
tmp/6c90A00.pdb
 124 115 0 0 0
SMALL
GASTEIGER

@<TRIPOS>ATOM
      1  N         60.4420    9.0240    8.1480 N.3    49  PHE49      -0.1227
      2  CA        61.4850    9.8250    7.5280 C.3    49  PHE49       0.1736
      3  C         60.8430   10.7310    6.4890 C.2    49  PHE49       0.2595
      4  O         59.6820   10.5540    6.1090 O.2    49  PHE49      -0.2718
      5  CB        62.5710    8.9460    6.8910 C.3    49  PHE49       0.0547
      6  CG        62.0300    7.8650    6.0010 C.ar   49  PHE49      -0.0202
      7  CD1       61.6880    8.1370    4.6880 C.ar   49  PHE49      -0.0042
      8  CD2       61.8580    6.5770    6.4800 C.ar   49  PHE49      -0.0042
      9  CE1       61.1850    7.1460    3.8680 C.ar   49  PHE49      -0.0003
     10  CE2       61.3560    5.5800    5.6630 C.ar   49  PHE49      -0.0003
     11  CZ        61.0190    5.8660    4.3550 C.ar   49  PHE49      -0.0000
     12  N         61.6110   11.7130    6.0310 N.am   50  ILE50      -0.1980
     13  CA        61.1280   12.6600    5.0340 C.3    50  ILE50       0.1595
     14  C         61.2350   12.0160    3.6580 C.2    50  ILE50       0.2287
     15  O         62.3350   11.6920    3.1980 O.2    50  ILE50      -0.2864
     16  CB        61.9140   13.9780    5.0920 C.3    50  ILE50       0.0276
     17  CG1       61.5260   14.7620    6.3490 C.3    50  ILE50       0.0022
     18  CG2       61.6660   14.8070    3.8270 C.3    50  ILE50       0.0022
     19  CD1       62.2900   16.0600    6.5390 C.3    50  ILE50       0.0001
     20  N         61.4770   11.6860   -0.2990 N.3    52  ASP52      -0.1239
     21  CA        62.1220   12.4720   -1.3360 C.3    52  ASP52       0.1674
     22  C         61.1070   12.8730   -2.4030 C.2    52  ASP52       0.2266
     23  O         59.9720   12.3910   -2.4370 O.2    52  ASP52      -0.2867
     24  CB        63.2790   11.6920   -1.9560 C.3    52  ASP52       0.1410
     25  CG        64.5010   11.6490   -1.0570 C.2    52  ASP52       0.3668
     26  OD1       64.8060   12.6800   -0.4190 O.co2  52  ASP52      -0.2456
     27  OD2       65.1520   10.5860   -0.9840 O.co2  52  ASP52      -0.2456
     28  N         59.6360   10.1080   -4.6630 N.3    55  GLN55      -0.1245
     29  CA        58.6980    9.2490   -3.9450 C.3    55  GLN55       0.1566
     30  C         57.3390    9.9230   -3.7990 C.2    55  GLN55       0.2260
     31  O         56.2980    9.2920   -4.0220 O.2    55  GLN55      -0.2867
     32  CB        59.2670    8.8850   -2.5750 C.3    55  GLN55       0.0367
     33  CG        60.5680    8.1090   -2.6390 C.3    55  GLN55       0.0905
     34  CD        61.2420    8.0120   -1.2890 C.2    55  GLN55       0.2608
     35  OE1       61.2060    8.9540   -0.5040 O.2    55  GLN55      -0.2717
     36  NE2       61.8490    6.8650   -1.0060 N.am   55  GLN55      -0.0878
     37  N         68.8570    1.6540   -7.2270 N.3    74  THR74      -0.1203
     38  CA        68.6770    0.8380   -6.0340 C.3    74  THR74       0.1994
     39  C         69.4350    1.5060   -4.8940 C.2    74  THR74       0.2618
     40  O         70.6650    1.6140   -4.9480 O.2    74  THR74      -0.2717
     41  CB        69.1770   -0.5850   -6.2720 C.3    74  THR74       0.1784
     42  OG1       68.6900   -1.0630   -7.5330 O.3    74  THR74      -0.2211
     43  CG2       68.6880   -1.5130   -5.1670 C.3    74  THR74       0.0376
     44  N         68.6920    1.9670   -3.8830 N.am   75  SER75      -0.1951
     45  CA        69.1880    2.7310   -2.7360 C.3    75  SER75       0.1924
     46  C         68.4130    4.0370   -2.6210 C.2    75  SER75       0.2314
     47  O         68.3560    4.6380   -1.5440 O.2    75  SER75      -0.2863
     48  CB        70.6850    3.0440   -2.8200 C.3    75  SER75       0.2116
     49  OG        70.9920    3.8010   -3.9770 O.3    75  SER75      -0.2180
     50  N         65.2270    4.2920   -2.8350 N.3    77  GLY77      -0.1210
     51  CA        64.0480    4.0120   -2.0370 C.3    77  GLY77       0.1956
     52  C         62.7820    3.7610   -2.8310 C.2    77  GLY77       0.2612
     53  O         61.7110    4.2600   -2.4700 O.2    77  GLY77      -0.2717
     54  N         62.8820    2.9810   -3.9090 N.am   78  LYS78      -0.1965
     55  CA        61.7020    2.6680   -4.7080 C.3    78  LYS78       0.1728
     56  C         60.6750    1.8660   -3.9190 C.2    78  LYS78       0.2617
     57  O         59.4690    2.0000   -4.1570 O.2    78  LYS78      -0.2715
     58  CB        62.1110    1.8990   -5.9620 C.3    78  LYS78       0.0311
     59  CG        62.8010    2.7430   -7.0190 C.3    78  LYS78       0.0038
     60  CD        63.3780    1.8760   -8.1280 C.3    78  LYS78       0.0206
     61  CE        64.6520    1.1660   -7.6640 C.3    78  LYS78       0.1093
     62  NZ        65.2100    0.2600   -8.7010 N.3    78  LYS78      -0.1314
     63  N         61.1260    1.0270   -2.9820 N.am   79  THR79      -0.1937
     64  CA        60.2000    0.1540   -2.2620 C.3    79  THR79       0.2028
     65  C         59.1790    0.9560   -1.4650 C.2    79  THR79       0.2642
     66  O         58.0650    0.4760   -1.2190 O.2    79  THR79      -0.2714
     67  CB        60.9780   -0.7880   -1.3410 C.3    79  THR79       0.1808
     68  OG1       61.8820   -1.5780   -2.1220 O.3    79  THR79      -0.2208
     69  CG2       60.0340   -1.7140   -0.5790 C.3    79  THR79       0.0379
     70  N         59.5420    2.1700   -1.0470 N.am   80  VAL80      -0.1977
     71  CA        58.5900    3.0600   -0.3880 C.3    80  VAL80       0.1596
     72  C         57.3260    3.1940   -1.2260 C.2    80  VAL80       0.2287
     73  O         56.2050    3.1640   -0.7020 O.2    80  VAL80      -0.2864
     74  CB        59.2520    4.4280   -0.1250 C.3    80  VAL80       0.0276
     75  CG1       58.2170    5.5250   -0.0020 C.3    80  VAL80       0.0022
     76  CG2       60.1070    4.3670    1.1330 C.3    80  VAL80       0.0022
     77  N         61.4310  -10.6850   -0.1210 N.3   109  LYS109     -0.1245
     78  CA        60.3920   -9.6610   -0.1440 C.3   109  LYS109      0.1561
     79  C         59.1840  -10.0600    0.6910 C.2   109  LYS109      0.2260
     80  O         58.5250   -9.1920    1.2740 O.2   109  LYS109     -0.2867
     81  CB        59.9670   -9.3720   -1.5850 C.3   109  LYS109      0.0271
     82  CG        60.8790   -8.3990   -2.3210 C.3   109  LYS109      0.0035
     83  CD        60.7760   -6.9870   -1.7470 C.3   109  LYS109      0.0206
     84  CE        61.7520   -6.0340   -2.4170 C.3   109  LYS109      0.1093
     85  NZ        62.1780   -4.9460   -1.4940 N.3   109  LYS109     -0.1314
     86  N         60.1160   -9.0670    4.2010 N.3   112  GLU112     -0.1245
     87  CA        60.0650   -7.6140    4.3270 C.3   112  GLU112      0.1567
     88  C         58.6260   -7.1260    4.4370 C.2   112  GLU112      0.2260
     89  O         58.2880   -6.3520    5.3390 O.2   112  GLU112     -0.2867
     90  CB        60.7710   -6.9660    3.1340 C.3   112  GLU112      0.0388
     91  CG        61.0080   -5.4680    3.2830 C.3   112  GLU112      0.1160
     92  CD        61.6600   -4.8480    2.0550 C.2   112  GLU112      0.3649
     93  OE1       61.3520   -5.2850    0.9260 O.co2 112  GLU112     -0.2457
     94  OE2       62.4850   -3.9240    2.2190 O.co2 112  GLU112     -0.2457
     95  N         68.2220   -4.7990    0.2770 N.3   383  ASN383     -0.1240
     96  CA        68.7100   -4.1930    1.5150 C.3   383  ASN383      0.1653
     97  C         69.9810   -4.8800    2.0090 C.2   383  ASN383      0.2266
     98  O         70.0780   -5.3130    3.1590 O.2   383  ASN383     -0.2867
     99  CB        67.6270   -4.2190    2.5970 C.3   383  ASN383      0.1155
    100  CG        66.3640   -3.4820    2.1830 C.2   383  ASN383      0.2627
    101  OD1       66.2240   -3.0590    1.0350 O.2   383  ASN383     -0.2716
    102  ND2       65.4340   -3.3310    3.1200 N.am  383  ASN383     -0.0877
    103  N         75.6770   -0.8960   -5.1660 N.3   416  ARG416     -0.1245
    104  CA        75.5780   -1.4880   -3.8400 C.3   416  ARG416      0.1563
    105  C         76.6030   -0.9130   -2.8650 C.2   416  ARG416      0.2260
    106  O         76.6510   -1.3440   -1.7080 O.2   416  ARG416     -0.2867
    107  CB        75.7270   -3.0110   -3.9390 C.3   416  ARG416      0.0307
    108  CG        74.6590   -3.6910   -4.8060 C.3   416  ARG416      0.0489
    109  CD        73.2910   -3.6980   -4.1240 C.3   416  ARG416      0.2205
    110  NE        72.6480   -2.3830   -4.1430 N.pl3 416  ARG416     -0.0865
    111  CZ        71.8660   -1.9050   -3.1760 C.cat 416  ARG416      0.5346
    112  NH1       71.6170   -2.6210   -2.0860 N.pl3 416  ARG416      0.1354
    113  NH2       71.3350   -0.6950   -3.2950 N.pl3 416  ARG416      0.1354
    114  N         73.1740    4.0830    3.2450 N.3   420  ARG420     -0.1245
    115  CA        72.5360    5.3200    3.6730 C.3   420  ARG420      0.1563
    116  C         72.4740    5.3780    5.1930 C.2   420  ARG420      0.2260
    117  O         72.0230    4.4320    5.8450 O.2   420  ARG420     -0.2867
    118  CB        71.1310    5.4270    3.0810 C.3   420  ARG420      0.0307
    119  CG        70.4940    6.7960    3.2770 C.3   420  ARG420      0.0489
    120  CD        69.0040    6.6880    3.5490 C.3   420  ARG420      0.2205
    121  NE        68.2460    6.3000    2.3610 N.pl3 420  ARG420     -0.0865
    122  CZ        67.6230    7.1500    1.5480 C.cat 420  ARG420      0.5346
    123  NH1       66.9600    6.6860    0.4970 N.pl3 420  ARG420      0.1354
    124  NH2       67.6520    8.4580    1.7770 N.pl3 420  ARG420      0.1354
@<TRIPOS>BOND
     1    62    61    1
     2    60    61    1
     3    60    59    1
     4    42    41    1
     5    37    38    1
     6    59    58    1
     7    41    38    1
     8    41    43    1
     9    38    39    1
    10    58    55    1
    11   103   104    1
    12    40    39    2
    13    39    44   am
    14   108   109    1
    15   108   107    1
    16    55    56    1
    17    55    54    1
    18    28    29    1
    19    57    56    2
    20   110   109    1
    21   110   111    2
    22    31    30    2
    23    49    48    1
    24    29    30    1
    25    29    32    1
    26   107   104    1
    27    56    63   am
    28    54    52   am
    29    44    45    1
    30   104   105    1
    31   113   111    1
    32   111   112    1
    33    63    64    1
    34   105   106    2
    35    50    51    1
    36    52    53    2
    37    52    51    1
    38    48    45    1
    39    45    46    1
    40    33    32    1
    41    33    34    1
    42    46    47    2
    43    23    22    2
    44    84    83    1
    45    84    85    1
    46    22    21    1
    47    82    83    1
    48    82    81    1
    49    64    65    1
    50    64    67    1
    51    68    67    1
    52    24    21    1
    53    24    25    1
    54    81    78    1
    55    65    66    2
    56    65    70   am
    57    67    69    1
    58    21    20    1
    59    34    36   am
    60    34    35    2
    61    72    73    2
    62    72    71    1
    63    25    27   ar
    64    25    26   ar
    65    70    71    1
    66    71    74    1
    67    78    77    1
    68    78    79    1
    69    74    75    1
    70    74    76    1
    71    95    96    1
    72   123   122    1
    73    79    80    2
    74    93    92   ar
    75   101   100    2
    76    96    97    1
    77    96    99    1
    78   122   124    1
    79   122   121    2
    80    97    98    2
    81    92    94   ar
    82    92    91    1
    83   100    99    1
    84   100   102   am
    85   121   120    1
    86   118   119    1
    87   118   115    1
    88    90    91    1
    89    90    87    1
    90    15    14    2
    91   114   115    1
    92   119   120    1
    93    14    13    1
    94   115   116    1
    95    18    16    1
    96     9    11   ar
    97     9     7   ar
    98    86    87    1
    99    87    88    1
   100    11    10   ar
   101    88    89    2
   102     7     6   ar
   103    13    16    1
   104    13    12    1
   105    16    17    1
   106   116   117    2
   107    10     8   ar
   108     6     8   ar
   109     6     5    1
   110    12     3   am
   111     4     3    2
   112    17    19    1
   113     3     2    1
   114     5     2    1
   115     2     1    1
