@<TRIPOS>MOLECULE
tmp/6c90A01.pdb
 99 92 0 0 0
SMALL
GASTEIGER

@<TRIPOS>ATOM
      1  N         55.2440  -22.6150  -27.7200 N.3   460  TYR460     -0.1241
      2  CA        54.1080  -23.4720  -28.0470 C.3   460  TYR460      0.1605
      3  C         53.0370  -23.4030  -26.9650 C.2   460  TYR460      0.2264
      4  O         51.8410  -23.3420  -27.2710 O.2   460  TYR460     -0.2867
      5  CB        54.5780  -24.9120  -28.2610 C.3   460  TYR460      0.0534
      6  CG        55.3180  -25.1020  -29.5660 C.ar  460  TYR460     -0.0201
      7  CD1       54.6840  -24.8700  -30.7810 C.ar  460  TYR460     -0.0009
      8  CD2       56.6450  -25.5110  -29.5880 C.ar  460  TYR460     -0.0009
      9  CE1       55.3460  -25.0380  -31.9780 C.ar  460  TYR460      0.0417
     10  CE2       57.3170  -25.6850  -30.7840 C.ar  460  TYR460      0.0417
     11  CZ        56.6600  -25.4460  -31.9760 C.ar  460  TYR460      0.1957
     12  OH        57.3160  -25.6110  -33.1720 O.3   460  TYR460     -0.2866
     13  N         56.9210  -16.7720  -38.1640 N.3   502  GLU502     -0.1245
     14  CA        57.2280  -17.7950  -37.1700 C.3   502  GLU502      0.1567
     15  C         55.9530  -18.3890  -36.5840 C.2   502  GLU502      0.2260
     16  O         55.8810  -19.5960  -36.3310 O.2   502  GLU502     -0.2867
     17  CB        58.1050  -17.2000  -36.0680 C.3   502  GLU502      0.0388
     18  CG        58.4750  -18.1710  -34.9550 C.3   502  GLU502      0.1160
     19  CD        59.2980  -17.5120  -33.8620 C.2   502  GLU502      0.3649
     20  OE1       59.7640  -16.3710  -34.0720 O.co2 502  GLU502     -0.2457
     21  OE2       59.4770  -18.1330  -32.7920 O.co2 502  GLU502     -0.2457
     22  N         55.0350  -22.3780  -36.6270 N.3   506  ARG506     -0.1245
     23  CA        54.8130  -23.0900  -35.3750 C.3   506  ARG506      0.1563
     24  C         53.4400  -23.7470  -35.3450 C.2   506  ARG506      0.2260
     25  O         53.2850  -24.8280  -34.7660 O.2   506  ARG506     -0.2867
     26  CB        54.9820  -22.1370  -34.1910 C.3   506  ARG506      0.0307
     27  CG        56.4100  -21.6300  -34.0120 C.3   506  ARG506      0.0489
     28  CD        56.5310  -20.6870  -32.8240 C.3   506  ARG506      0.2205
     29  NE        56.8990  -21.3990  -31.6040 N.pl3 506  ARG506     -0.0865
     30  CZ        58.1290  -21.4620  -31.1020 C.cat 506  ARG506      0.5346
     31  NH1       59.1400  -20.8450  -31.6990 N.pl3 506  ARG506      0.1354
     32  NH2       58.3480  -22.1470  -29.9860 N.pl3 506  ARG506      0.1354
     33  N         60.2890  -28.0640  -22.4150 N.3   536  ASP536     -0.1239
     34  CA        59.8410  -28.1990  -23.8010 C.3   536  ASP536      0.1674
     35  C         58.4970  -28.9150  -23.8140 C.2   536  ASP536      0.2266
     36  O         58.4340  -30.1450  -23.7920 O.2   536  ASP536     -0.2867
     37  CB        60.8730  -28.9540  -24.6290 C.3   536  ASP536      0.1410
     38  CG        60.4760  -29.0690  -26.0920 C.2   536  ASP536      0.3668
     39  OD1       59.2840  -29.3140  -26.3760 O.co2 536  ASP536     -0.2456
     40  OD2       61.3600  -28.9070  -26.9590 O.co2 536  ASP536     -0.2456
     41  N         56.2910  -29.2610  -26.1480 N.3   538  LEU538     -0.1245
     42  CA        56.0250  -30.0640  -27.3360 C.3   538  LEU538      0.1561
     43  C         56.6020  -31.4670  -27.1860 C.2   538  LEU538      0.2260
     44  O         55.8850  -32.4670  -27.3130 O.2   538  LEU538     -0.2867
     45  CB        56.6130  -29.3680  -28.5630 C.3   538  LEU538      0.0270
     46  CG        55.9790  -29.7070  -29.9100 C.3   538  LEU538      0.0019
     47  CD1       54.6560  -28.9800  -30.0560 C.3   538  LEU538      0.0001
     48  CD2       56.9160  -29.3560  -31.0530 C.3   538  LEU538      0.0001
     49  N         60.7230  -34.6070  -33.8010 N.3   594  ILE594     -0.1245
     50  CA        60.2300  -33.2420  -33.6510 C.3   594  ILE594      0.1561
     51  C         61.1240  -32.2710  -34.4100 C.2   594  ILE594      0.2260
     52  O         60.6370  -31.3760  -35.1130 O.2   594  ILE594     -0.2867
     53  CB        60.1200  -32.8850  -32.1580 C.3   594  ILE594      0.0252
     54  CG1       58.7980  -33.4260  -31.6120 C.3   594  ILE594      0.0019
     55  CG2       60.2320  -31.3780  -31.9410 C.3   594  ILE594      0.0019
     56  CD1       58.7360  -33.4820  -30.1230 C.3   594  ILE594      0.0001
     57  N         59.8480  -29.9300  -37.3160 N.3   598  SER598     -0.1217
     58  CA        60.0910  -28.4930  -37.2300 C.3   598  SER598      0.1889
     59  C         60.7860  -27.9850  -38.4860 C.2   598  SER598      0.2288
     60  O         60.3810  -26.9730  -39.0700 O.2   598  SER598     -0.2866
     61  CB        60.9250  -28.1750  -35.9890 C.3   598  SER598      0.2089
     62  OG        60.2820  -28.6220  -34.8090 O.3   598  SER598     -0.2183
     63  N         60.9160  -23.9470  -39.6720 N.3   603  LEU603     -0.1231
     64  CA        61.5160  -23.2950  -38.5180 C.3   603  LEU603      0.1693
     65  C         63.0190  -23.5320  -38.5340 C.2   603  LEU603      0.2592
     66  O         63.4800  -24.6400  -38.8220 O.2   603  LEU603     -0.2718
     67  CB        60.9310  -23.8280  -37.2110 C.3   603  LEU603      0.0284
     68  CG        59.4690  -23.5250  -36.8960 C.3   603  LEU603      0.0019
     69  CD1       59.0660  -24.2610  -35.6280 C.3   603  LEU603      0.0001
     70  CD2       59.2400  -22.0280  -36.7480 C.3   603  LEU603      0.0001
     71  N         63.7800  -22.4890  -38.2250 N.am  604  GLU604     -0.1966
     72  CA        65.2260  -22.6290  -38.1230 C.3   604  GLU604      0.1733
     73  C         65.5640  -23.4690  -36.8970 C.2   604  GLU604      0.2616
     74  O         65.2170  -23.1000  -35.7700 O.2   604  GLU604     -0.2715
     75  CB        65.8870  -21.2560  -38.0410 C.3   604  GLU604      0.0429
     76  CG        65.5920  -20.3600  -39.2340 C.3   604  GLU604      0.1163
     77  CD        66.3080  -19.0240  -39.1530 C.2   604  GLU604      0.3649
     78  OE1       67.2570  -18.9030  -38.3490 O.co2 604  GLU604     -0.2457
     79  OE2       65.9200  -18.0940  -39.8910 O.co2 604  GLU604     -0.2457
     80  N         66.2240  -24.6030  -37.1150 N.am  605  ILE605     -0.1977
     81  CA        66.5890  -25.5000  -36.0240 C.3   605  ILE605      0.1596
     82  C         67.6820  -26.4330  -36.5200 C.2   605  ILE605      0.2287
     83  O         67.6820  -26.8520  -37.6810 O.2   605  ILE605     -0.2864
     84  CB        65.3620  -26.2910  -35.5090 C.3   605  ILE605      0.0276
     85  CG1       65.7820  -27.2580  -34.3970 C.3   605  ILE605      0.0022
     86  CG2       64.6950  -27.0450  -36.6550 C.3   605  ILE605      0.0022
     87  CD1       64.6250  -27.9570  -33.7120 C.3   605  ILE605      0.0001
     88  N         69.6310  -29.1530  -31.0190 N.3   610  TYR610     -0.1241
     89  CA        68.3910  -29.3860  -30.2860 C.3   610  TYR610      0.1605
     90  C         68.5120  -30.6040  -29.3760 C.2   610  TYR610      0.2264
     91  O         68.1120  -30.5610  -28.2070 O.2   610  TYR610     -0.2867
     92  CB        67.2360  -29.5500  -31.2760 C.3   610  TYR610      0.0534
     93  CG        65.8870  -29.7930  -30.6400 C.ar  610  TYR610     -0.0201
     94  CD1       65.2770  -28.8170  -29.8700 C.ar  610  TYR610     -0.0009
     95  CD2       65.2150  -30.9910  -30.8290 C.ar  610  TYR610     -0.0009
     96  CE1       64.0410  -29.0300  -29.2930 C.ar  610  TYR610      0.0417
     97  CE2       63.9770  -31.2150  -30.2560 C.ar  610  TYR610      0.0417
     98  CZ        63.3950  -30.2300  -29.4900 C.ar  610  TYR610      0.1957
     99  OH        62.1620  -30.4440  -28.9170 O.3   610  TYR610     -0.2866
@<TRIPOS>BOND
     1    79    77   ar
     2    63    64    1
     3    76    77    1
     4    76    75    1
     5    77    78   ar
     6    60    59    2
     7    66    65    2
     8    65    64    1
     9    65    71   am
    10    64    67    1
    11    59    58    1
    12    71    72    1
    13    13    14    1
    14    72    75    1
    15    72    73    1
    16    83    82    2
    17    57    58    1
    18    58    61    1
    19    67    68    1
    20    14    15    1
    21    14    17    1
    22    80    73   am
    23    80    81    1
    24    73    74    2
    25    68    70    1
    26    68    69    1
    27    86    84    1
    28    22    23    1
    29    15    16    2
    30    82    81    1
    31    17    18    1
    32    81    84    1
    33    61    62    1
    34    84    85    1
    35    23    24    1
    36    23    26    1
    37    24    25    2
    38    52    51    2
    39    18    19    1
    40    51    50    1
    41    85    87    1
    42    26    27    1
    43    20    19   ar
    44    27    28    1
    45    19    21   ar
    46    49    50    1
    47    50    53    1
    48    12    11    1
    49    28    29    1
    50    53    55    1
    51    53    54    1
    52     9    11   ar
    53     9     7   ar
    54    11    10   ar
    55    31    30    1
    56    54    56    1
    57    29    30    2
    58    92    93    1
    59    92    89    1
    60    30    32    1
    61    48    46    1
    62    88    89    1
    63    95    93   ar
    64    95    97   ar
    65    10     8   ar
    66     7     6   ar
    67    93    94   ar
    68    89    90    1
    69    97    98   ar
    70    47    46    1
    71    46    45    1
    72    94    96   ar
    73     8     6   ar
    74     6     5    1
    75    98    96   ar
    76    98    99    1
    77    90    91    2
    78    45    42    1
    79     5     2    1
    80     2     1    1
    81     2     3    1
    82    42    43    1
    83    42    41    1
    84    44    43    2
    85     4     3    2
    86    40    38   ar
    87    39    38   ar
    88    38    37    1
    89    37    34    1
    90    35    34    1
    91    35    36    2
    92    34    33    1
