@<TRIPOS>MOLECULE
tmp/6c91B00.pdb
 170 158 0 0 0
SMALL
GASTEIGER

@<TRIPOS>ATOM
      1  N         48.8680  -23.9980    0.1100 N.3    35  LEU35      -0.1245
      2  CA        47.5580  -23.4780   -0.2740 C.3    35  LEU35       0.1561
      3  C         47.3010  -23.6700   -1.7630 C.2    35  LEU35       0.2260
      4  O         46.1900  -24.0420   -2.1680 O.2    35  LEU35      -0.2867
      5  CB        47.4420  -21.9970    0.0890 C.3    35  LEU35       0.0270
      6  CG        46.9830  -21.6560    1.5050 C.3    35  LEU35       0.0019
      7  CD1       46.9270  -20.1680    1.6800 C.3    35  LEU35       0.0001
      8  CD2       45.6440  -22.2900    1.8250 C.3    35  LEU35       0.0001
      9  N         47.1730  -27.7830   -2.5150 N.3    38  ASN38      -0.1225
     10  CA        45.9270  -28.4500   -2.1630 C.3    38  ASN38       0.1785
     11  C         44.7540  -27.9460   -3.0010 C.2    38  ASN38       0.2597
     12  O         43.8450  -28.7200   -3.3240 O.2    38  ASN38      -0.2718
     13  CB        45.6750  -28.2840   -0.6670 C.3    38  ASN38       0.1169
     14  CG        46.6740  -29.0470    0.1610 C.2    38  ASN38       0.2627
     15  OD1       47.2710  -30.0280   -0.3110 O.2    38  ASN38      -0.2716
     16  ND2       46.8800  -28.6040    1.3960 N.am   38  ASN38      -0.0877
     17  N         44.7540  -26.6690   -3.3850 N.am   39  ALA39      -0.1979
     18  CA        43.7530  -26.2090   -4.3390 C.3    39  ALA39       0.1597
     19  C         43.8720  -26.9630   -5.6640 C.2    39  ALA39       0.2287
     20  O         42.8810  -27.4790   -6.1910 O.2    39  ALA39      -0.2864
     21  CB        43.8930  -24.7090   -4.5560 C.3    39  ALA39       0.0319
     22  N         42.4490  -30.3850   -5.5420 N.3    42  ALA42      -0.1245
     23  CA        40.9910  -30.4520   -5.5470 C.3    42  ALA42       0.1562
     24  C         40.4220  -30.1430   -6.9250 C.2    42  ALA42       0.2260
     25  O         39.3550  -30.6570   -7.2770 O.2    42  ALA42      -0.2867
     26  CB        40.4150  -29.4930   -4.4980 C.3    42  ALA42       0.0290
     27  N         41.9500  -17.5690   -0.7980 N.3    78  VAL78      -0.1245
     28  CA        42.3230  -18.4440   -1.9170 C.3    78  VAL78       0.1561
     29  C         41.0920  -19.2660   -2.2720 C.2    78  VAL78       0.2260
     30  O         40.7200  -20.1760   -1.5250 O.2    78  VAL78      -0.2867
     31  CB        43.5070  -19.3670   -1.5830 C.3    78  VAL78       0.0252
     32  CG1       43.8980  -20.2050   -2.7900 C.3    78  VAL78       0.0019
     33  CG2       44.6920  -18.5710   -1.0930 C.3    78  VAL78       0.0019
     34  N         38.9710  -21.7350   -4.9770 N.3    80  ASP80      -0.1239
     35  CA        39.0560  -22.6370   -6.1110 C.3    80  ASP80       0.1674
     36  C         37.6830  -23.2200   -6.4200 C.2    80  ASP80       0.2266
     37  O         36.7490  -23.1610   -5.6110 O.2    80  ASP80      -0.2867
     38  CB        40.0910  -23.7540   -5.8710 C.3    80  ASP80       0.1410
     39  CG        39.7070  -24.6990   -4.7400 C.2    80  ASP80       0.3668
     40  OD1       38.7530  -25.4830   -4.9170 O.co2  80  ASP80      -0.2456
     41  OD2       40.3880  -24.6750   -3.6870 O.co2  80  ASP80      -0.2456
     42  N         36.5020  -29.8480   -6.2160 N.3    83  VAL83      -0.1231
     43  CA        35.4500  -30.7700   -5.7900 C.3    83  VAL83       0.1692
     44  C         34.6230  -30.2170   -4.6310 C.2    83  VAL83       0.2593
     45  O         33.4230  -30.5010   -4.5290 O.2    83  VAL83      -0.2718
     46  CB        36.0830  -32.1260   -5.4360 C.3    83  VAL83       0.0266
     47  CG1       37.3000  -31.9210   -4.5560 C.3    83  VAL83       0.0020
     48  CG2       35.0840  -33.0040   -4.7230 C.3    83  VAL83       0.0020
     49  N         35.2290  -29.4240   -3.7560 N.am   84  GLY84      -0.1942
     50  CA        34.5430  -28.9390   -2.5730 C.3    84  GLY84       0.2014
     51  C         34.4590  -29.9850   -1.4700 C.2    84  GLY84       0.2638
     52  O         35.0040  -31.0980   -1.5660 O.2    84  GLY84      -0.2714
     53  N         33.7420  -29.6170   -0.4030 N.am   85  MET85      -0.1976
     54  CA        33.6320  -30.4550    0.7870 C.3    85  MET85       0.1605
     55  C         32.2290  -30.4030    1.3850 C.2    85  MET85       0.2287
     56  O         31.6730  -29.3190    1.6270 O.2    85  MET85      -0.2864
     57  CB        34.6550  -30.0370    1.8460 C.3    85  MET85       0.0413
     58  CG        36.0620  -30.6000    1.6550 C.3    85  MET85       0.0598
     59  SD        37.2420  -29.9950    2.9040 S.3    85  MET85      -0.1393
     60  CE        36.9900  -28.2250    2.7870 C.3    85  MET85       0.0692
     61  N         32.8110  -34.2030    5.5090 N.3    89  GLU89      -0.1231
     62  CA        34.2590  -34.0660    5.3400 C.3    89  GLU89       0.1699
     63  C         34.8430  -32.9240    6.1670 C.2    89  GLU89       0.2592
     64  O         35.9920  -33.0130    6.6200 O.2    89  GLU89      -0.2718
     65  CB        34.5950  -33.8240    3.8710 C.3    89  GLU89       0.0402
     66  CG        34.8780  -35.0500    3.0510 C.3    89  GLU89       0.1161
     67  CD        34.9480  -34.7180    1.5770 C.2    89  GLU89       0.3649
     68  OE1       33.9160  -34.2710    1.0110 O.co2  89  GLU89      -0.2457
     69  OE2       36.0420  -34.8920    0.9940 O.co2  89  GLU89      -0.2457
     70  N         34.0850  -31.8340    6.3420 N.am   90  LEU90      -0.1980
     71  CA        34.5640  -30.7000    7.1220 C.3    90  LEU90       0.1596
     72  C         34.7130  -31.0320    8.6030 C.2    90  LEU90       0.2287
     73  O         35.5880  -30.4620    9.2680 O.2    90  LEU90      -0.2864
     74  CB        33.6230  -29.5060    6.9650 C.3    90  LEU90       0.0297
     75  CG        33.6020  -28.7500    5.6420 C.3    90  LEU90       0.0022
     76  CD1       32.2790  -28.0560    5.5290 C.3    90  LEU90       0.0001
     77  CD2       34.7190  -27.7300    5.5870 C.3    90  LEU90       0.0001
     78  N         37.7350  -33.0880    9.0860 N.3    93  ASN93      -0.1225
     79  CA        38.8520  -32.1870    8.8010 C.3    93  ASN93       0.1785
     80  C         40.1340  -32.9690    8.5080 C.2    93  ASN93       0.2597
     81  O         40.1640  -33.7300    7.5330 O.2    93  ASN93      -0.2718
     82  CB        39.0170  -31.1640    9.9330 C.3    93  ASN93       0.1169
     83  CG        39.2540  -31.7960   11.2830 C.2    93  ASN93       0.2627
     84  OD1       40.3440  -32.3000   11.5520 O.2    93  ASN93      -0.2716
     85  ND2       38.2480  -31.7570   12.1490 N.am   93  ASN93      -0.0877
     86  N         41.1920  -32.8210    9.3120 N.am   94  LEU94      -0.1980
     87  CA        42.3720  -33.6580    9.1270 C.3    94  LEU94       0.1596
     88  C         42.5540  -34.6830   10.2490 C.2    94  LEU94       0.2287
     89  O         43.6460  -35.2270   10.4110 O.2    94  LEU94      -0.2864
     90  CB        43.6280  -32.8010    8.9580 C.3    94  LEU94       0.0297
     91  CG        43.8820  -31.7170    9.9920 C.3    94  LEU94       0.0022
     92  CD1       45.3500  -31.4960   10.0870 C.3    94  LEU94       0.0001
     93  CD2       43.2000  -30.4200    9.5780 C.3    94  LEU94       0.0001
     94  N         45.4910  -38.4190    6.4700 N.3   112  LEU112     -0.1245
     95  CA        45.0660  -37.0200    6.4010 C.3   112  LEU112      0.1561
     96  C         46.2120  -36.0750    6.7520 C.2   112  LEU112      0.2260
     97  O         46.4910  -35.1180    6.0170 O.2   112  LEU112     -0.2867
     98  CB        43.8770  -36.7810    7.3290 C.3   112  LEU112      0.0270
     99  CG        42.5790  -37.5040    6.9570 C.3   112  LEU112      0.0019
    100  CD1       41.4780  -37.2210    7.9740 C.3   112  LEU112      0.0001
    101  CD2       42.1360  -37.1070    5.5640 C.3   112  LEU112      0.0001
    102  N         47.4400  -33.1020    4.4560 N.3   116  PHE116     -0.1241
    103  CA        46.8160  -31.8470    4.8530 C.3   116  PHE116      0.1605
    104  C         47.4150  -31.1930    6.0780 C.2   116  PHE116      0.2264
    105  O         47.2320  -29.9850    6.2470 O.2   116  PHE116     -0.2867
    106  CB        45.3120  -32.0530    5.0880 C.3   116  PHE116      0.0534
    107  CG        44.6100  -32.5970    3.8900 C.ar  116  PHE116     -0.0203
    108  CD1       44.9020  -32.0960    2.6310 C.ar  116  PHE116     -0.0042
    109  CD2       43.7130  -33.6310    4.0010 C.ar  116  PHE116     -0.0042
    110  CE1       44.2920  -32.5910    1.5110 C.ar  116  PHE116     -0.0003
    111  CE2       43.0940  -34.1290    2.8870 C.ar  116  PHE116     -0.0003
    112  CZ        43.3880  -33.6050    1.6320 C.ar  116  PHE116     -0.0000
    113  N         49.9590  -28.0360    5.3290 N.3   119  GLY119     -0.1210
    114  CA        49.2720  -26.8110    4.9490 C.3   119  GLY119      0.1956
    115  C         48.4280  -26.2250    6.0720 C.2   119  GLY119      0.2611
    116  O         48.3070  -24.9990    6.1970 O.2   119  GLY119     -0.2717
    117  N         47.8320  -27.0840    6.9050 N.am  120  PHE120     -0.1976
    118  CA        46.9560  -26.5680    7.9530 C.3   120  PHE120      0.1639
    119  C         47.7630  -25.8420    9.0160 C.2   120  PHE120      0.2290
    120  O         47.6050  -24.6340    9.2090 O.2   120  PHE120     -0.2864
    121  CB        46.1240  -27.6810    8.5910 C.3   120  PHE120      0.0560
    122  CG        45.3290  -27.2110    9.7590 C.ar  120  PHE120     -0.0200
    123  CD1       44.2450  -26.3680    9.5740 C.ar  120  PHE120     -0.0042
    124  CD2       45.6760  -27.5670   11.0470 C.ar  120  PHE120     -0.0042
    125  CE1       43.5020  -25.9140   10.6570 C.ar  120  PHE120     -0.0003
    126  CE2       44.9370  -27.1100   12.1490 C.ar  120  PHE120     -0.0003
    127  CZ        43.8520  -26.2910   11.9510 C.ar  120  PHE120     -0.0000
    128  N         42.0760  -20.0130   10.7240 N.3   130  VAL130     -0.1245
    129  CA        41.8490  -20.3450    9.3270 C.3   130  VAL130      0.1561
    130  C         40.3730  -20.7050    9.1890 C.2   130  VAL130      0.2260
    131  O         39.8390  -21.4760    9.9960 O.2   130  VAL130     -0.2867
    132  CB        42.7850  -21.4700    8.8340 C.3   130  VAL130      0.0252
    133  CG1       44.2240  -21.2300    9.3280 C.3   130  VAL130      0.0019
    134  CG2       42.2720  -22.8590    9.1380 C.3   130  VAL130      0.0019
    135  N         37.2810  -21.9720    6.5610 N.3   132  VAL132     -0.1245
    136  CA        37.0940  -22.7720    5.3570 C.3   132  VAL132      0.1561
    137  C         35.6270  -22.7010    4.9780 C.2   132  VAL132      0.2260
    138  O         34.7560  -23.0290    5.7910 O.2   132  VAL132     -0.2867
    139  CB        37.5220  -24.2280    5.5760 C.3   132  VAL132      0.0252
    140  CG1       37.3040  -25.0340    4.3200 C.3   132  VAL132      0.0019
    141  CG2       38.9570  -24.2870    6.0090 C.3   132  VAL132      0.0019
    142  N         33.6590  -23.2830    8.0850 N.3   144  TRP144     -0.1241
    143  CA        34.4220  -23.9760    9.1170 C.3   144  TRP144      0.1605
    144  C         35.5400  -23.0540    9.5960 C.2   144  TRP144      0.2264
    145  O         36.3410  -22.5910    8.7750 O.2   144  TRP144     -0.2867
    146  CB        34.9800  -25.2620    8.5210 C.3   144  TRP144      0.0550
    147  CG        35.6840  -26.2270    9.4250 C.ar  144  TRP144      0.0003
    148  CD1       35.1410  -27.3060   10.0520 C.ar  144  TRP144      0.0946
    149  CD2       37.0860  -26.2640    9.7110 C.ar  144  TRP144      0.0152
    150  NE1       36.1070  -27.9920   10.7450 N.ar  144  TRP144     -0.2442
    151  CE2       37.3110  -27.3750   10.5490 C.ar  144  TRP144      0.0810
    152  CE3       38.1700  -25.4590    9.3490 C.ar  144  TRP144      0.0012
    153  CZ2       38.5720  -27.6970   11.0380 C.ar  144  TRP144      0.0191
    154  CZ3       39.4130  -25.7790    9.8340 C.ar  144  TRP144      0.0001
    155  CH2       39.6090  -26.8880   10.6750 C.ar  144  TRP144      0.0015
    156  N         36.1340  -24.2880   -2.8930 N.3   166  THR166     -0.1218
    157  CA        36.4450  -23.9210   -1.5220 C.3   166  THR166      0.1862
    158  C         37.0770  -22.5410   -1.5040 C.2   166  THR166      0.2287
    159  O         37.7400  -22.1360   -2.4630 O.2   166  THR166     -0.2866
    160  CB        37.3800  -24.9670   -0.8920 C.3   166  THR166      0.1770
    161  OG1       36.6880  -26.2110   -0.7930 O.3   166  THR166     -0.2211
    162  CG2       37.7960  -24.5590    0.4860 C.3   166  THR166      0.0375
    163  N         39.6320  -20.6580    1.2070 N.3   168  ILE168     -0.1245
    164  CA        40.4240  -20.6660    2.4360 C.3   168  ILE168      0.1561
    165  C         40.6730  -19.2260    2.8360 C.2   168  ILE168      0.2260
    166  O         41.2520  -18.4510    2.0640 O.2   168  ILE168     -0.2867
    167  CB        41.7590  -21.4130    2.2810 C.3   168  ILE168      0.0252
    168  CG1       41.5480  -22.8160    1.7120 C.3   168  ILE168      0.0019
    169  CG2       42.4120  -21.5370    3.6340 C.3   168  ILE168      0.0019
    170  CD1       41.0320  -23.8010    2.7190 C.3   168  ILE168      0.0001
@<TRIPOS>BOND
     1    25    24    2
     2    24    23    1
     3    36    35    1
     4    36    37    2
     5    42    43    1
     6    20    19    2
     7    35    38    1
     8    35    34    1
     9    38    39    1
    10    43    46    1
    11    43    44    1
    12    19    18    1
    13    23    22    1
    14    23    26    1
    15    46    48    1
    16    46    47    1
    17    40    39   ar
    18    39    41   ar
    19    44    45    2
    20    44    49   am
    21    21    18    1
    22    18    17    1
    23    49    50    1
    24    17    11   am
    25    12    11    2
    26    11    10    1
    27   156   157    1
    28    32    31    1
    29    50    51    1
    30     9    10    1
    31   159   158    2
    32    29    28    1
    33    29    30    2
    34     4     3    2
    35    10    13    1
    36    28    31    1
    37    28    27    1
    38     3     2    1
    39    31    33    1
    40    52    51    2
    41   157   158    1
    42   157   160    1
    43    51    53   am
    44   160   161    1
    45   160   162    1
    46    13    14    1
    47    53    54    1
    48    15    14    2
    49     2     5    1
    50     2     1    1
    51     5     6    1
    52    14    16   am
    53    54    55    1
    54    54    57    1
    55    69    67   ar
    56    68    67   ar
    57   163   164    1
    58    55    56    2
    59     6     7    1
    60     6     8    1
    61   110   112   ar
    62   110   108   ar
    63    67    66    1
    64   112   111   ar
    65    58    57    1
    66    58    59    1
    67   168   167    1
    68   168   170    1
    69   166   165    2
    70   167   164    1
    71   167   169    1
    72   164   165    1
    73   108   107   ar
    74    60    59    1
    75   111   109   ar
    76    66    65    1
    77    65    62    1
    78   107   109   ar
    79   107   106    1
    80   140   139    1
    81   102   103    1
    82   103   106    1
    83   103   104    1
    84   114   113    1
    85   114   115    1
    86   137   136    1
    87   137   138    2
    88    62    61    1
    89    62    63    1
    90   136   139    1
    91   136   135    1
    92    76    75    1
    93   101    99    1
    94   139   141    1
    95    77    75    1
    96    75    74    1
    97    97    96    2
    98   115   116    2
    99   115   117   am
   100   104   105    2
   101    63    70   am
   102    63    64    2
   103    70    71    1
   104    95    94    1
   105    95    96    1
   106    95    98    1
   107   117   118    1
   108    99    98    1
   109    99   100    1
   110    74    71    1
   111    71    72    1
   112    81    80    2
   113   118   121    1
   114   118   119    1
   115   142   143    1
   116    80    79    1
   117    80    86   am
   118   146   143    1
   119   146   147    1
   120   121   122    1
   121    72    73    2
   122   145   144    2
   123    79    78    1
   124    79    82    1
   125   132   134    1
   126   132   129    1
   127   132   133    1
   128    90    87    1
   129    90    91    1
   130   119   120    2
   131   143   144    1
   132    87    86    1
   133    87    88    1
   134   130   129    1
   135   130   131    2
   136   129   128    1
   137   152   149   ar
   138   152   154   ar
   139   147   149   ar
   140   147   148   ar
   141   123   122   ar
   142   123   125   ar
   143    93    91    1
   144   149   151   ar
   145   122   124   ar
   146   154   155   ar
   147    82    83    1
   148    91    92    1
   149   148   150   ar
   150    88    89    2
   151   151   150   ar
   152   151   153   ar
   153   125   127   ar
   154   155   153   ar
   155   124   126   ar
   156    83    84    2
   157    83    85   am
   158   127   126   ar
