@<TRIPOS>MOLECULE
tmp/6c94A01.pdb
 163 155 0 0 0
SMALL
GASTEIGER

@<TRIPOS>ATOM
      1  N        -22.2280   77.2020  115.9800 N.3    87  LYS87      -0.1245
      2  CA       -22.2010   77.0710  117.4250 C.3    87  LYS87       0.1561
      3  C        -23.4550   77.7150  117.9900 C.2    87  LYS87       0.2260
      4  O        -24.0060   78.6560  117.4000 O.2    87  LYS87      -0.2867
      5  CB       -20.9480   77.7310  118.0200 C.3    87  LYS87       0.0271
      6  CG       -19.6070   77.2450  117.4220 C.3    87  LYS87       0.0035
      7  CD       -19.2340   75.8520  117.8990 C.3    87  LYS87       0.0206
      8  CE       -18.0630   75.3150  117.1210 C.3    87  LYS87       0.1093
      9  NZ       -16.7800   75.3760  117.8850 N.3    87  LYS87      -0.1314
     10  N        -25.1190   79.8060  124.1910 N.3    91  VAL91      -0.1231
     11  CA       -23.8570   79.5160  124.8770 C.3    91  VAL91       0.1692
     12  C        -22.6070   80.3130  124.4800 C.2    91  VAL91       0.2592
     13  O        -21.8620   80.7690  125.3370 O.2    91  VAL91      -0.2718
     14  CB       -23.5240   78.0170  124.8260 C.3    91  VAL91       0.0266
     15  CG1      -22.2800   77.7270  125.6460 C.3    91  VAL91       0.0020
     16  CG2      -24.6970   77.2120  125.3470 C.3    91  VAL91       0.0020
     17  N        -22.3810   80.4720  123.1800 N.am   92  TYR92      -0.1976
     18  CA       -21.1110   81.0080  122.6870 C.3    92  TYR92       0.1639
     19  C        -21.0550   82.5250  122.6030 C.2    92  TYR92       0.2290
     20  O        -19.9970   83.1000  122.3920 O.2    92  TYR92      -0.2864
     21  CB       -20.7580   80.4060  121.3270 C.3    92  TYR92       0.0560
     22  CG       -20.2900   78.9700  121.3730 C.ar   92  TYR92      -0.0198
     23  CD1      -21.1940   77.9300  121.4820 C.ar   92  TYR92      -0.0009
     24  CD2      -18.9440   78.6550  121.2860 C.ar   92  TYR92      -0.0009
     25  CE1      -20.7740   76.6200  121.5140 C.ar   92  TYR92       0.0417
     26  CE2      -18.5160   77.3460  121.3180 C.ar   92  TYR92       0.0417
     27  CZ       -19.4390   76.3350  121.4310 C.ar   92  TYR92       0.1957
     28  OH       -19.0230   75.0320  121.4660 O.3    92  TYR92      -0.2866
     29  N        -18.7450   84.4460  124.9660 N.3    95  PHE95      -0.1241
     30  CA       -17.3460   84.5420  124.5690 C.3    95  PHE95       0.1605
     31  C        -16.9470   85.9260  124.0600 C.2    95  PHE95       0.2264
     32  O        -15.7920   86.3170  124.1630 O.2    95  PHE95      -0.2867
     33  CB       -17.0410   83.5110  123.4860 C.3    95  PHE95       0.0534
     34  CG       -16.4890   82.2210  124.0100 C.ar   95  PHE95      -0.0203
     35  CD1      -15.4170   82.2100  124.8740 C.ar   95  PHE95      -0.0042
     36  CD2      -17.0400   81.0170  123.6250 C.ar   95  PHE95      -0.0042
     37  CE1      -14.9090   81.0230  125.3500 C.ar   95  PHE95      -0.0003
     38  CE2      -16.5390   79.8260  124.0960 C.ar   95  PHE95      -0.0003
     39  CZ       -15.4720   79.8290  124.9620 C.ar   95  PHE95      -0.0000
     40  N        -13.2850   80.1400  116.9360 N.3   104  LEU104     -0.1245
     41  CA       -14.1030   79.2510  117.7430 C.3   104  LEU104      0.1561
     42  C        -15.5690   79.5690  117.5880 C.2   104  LEU104      0.2260
     43  O        -16.4180   78.6690  117.6060 O.2   104  LEU104     -0.2867
     44  CB       -13.7070   79.3870  119.2050 C.3   104  LEU104      0.0270
     45  CG       -14.3870   78.4340  120.1760 C.3   104  LEU104      0.0019
     46  CD1      -14.0310   76.9830  119.8730 C.3   104  LEU104      0.0001
     47  CD2      -14.0410   78.8100  121.5860 C.3   104  LEU104      0.0001
     48  N        -17.5510   82.4650  133.2280 N.3   199  MET199     -0.1230
     49  CA       -18.3630   82.1700  132.0460 C.3   199  MET199      0.1702
     50  C        -19.0500   80.8080  132.1620 C.2   199  MET199      0.2592
     51  O        -20.2100   80.6590  131.7580 O.2   199  MET199     -0.2718
     52  CB       -17.5120   82.2460  130.7800 C.3   199  MET199      0.0401
     53  CG       -18.3410   82.0600  129.5170 C.3   199  MET199      0.0596
     54  SD       -17.4270   82.0810  128.0030 S.3   199  MET199     -0.1393
     55  CE       -18.4030   80.9830  127.0060 C.3   199  MET199      0.0692
     56  N        -18.3590   79.8010  132.7050 N.am  200  GLN200     -0.1979
     57  CA       -19.0380   78.5620  133.0520 C.3   200  GLN200      0.1601
     58  C        -20.2060   78.8570  133.9860 C.2   200  GLN200      0.2287
     59  O        -21.3450   78.4480  133.7210 O.2   200  GLN200     -0.2864
     60  CB       -18.0450   77.5800  133.6780 C.3   200  GLN200      0.0394
     61  CG       -18.5930   76.1990  134.0020 C.3   200  GLN200      0.0908
     62  CD       -19.1160   75.4350  132.7820 C.2   200  GLN200      0.2608
     63  OE1      -18.3560   74.8680  132.0060 O.2   200  GLN200     -0.2717
     64  NE2      -20.4260   75.3930  132.6410 N.am  200  GLN200     -0.0878
     65  N        -23.0520   80.2470  132.0200 N.3   203  ILE203     -0.1245
     66  CA       -23.7230   79.2140  131.2180 C.3   203  ILE203      0.1561
     67  C        -24.7970   78.4920  132.0380 C.2   203  ILE203      0.2260
     68  O        -25.9000   78.2100  131.5490 O.2   203  ILE203     -0.2867
     69  CB       -22.6630   78.2330  130.6650 C.3   203  ILE203      0.0252
     70  CG1      -21.8710   78.9000  129.5400 C.3   203  ILE203      0.0019
     71  CG2      -23.2710   76.9390  130.1860 C.3   203  ILE203      0.0019
     72  CD1      -20.6550   78.0930  128.9950 C.3   203  ILE203      0.0001
     73  N         -6.4740   81.7730  124.7350 N.3   291  PHE291     -0.1227
     74  CA        -7.2780   80.8130  125.5330 C.3   291  PHE291      0.1736
     75  C         -7.0250   79.3460  125.0820 C.2   291  PHE291      0.2595
     76  O         -6.6390   78.5020  125.8680 O.2   291  PHE291     -0.2718
     77  CB        -8.7640   81.1980  125.4320 C.3   291  PHE291      0.0547
     78  CG        -9.7070   80.1860  126.0300 C.ar  291  PHE291     -0.0202
     79  CD1       -9.4880   79.6720  127.3160 C.ar  291  PHE291     -0.0042
     80  CD2      -10.8470   79.7990  125.3090 C.ar  291  PHE291     -0.0042
     81  CE1      -10.3940   78.7620  127.8670 C.ar  291  PHE291     -0.0003
     82  CE2      -11.7520   78.8930  125.8680 C.ar  291  PHE291     -0.0003
     83  CZ       -11.5260   78.3710  127.1460 C.ar  291  PHE291     -0.0000
     84  N         -7.1720   79.0650  123.7160 N.am  292  GLU292     -0.1979
     85  CA        -7.3740   77.6580  123.2740 C.3   292  GLU292      0.1602
     86  C         -6.0620   76.8370  123.2640 C.2   292  GLU292      0.2287
     87  O         -6.0410   75.6880  123.6620 O.2   292  GLU292     -0.2864
     88  CB        -7.9860   77.6060  121.8690 C.3   292  GLU292      0.0415
     89  CG        -9.3940   78.1910  121.7850 C.3   292  GLU292      0.1163
     90  CD        -9.9590   78.1600  120.3830 C.2   292  GLU292      0.3649
     91  OE1      -11.1240   78.2160  120.0800 O.co2 292  GLU292     -0.2457
     92  OE2       -8.9540   78.1060  119.4360 O.co2 292  GLU292     -0.2457
     93  N         -5.1280   76.5580  127.7090 N.3   295  ASP295     -0.1225
     94  CA        -5.9690   76.1510  128.8490 C.3   295  ASP295      0.1805
     95  C         -6.3200   74.6600  128.7780 C.2   295  ASP295      0.2598
     96  O         -6.4210   73.9790  129.7980 O.2   295  ASP295     -0.2718
     97  CB        -7.2560   76.9680  128.8800 C.3   295  ASP295      0.1424
     98  CG        -7.9600   76.9660  130.2240 C.2   295  ASP295      0.3668
     99  OD1       -7.3040   77.1490  131.2400 O.co2 295  ASP295     -0.2456
    100  OD2       -9.2030   76.9110  130.2540 O.co2 295  ASP295     -0.2456
    101  N         -6.5160   74.1450  127.5790 N.am  296  THR296     -0.1953
    102  CA        -6.9570   72.7790  127.3940 C.3   296  THR296      0.1897
    103  C         -5.8210   71.8040  127.6240 C.2   296  THR296      0.2313
    104  O         -6.0210   70.7380  128.2230 O.2   296  THR296     -0.2863
    105  CB        -7.4850   72.6320  125.9640 C.3   296  THR296      0.1794
    106  OG1       -6.9220   73.6960  125.1930 O.3   296  THR296     -0.2208
    107  CG2       -8.9490   72.7470  125.8970 C.3   296  THR296      0.0378
    108  N        -12.2760   69.0250  127.3360 N.3   357  VAL357     -0.1245
    109  CA       -13.5070   69.7660  127.0910 C.3   357  VAL357      0.1561
    110  C        -14.6730   68.8010  127.2760 C.2   357  VAL357      0.2260
    111  O        -14.8900   67.9280  126.4290 O.2   357  VAL357     -0.2867
    112  CB       -13.5250   70.3740  125.6880 C.3   357  VAL357      0.0252
    113  CG1      -14.6680   71.2700  125.5370 C.3   357  VAL357      0.0019
    114  CG2      -12.2460   71.0670  125.4390 C.3   357  VAL357      0.0019
    115  N        -18.0080   69.5590  127.4030 N.3   359  GLN359     -0.1231
    116  CA       -19.3050   69.9040  126.8160 C.3   359  GLN359      0.1698
    117  C        -19.2040   71.0180  125.7810 C.2   359  GLN359      0.2592
    118  O        -18.7620   72.1210  126.0960 O.2   359  GLN359     -0.2718
    119  CB       -20.2500   70.3390  127.9260 C.3   359  GLN359      0.0381
    120  CG       -21.6320   69.8960  127.8370 C.3   359  GLN359      0.0905
    121  CD       -22.3730   70.1650  129.1300 C.2   359  GLN359      0.2608
    122  OE1      -21.7950   70.0840  130.2450 O.2   359  GLN359     -0.2717
    123  NE2      -23.6640   70.4510  129.0000 N.am  359  GLN359     -0.0878
    124  N        -19.7120   70.7650  124.5830 N.am  360  VAL360     -0.1966
    125  CA       -19.7970   71.7790  123.5380 C.3   360  VAL360      0.1727
    126  C        -21.2170   71.8180  122.9860 C.2   360  VAL360      0.2616
    127  O        -22.0490   70.9710  123.3070 O.2   360  VAL360     -0.2715
    128  CB       -18.7730   71.5190  122.4350 C.3   360  VAL360      0.0290
    129  CG1      -17.3640   71.6040  123.0530 C.3   360  VAL360      0.0023
    130  CG2      -19.0050   70.1610  121.8490 C.3   360  VAL360      0.0023
    131  N        -21.5130   72.8430  122.1880 N.am  361  TYR361     -0.1974
    132  CA       -22.8930   73.0600  121.7720 C.3   361  TYR361      0.1639
    133  C        -23.0380   73.5540  120.3220 C.2   361  TYR361      0.2290
    134  O        -22.1490   74.1960  119.7450 O.2   361  TYR361     -0.2864
    135  CB       -23.5650   74.0690  122.6800 C.3   361  TYR361      0.0560
    136  CG       -23.4770   73.8410  124.1720 C.ar  361  TYR361     -0.0198
    137  CD1      -22.3500   74.1770  124.8820 C.ar  361  TYR361     -0.0009
    138  CD2      -24.5620   73.3870  124.8740 C.ar  361  TYR361     -0.0009
    139  CE1      -22.3010   74.0170  126.2560 C.ar  361  TYR361      0.0417
    140  CE2      -24.5160   73.2230  126.2410 C.ar  361  TYR361      0.0417
    141  CZ       -23.3930   73.5370  126.9410 C.ar  361  TYR361      0.1957
    142  OH       -23.3940   73.3580  128.3410 O.3   361  TYR361     -0.2866
    143  N        -10.7900   70.1490  116.2620 N.3   430  CYS430     -0.1235
    144  CA        -9.7390   70.9560  116.8730 C.3   430  CYS430      0.1677
    145  C         -8.6350   71.1810  115.8670 C.2   430  CYS430      0.2270
    146  O         -7.9700   70.2270  115.4580 O.2   430  CYS430     -0.2867
    147  CB        -9.1640   70.2810  118.1120 C.3   430  CYS430      0.0956
    148  SG        -8.0150   71.3370  119.0480 S.3   430  CYS430     -0.0801
    149  N        -15.2590   75.3210  131.4840 N.3   467  LEU467     -0.1231
    150  CA       -15.0570   75.2240  130.0400 C.3   467  LEU467      0.1693
    151  C        -14.1110   74.0810  129.7050 C.2   467  LEU467      0.2591
    152  O        -14.4640   73.1730  128.9420 O.2   467  LEU467     -0.2718
    153  CB       -14.5290   76.5450  129.4780 C.3   467  LEU467      0.0284
    154  CG       -15.5410   77.6610  129.1820 C.3   467  LEU467      0.0019
    155  CD1      -16.5430   77.8450  130.2560 C.3   467  LEU467      0.0001
    156  CD2      -14.7910   78.9530  128.9710 C.3   467  LEU467      0.0001
    157  N        -12.9010   74.1190  130.2550 N.am  468  VAL468     -0.1980
    158  CA       -12.0680   72.9300  130.2750 C.3   468  VAL468      0.1595
    159  C        -12.4090   72.2130  131.5580 C.2   468  VAL468      0.2287
    160  O        -13.0870   72.7800  132.4200 O.2   468  VAL468     -0.2864
    161  CB       -10.5650   73.2200  130.2300 C.3   468  VAL468      0.0276
    162  CG1      -10.2210   74.1640  129.1010 C.3   468  VAL468      0.0022
    163  CG2      -10.0950   73.7220  131.5810 C.3   468  VAL468      0.0022
@<TRIPOS>BOND
     1   146   145    2
     2   145   144    1
     3     1     2    1
     4   143   144    1
     5   144   147    1
     6    40    41    1
     7     8     9    1
     8     8     7    1
     9     4     3    2
    10     6     7    1
    11     6     5    1
    12     2     3    1
    13     2     5    1
    14    42    43    2
    15    42    41    1
    16    41    44    1
    17   147   148    1
    18    44    45    1
    19    92    90   ar
    20   134   133    2
    21    46    45    1
    22    91    90   ar
    23    45    47    1
    24   133   132    1
    25    90    89    1
    26    24    26   ar
    27    24    22   ar
    28    26    27   ar
    29    21    22    1
    30    21    18    1
    31    22    23   ar
    32    27    28    1
    33    27    25   ar
    34    23    25   ar
    35   132   131    1
    36   132   135    1
    37    89    88    1
    38   130   128    1
    39    88    85    1
    40   131   126   am
    41    20    19    2
    42   128   129    1
    43   128   125    1
    44    19    18    1
    45   135   136    1
    46    18    17    1
    47   126   127    2
    48   126   125    1
    49    17    12   am
    50    86    85    1
    51    86    87    2
    52    85    84    1
    53    33    34    1
    54    33    30    1
    55   125   124    1
    56    36    34   ar
    57    36    38   ar
    58    84    75   am
    59    34    35   ar
    60    31    32    2
    61    31    30    1
    62    38    39   ar
    63   136   138   ar
    64   136   137   ar
    65    10    11    1
    66    12    11    1
    67    12    13    2
    68    30    29    1
    69   124   117   am
    70    73    74    1
    71    14    11    1
    72    14    16    1
    73    14    15    1
    74   138   140   ar
    75    35    37   ar
    76   137   139   ar
    77    39    37   ar
    78    75    74    1
    79    75    76    2
    80   106   105    1
    81    80    82   ar
    82    80    78   ar
    83    77    74    1
    84    77    78    1
    85   114   112    1
    86   113   112    1
    87   112   109    1
    88   117   118    2
    89   117   116    1
    90    82    83   ar
    91   107   105    1
    92   105   102    1
    93    78    79   ar
    94   140   141   ar
    95   139   141   ar
    96   111   110    2
    97   116   115    1
    98   116   119    1
    99   141   142    1
   100    55    54    1
   101   109   110    1
   102   109   108    1
   103    83    81   ar
   104    79    81   ar
   105   102   101    1
   106   102   103    1
   107   101    95   am
   108   103   104    2
   109    93    94    1
   110   120   119    1
   111   120   121    1
   112    54    53    1
   113    95    94    1
   114    95    96    2
   115    94    97    1
   116    97    98    1
   117   152   151    2
   118   156   154    1
   119    72    70    1
   120   123   121   am
   121   162   161    1
   122   121   122    2
   123   154   153    1
   124   154   155    1
   125   153   150    1
   126    53    52    1
   127    70    69    1
   128   151   150    1
   129   151   157   am
   130   150   149    1
   131    71    69    1
   132    98   100   ar
   133    98    99   ar
   134   161   158    1
   135   161   163    1
   136   157   158    1
   137   158   159    1
   138    69    66    1
   139    52    49    1
   140    66    65    1
   141    66    67    1
   142    68    67    2
   143   159   160    2
   144    51    50    2
   145    63    62    2
   146    49    50    1
   147    49    48    1
   148    50    56   am
   149    64    62   am
   150    56    57    1
   151    62    61    1
   152    57    60    1
   153    57    58    1
   154    60    61    1
   155    59    58    2
