@<TRIPOS>MOLECULE
tmp/6c98C00.pdb
 93 93 0 0 0
SMALL
GASTEIGER

@<TRIPOS>ATOM
      1  N         23.6530   -7.6630   49.6080 N.3    26  TRP26      -0.1241
      2  CA        24.2390   -6.4170   49.1400 C.3    26  TRP26       0.1605
      3  C         25.6200   -6.6910   48.5740 C.2    26  TRP26       0.2264
      4  O         26.4160   -7.3940   49.1970 O.2    26  TRP26      -0.2867
      5  CB        24.3320   -5.3850   50.2860 C.3    26  TRP26       0.0550
      6  CG        22.9670   -4.9860   50.7740 C.ar   26  TRP26       0.0003
      7  CD1       22.1450   -5.6960   51.6150 C.ar   26  TRP26       0.0946
      8  CD2       22.2530   -3.8120   50.4110 C.ar   26  TRP26       0.0152
      9  NE1       20.9570   -5.0210   51.7940 N.ar   26  TRP26      -0.2442
     10  CE2       21.0050   -3.8530   51.0750 C.ar   26  TRP26       0.0810
     11  CE3       22.5520   -2.7140   49.6060 C.ar   26  TRP26       0.0012
     12  CZ2       20.0560   -2.8430   50.9400 C.ar   26  TRP26       0.0191
     13  CZ3       21.6070   -1.7120   49.4680 C.ar   26  TRP26       0.0001
     14  CH2       20.3780   -1.7760   50.1440 C.ar   26  TRP26       0.0015
     15  N         27.4050   -1.1220   47.7590 N.3    29  PRO29      -0.2102
     16  CA        26.1870   -0.3630   48.0810 C.3    29  PRO29       0.1504
     17  C         24.9480   -0.7800   47.2990 C.2    29  PRO29       0.2576
     18  O         23.9260   -0.0910   47.3960 O.2    29  PRO29      -0.2718
     19  CB        26.5940    1.0690   47.7080 C.3    29  PRO29       0.0282
     20  CG        27.5010    0.8680   46.4650 C.3    29  PRO29       0.0208
     21  CD        28.2530   -0.4390   46.7610 C.3    29  PRO29       0.0893
     22  N         25.0000   -1.8660   46.5240 N.am   30  GLN30      -0.1966
     23  CA        23.8860   -2.2580   45.6670 C.3    30  GLN30       0.1733
     24  C         23.1640   -3.4530   46.2640 C.2    30  GLN30       0.2616
     25  O         23.8010   -4.4420   46.6390 O.2    30  GLN30      -0.2715
     26  CB        24.3690   -2.6150   44.2520 C.3    30  GLN30       0.0408
     27  CG        25.1060   -1.5100   43.5500 C.3    30  GLN30       0.0908
     28  CD        25.2790   -1.7950   42.0660 C.2    30  GLN30       0.2608
     29  OE1       24.6440   -2.6950   41.5210 O.2    30  GLN30      -0.2717
     30  NE2       26.1420   -1.0390   41.4160 N.am   30  GLN30      -0.0878
     31  N         21.8360   -3.3900   46.3160 N.am   31  GLN31      -0.1977
     32  CA        21.0800   -4.5700   46.7110 C.3    31  GLN31       0.1601
     33  C         20.9980   -5.4990   45.5120 C.2    31  GLN31       0.2287
     34  O         20.4770   -5.1040   44.4650 O.2    31  GLN31      -0.2864
     35  CB        19.6700   -4.2240   47.1910 C.3    31  GLN31       0.0394
     36  CG        18.9470   -5.4470   47.7840 C.3    31  GLN31       0.0908
     37  CD        17.4950   -5.1840   48.1800 C.2    31  GLN31       0.2608
     38  OE1       16.9960   -4.0700   48.0590 O.2    31  GLN31      -0.2717
     39  NE2       16.8170   -6.2230   48.6650 N.am   31  GLN31      -0.0878
     40  N         17.6660   -8.5200   42.4350 N.3    45  CYS45      -0.1221
     41  CA        17.1380   -7.1590   42.5090 C.3    45  CYS45       0.1808
     42  C         17.7660   -6.2650   41.4500 C.2    45  CYS45       0.2601
     43  O         18.9740   -6.3240   41.2150 O.2    45  CYS45      -0.2717
     44  CB        17.4110   -6.5110   43.8810 C.3    45  CYS45       0.0970
     45  SG        16.5590   -7.3210   45.1860 S.3    45  CYS45      -0.0800
     46  N         16.9410   -5.4200   40.8290 N.am   46  GLY46      -0.1957
     47  CA        17.4680   -4.3910   39.9420 C.3    46  GLY46       0.1869
     48  C         18.2080   -4.9640   38.7500 C.2    46  GLY46       0.2309
     49  O         17.7590   -5.9150   38.1020 O.2    46  GLY46      -0.2863
     50  N         19.0170    7.0470   49.2930 N.3   223  PRO223     -0.2102
     51  CA        18.9200    6.3810   47.9900 C.3   223  PRO223      0.1504
     52  C         17.7460    6.8630   47.1510 C.2   223  PRO223      0.2576
     53  O         16.7650    7.4090   47.6530 O.2   223  PRO223     -0.2718
     54  CB        18.7020    4.9130   48.3750 C.3   223  PRO223      0.0282
     55  CG        17.8560    5.0210   49.6300 C.3   223  PRO223      0.0208
     56  CD        18.4340    6.2280   50.3760 C.3   223  PRO223      0.0893
     57  N         17.8430    6.5860   45.8480 N.am  224  ASN224     -0.1961
     58  CA        16.6880    6.5700   44.9590 C.3   224  ASN224      0.1819
     59  C         16.2990    5.1240   44.6680 C.2   224  ASN224      0.2622
     60  O         17.0340    4.1910   44.9810 O.2   224  ASN224     -0.2715
     61  CB        16.9730    7.3210   43.6520 C.3   224  ASN224      0.1195
     62  CG        17.4540    8.7220   43.8870 C.2   224  ASN224      0.2630
     63  OD1       16.7130    9.5730   44.3930 O.2   224  ASN224     -0.2716
     64  ND2       18.7100    8.9790   43.5350 N.am  224  ASN224     -0.0877
     65  N         15.1310    4.9360   44.0460 N.am  225  SER225     -0.1936
     66  CA        14.6260    3.5700   43.9130 C.3   225  SER225      0.2055
     67  C         15.4110    2.7300   42.9120 C.2   225  SER225      0.2643
     68  O         15.2340    1.5060   42.8810 O.2   225  SER225     -0.2714
     69  CB        13.1380    3.5780   43.5420 C.3   225  SER225      0.2130
     70  OG        12.9320    4.0000   42.2020 O.3   225  SER225     -0.2179
     71  N         16.2690    3.3290   42.0940 N.am  226  ASP226     -0.1957
     72  CA        17.1060    2.5230   41.2120 C.3   226  ASP226      0.1840
     73  C         18.4540    2.1970   41.8320 C.2   226  ASP226      0.2622
     74  O         19.3110    1.6070   41.1630 O.2   226  ASP226     -0.2715
     75  CB        17.3210    3.2260   39.8700 C.3   226  ASP226      0.1450
     76  CG        18.1440    4.4930   39.9960 C.2   226  ASP226      0.3671
     77  OD1       18.1390    5.1020   41.0850 O.co2 226  ASP226     -0.2456
     78  OD2       18.7960    4.8880   38.9990 O.co2 226  ASP226     -0.2456
     79  N         18.6710    2.5770   43.0810 N.am  227  GLY227     -0.1954
     80  CA        19.9650    2.3630   43.6840 C.3   227  GLY227      0.1869
     81  C         20.9900    3.4260   43.3620 C.2   227  GLY227      0.2309
     82  O         22.1400    3.2980   43.7910 O.2   227  GLY227     -0.2863
     83  N         21.7960    7.5700   44.1070 N.3   229  PHE229     -0.1241
     84  CA        21.7570    8.2570   45.3930 C.3   229  PHE229      0.1605
     85  C         21.4480    9.7400   45.2360 C.2   229  PHE229      0.2264
     86  O         21.4340   10.3070   44.1310 O.2   229  PHE229     -0.2867
     87  CB        23.0770    8.0400   46.1510 C.3   229  PHE229      0.0534
     88  CG        23.3090    6.6090   46.4790 C.ar  229  PHE229     -0.0203
     89  CD1       22.7700    6.0690   47.6410 C.ar  229  PHE229     -0.0042
     90  CD2       23.9910    5.7860   45.6130 C.ar  229  PHE229     -0.0042
     91  CE1       22.9300    4.7300   47.9400 C.ar  229  PHE229     -0.0003
     92  CE2       24.1690    4.4340   45.9160 C.ar  229  PHE229     -0.0003
     93  CZ        23.6400    3.9130   47.0820 C.ar  229  PHE229     -0.0000
@<TRIPOS>BOND
     1    49    48    2
     2    48    47    1
     3    78    76   ar
     4    75    76    1
     5    75    72    1
     6    47    46    1
     7    76    77   ar
     8    46    42   am
     9    74    73    2
    10    72    73    1
    11    72    71    1
    12    43    42    2
    13    30    28   am
    14    42    41    1
    15    29    28    2
    16    73    79   am
    17    28    27    1
    18    71    67   am
    19    70    69    1
    20    40    41    1
    21    41    44    1
    22    68    67    2
    23    67    66    1
    24    79    80    1
    25    81    80    1
    26    81    82    2
    27    64    62   am
    28    69    66    1
    29    27    26    1
    30    61    62    1
    31    61    58    1
    32    44    45    1
    33    62    63    2
    34    66    65    1
    35    65    59   am
    36    83    84    1
    37    86    85    2
    38    26    23    1
    39    34    33    2
    40    59    58    1
    41    59    60    2
    42    58    57    1
    43    85    84    1
    44    84    87    1
    45    33    32    1
    46    90    92   ar
    47    90    88   ar
    48    23    24    1
    49    23    22    1
    50    57    52   am
    51    92    93   ar
    52    87    88    1
    53    24    31   am
    54    24    25    2
    55    31    32    1
    56    20    21    1
    57    20    19    1
    58    88    89   ar
    59    22    17   am
    60    32    35    1
    61    21    15    1
    62    93    91   ar
    63    52    53    2
    64    52    51    1
    65    35    36    1
    66    17    18    2
    67    17    16    1
    68    89    91   ar
    69    19    16    1
    70    15    16    1
    71    36    37    1
    72    51    54    1
    73    51    50    1
    74    38    37    2
    75    37    39   am
    76    54    55    1
    77     3     2    1
    78     3     4    2
    79     2     1    1
    80     2     5    1
    81    50    56    1
    82    13    11   ar
    83    13    14   ar
    84    11     8   ar
    85    55    56    1
    86    14    12   ar
    87     5     6    1
    88     8     6   ar
    89     8    10   ar
    90     6     7   ar
    91    12    10   ar
    92    10     9   ar
    93     7     9   ar
