@<TRIPOS>MOLECULE
tmp/6c99A00.pdb
 99 98 0 0 0
SMALL
GASTEIGER

@<TRIPOS>ATOM
      1  N         -5.5410  -21.5540  155.8160 N.3    24  SER24      -0.1217
      2  CA        -5.9970  -20.8340  156.9990 C.3    24  SER24       0.1889
      3  C         -7.4840  -21.0980  157.1520 C.2    24  SER24       0.2288
      4  O         -8.2130  -21.1890  156.1560 O.2    24  SER24      -0.2866
      5  CB        -5.7120  -19.3180  156.9130 C.3    24  SER24       0.2089
      6  OG        -6.2450  -18.7280  155.7260 O.3    24  SER24      -0.2183
      7  N        -11.1190  -20.0100  159.1850 N.3    26  TRP26      -0.1241
      8  CA       -11.7230  -18.7570  159.6220 C.3    26  TRP26       0.1605
      9  C        -13.0970  -19.0150  160.2220 C.2    26  TRP26       0.2264
     10  O        -13.9180  -19.7160  159.6270 O.2    26  TRP26      -0.2867
     11  CB       -11.8190  -17.7540  158.4450 C.3    26  TRP26       0.0550
     12  CG       -10.4460  -17.3520  157.9840 C.ar   26  TRP26       0.0003
     13  CD1       -9.6240  -18.0560  157.1360 C.ar   26  TRP26       0.0946
     14  CD2       -9.7020  -16.1980  158.3930 C.ar   26  TRP26       0.0152
     15  NE1       -8.4330  -17.3910  156.9710 N.ar   26  TRP26      -0.2442
     16  CE2       -8.4480  -16.2540  157.7360 C.ar   26  TRP26       0.0810
     17  CE3       -9.9840  -15.1060  159.2310 C.ar   26  TRP26       0.0012
     18  CZ2       -7.4810  -15.2640  157.8920 C.ar   26  TRP26       0.0191
     19  CZ3       -9.0310  -14.1260  159.3850 C.ar   26  TRP26       0.0001
     20  CH2       -7.7890  -14.2110  158.7290 C.ar   26  TRP26       0.0015
     21  N        -14.7410  -13.4230  160.8280 N.3    29  PRO29      -0.2102
     22  CA       -13.5090  -12.6850  160.5220 C.3    29  PRO29       0.1504
     23  C        -12.2870  -13.1170  161.3240 C.2    29  PRO29       0.2576
     24  O        -11.2350  -12.4800  161.1640 O.2    29  PRO29      -0.2718
     25  CB       -13.8990  -11.2410  160.8630 C.3    29  PRO29       0.0282
     26  CG       -14.7680  -11.4310  162.1220 C.3    29  PRO29       0.0208
     27  CD       -15.5570  -12.7250  161.8470 C.3    29  PRO29       0.0893
     28  N        -12.3790  -14.1550  162.1770 N.am   30  GLN30      -0.1966
     29  CA       -11.2730  -14.5980  163.0280 C.3    30  GLN30       0.1733
     30  C        -10.5770  -15.8050  162.4220 C.2    30  GLN30       0.2616
     31  O        -11.2310  -16.8090  162.1090 O.2    30  GLN30      -0.2715
     32  CB       -11.7400  -14.9860  164.4550 C.3    30  GLN30       0.0408
     33  CG       -12.3250  -13.8620  165.2660 C.3    30  GLN30       0.0908
     34  CD       -12.6010  -14.2680  166.7050 C.2    30  GLN30       0.2608
     35  OE1      -11.9570  -15.1760  167.2450 O.2    30  GLN30      -0.2717
     36  NE2      -13.5820  -13.6210  167.3170 N.am   30  GLN30      -0.0878
     37  N         -9.2420  -15.7550  162.3450 N.am   31  GLN31      -0.1977
     38  CA        -8.4850  -16.9610  162.0090 C.3    31  GLN31       0.1601
     39  C         -8.4630  -17.9240  163.2000 C.2    31  GLN31       0.2287
     40  O         -7.9710  -17.5760  164.2790 O.2    31  GLN31      -0.2864
     41  CB        -7.0540  -16.6240  161.5950 C.3    31  GLN31       0.0394
     42  CG        -6.3100  -17.8700  161.1230 C.3    31  GLN31       0.0908
     43  CD        -4.8590  -17.6300  160.7060 C.2    31  GLN31       0.2608
     44  OE1       -4.3050  -16.5630  160.9560 O.2    31  GLN31      -0.2717
     45  NE2       -4.2420  -18.6340  160.0730 N.am   31  GLN31      -0.0878
     46  N         -5.1550  -21.1690  166.3710 N.3    45  CYS45      -0.1221
     47  CA        -4.5940  -19.8290  166.3570 C.3    45  CYS45       0.1808
     48  C         -5.1490  -18.9860  167.4970 C.2    45  CYS45       0.2601
     49  O         -6.3600  -18.9680  167.7440 O.2    45  CYS45      -0.2717
     50  CB        -4.8950  -19.1070  165.0340 C.3    45  CYS45       0.0970
     51  SG        -4.1430  -19.8840  163.5830 S.3    45  CYS45      -0.0800
     52  N         -4.2620  -18.2320  168.1340 N.am   46  GLY46      -0.1957
     53  CA        -4.7130  -17.2020  169.0580 C.3    46  GLY46       0.1869
     54  C         -5.5440  -17.8010  170.1730 C.2    46  GLY46       0.2309
     55  O         -5.1960  -18.8400  170.7420 O.2    46  GLY46      -0.2863
     56  N         -6.2380   -5.4980  159.3350 N.3   225  PRO225     -0.2102
     57  CA        -6.0820   -6.1550  160.6440 C.3   225  PRO225      0.1504
     58  C         -4.8690   -5.6580  161.4110 C.2   225  PRO225      0.2576
     59  O         -3.9150   -5.1110  160.8530 O.2   225  PRO225     -0.2718
     60  CB        -5.8950   -7.6320  160.2800 C.3   225  PRO225      0.0282
     61  CG        -5.2330   -7.5680  158.8890 C.3   225  PRO225      0.0208
     62  CD        -5.7000   -6.2980  158.2270 C.3   225  PRO225      0.0893
     63  N         -4.9310   -5.8650  162.7260 N.am  226  ASN226     -0.1961
     64  CA        -3.7570   -5.8330  163.5790 C.3   226  ASN226      0.1819
     65  C         -3.3090   -7.2690  163.8420 C.2   226  ASN226      0.2622
     66  O         -3.9960   -8.2380  163.5000 O.2   226  ASN226     -0.2715
     67  CB        -4.0260   -5.0930  164.9020 C.3   226  ASN226      0.1195
     68  CG        -4.4600   -3.6610  164.6820 C.2   226  ASN226      0.2630
     69  OD1       -3.7170   -2.8560  164.1090 O.2   226  ASN226     -0.2716
     70  ND2       -5.6820   -3.3360  165.1080 N.am  226  ASN226     -0.0877
     71  N         -2.1270   -7.4000  164.4430 N.am  227  SER227     -0.1936
     72  CA        -1.5190   -8.7240  164.5760 C.3   227  SER227      0.2055
     73  C         -2.2360   -9.6060  165.5950 C.2   227  SER227      0.2643
     74  O         -2.0480  -10.8260  165.5750 O.2   227  SER227     -0.2714
     75  CB        -0.0370   -8.5980  164.9470 C.3   227  SER227      0.2130
     76  OG         0.1260   -7.9050  166.1670 O.3   227  SER227     -0.2179
     77  N         -3.0910   -9.0390  166.4430 N.am  228  ASP228     -0.1957
     78  CA        -3.8800   -9.8370  167.3820 C.3   228  ASP228      0.1840
     79  C         -5.2690  -10.1920  166.8490 C.2   228  ASP228      0.2622
     80  O         -6.0880  -10.7350  167.5960 O.2   228  ASP228     -0.2715
     81  CB        -4.0040   -9.1140  168.7300 C.3   228  ASP228      0.1450
     82  CG        -4.7530   -7.7920  168.6340 C.2   228  ASP228      0.3671
     83  OD1       -5.0560   -7.3390  167.5130 O.co2 228  ASP228     -0.2456
     84  OD2       -5.0420   -7.1890  169.6940 O.co2 228  ASP228     -0.2456
     85  N         -5.5570   -9.8940  165.5850 N.am  229  GLY229     -0.1954
     86  CA        -6.8710  -10.1490  165.0360 C.3   229  GLY229      0.1869
     87  C         -7.9140   -9.0850  165.3210 C.2   229  GLY229      0.2309
     88  O         -9.0710   -9.2660  164.9170 O.2   229  GLY229     -0.2863
     89  N         -8.8010   -4.8980  164.5810 N.3   231  PHE231     -0.1241
     90  CA        -8.8240   -4.2090  163.2980 C.3   231  PHE231      0.1605
     91  C         -8.5290   -2.7220  163.4350 C.2   231  PHE231      0.2264
     92  O         -8.5040   -2.1330  164.5280 O.2   231  PHE231     -0.2867
     93  CB       -10.1740   -4.4500  162.5910 C.3   231  PHE231      0.0534
     94  CG       -10.3460   -5.8690  162.1550 C.ar  231  PHE231     -0.0203
     95  CD1       -9.8580   -6.2910  160.9210 C.ar  231  PHE231     -0.0042
     96  CD2      -10.9310   -6.8000  162.9980 C.ar  231  PHE231     -0.0042
     97  CE1      -10.0000   -7.6130  160.5240 C.ar  231  PHE231     -0.0003
     98  CE2      -11.0600   -8.1120  162.6230 C.ar  231  PHE231     -0.0003
     99  CZ       -10.6090   -8.5290  161.3810 C.ar  231  PHE231     -0.0000
@<TRIPOS>BOND
     1     6     5    1
     2     1     2    1
     3     4     3    2
     4     5     2    1
     5    15    13   ar
     6    15    16   ar
     7     2     3    1
     8    13    12   ar
     9    16    18   ar
    10    16    14   ar
    11    18    20   ar
    12    12    14   ar
    13    12    11    1
    14    62    61    1
    15    62    56    1
    16    14    17   ar
    17    11     8    1
    18    20    19   ar
    19    61    60    1
    20     7     8    1
    21    17    19   ar
    22    56    57    1
    23     8     9    1
    24    10     9    2
    25    45    43   am
    26    60    57    1
    27    22    21    1
    28    22    25    1
    29    22    23    1
    30    97    95   ar
    31    97    99   ar
    32    57    58    1
    33    43    44    2
    34    43    42    1
    35    21    27    1
    36    59    58    2
    37    25    26    1
    38    95    94   ar
    39    42    41    1
    40    24    23    2
    41    23    28   am
    42    99    98   ar
    43    58    63   am
    44    41    38    1
    45    27    26    1
    46    38    37    1
    47    38    39    1
    48    31    30    2
    49    94    93    1
    50    94    96   ar
    51    28    29    1
    52    37    30   am
    53    30    29    1
    54    93    90    1
    55    98    96   ar
    56    63    64    1
    57    29    32    1
    58    39    40    2
    59    90    91    1
    60    90    89    1
    61    91    92    2
    62    66    65    2
    63    64    65    1
    64    64    67    1
    65    51    50    1
    66    65    71   am
    67    69    68    2
    68    71    72    1
    69    32    33    1
    70    72    75    1
    71    72    73    1
    72    68    67    1
    73    68    70   am
    74    88    87    2
    75    75    76    1
    76    50    47    1
    77    86    87    1
    78    86    85    1
    79    33    34    1
    80    74    73    2
    81    85    79   am
    82    73    77   am
    83    47    46    1
    84    47    48    1
    85    77    78    1
    86    34    35    2
    87    34    36   am
    88    79    78    1
    89    79    80    2
    90    78    81    1
    91    48    49    2
    92    48    52   am
    93    83    82   ar
    94    52    53    1
    95    82    81    1
    96    82    84   ar
    97    53    54    1
    98    54    55    2
