@<TRIPOS>MOLECULE
tmp/6c9aB00.pdb
 145 135 0 0 0
SMALL
GASTEIGER

@<TRIPOS>ATOM
      1  N        102.3010  138.6810  147.3730 N.3    20  ASN20      -0.1240
      2  CA       103.2250  139.8160  147.4880 C.3    20  ASN20       0.1653
      3  C        102.5070  141.1320  147.2460 C.2    20  ASN20       0.2266
      4  O        102.7620  141.8430  146.2750 O.2    20  ASN20      -0.2867
      5  CB       104.4220  139.6820  146.5540 C.3    20  ASN20       0.1155
      6  CG       105.5370  140.6570  146.8850 C.2    20  ASN20       0.2627
      7  OD1      105.4760  141.3850  147.8660 O.2    20  ASN20      -0.2716
      8  ND2      106.5470  140.6950  146.0420 N.am   20  ASN20      -0.0877
      9  N        101.1610  144.7800  149.0710 N.3    22  LYS22      -0.1245
     10  CA       101.6200  145.6380  150.1560 C.3    22  LYS22       0.1561
     11  C        100.5460  145.7810  151.2270 C.2    22  LYS22       0.2260
     12  O         99.3530  145.6830  150.9580 O.2    22  LYS22      -0.2867
     13  CB       102.0150  147.0080  149.6170 C.3    22  LYS22       0.0271
     14  CG       103.1260  146.9480  148.5960 C.3    22  LYS22       0.0035
     15  CD       104.4030  146.4150  149.2160 C.3    22  LYS22       0.0206
     16  CE       105.5310  146.3590  148.2040 C.3    22  LYS22       0.1093
     17  NZ       106.7670  145.7700  148.7790 N.3    22  LYS22      -0.1314
     18  N        102.0740  153.8330  141.5360 N.3   106  HIS106     -0.1226
     19  CA       102.5030  152.4920  141.1600 C.3   106  HIS106      0.1752
     20  C        102.8340  152.5300  139.6770 C.2   106  HIS106      0.2596
     21  O        101.9370  152.6900  138.8470 O.2   106  HIS106     -0.2718
     22  CB       101.4120  151.4750  141.4700 C.3   106  HIS106      0.0759
     23  CG       101.8270  150.0550  141.2610 C.ar  106  HIS106      0.0818
     24  ND1      102.6970  149.4050  142.1060 N.ar  106  HIS106     -0.2268
     25  CD2      101.4740  149.1530  140.3180 C.ar  106  HIS106      0.1154
     26  CE1      102.8720  148.1660  141.6850 C.ar  106  HIS106      0.1986
     27  NE2      102.1410  147.9880  140.6020 N.ar  106  HIS106     -0.2212
     28  N        104.1170  152.3670  139.3490 N.am  107  LYS107     -0.1966
     29  CA       104.6150  152.7460  138.0290 C.3   107  LYS107      0.1728
     30  C        104.1280  151.8230  136.9230 C.2   107  LYS107      0.2616
     31  O        103.9090  152.2810  135.7960 O.2   107  LYS107     -0.2715
     32  CB       106.1350  152.7690  138.0370 C.3   107  LYS107      0.0311
     33  CG       106.7220  153.8300  138.9230 C.3   107  LYS107      0.0038
     34  CD       108.2200  153.7670  138.8750 C.3   107  LYS107      0.0206
     35  CE       108.8430  154.7480  139.8290 C.3   107  LYS107      0.1093
     36  NZ       110.3220  154.6230  139.7870 N.3   107  LYS107     -0.1314
     37  N        103.9410  150.5400  137.2220 N.am  108  ARG108     -0.1977
     38  CA       103.5840  149.5750  136.1900 C.3   108  ARG108      0.1597
     39  C        102.1760  149.8150  135.6670 C.2   108  ARG108      0.2287
     40  O        101.9330  149.7180  134.4590 O.2   108  ARG108     -0.2864
     41  CB       103.7240  148.1710  136.7540 C.3   108  ARG108      0.0334
     42  CG       103.6320  147.0430  135.7790 C.3   108  ARG108      0.0492
     43  CD       103.8640  145.7930  136.5790 C.3   108  ARG108      0.2205
     44  NE       102.7400  145.5220  137.4600 N.pl3 108  ARG108     -0.0865
     45  CZ       102.8240  144.8120  138.5760 C.cat 108  ARG108      0.5346
     46  NH1      103.9900  144.3580  138.9760 N.pl3 108  ARG108      0.1354
     47  NH2      101.7520  144.5940  139.3200 N.pl3 108  ARG108      0.1354
     48  N        102.2370  153.0580  133.3700 N.3   111  VAL111     -0.1245
     49  CA       102.7280  152.7670  132.0250 C.3   111  VAL111      0.1561
     50  C        101.6940  151.9580  131.2510 C.2   111  VAL111      0.2260
     51  O        101.4990  152.1590  130.0440 O.2   111  VAL111     -0.2867
     52  CB       104.0880  152.0520  132.1010 C.3   111  VAL111      0.0252
     53  CG1      104.6100  151.7290  130.7270 C.3   111  VAL111      0.0019
     54  CG2      105.0810  152.9210  132.8120 C.3   111  VAL111      0.0019
     55  N        100.0770  153.1690  127.5980 N.3   115  VAL115     -0.1245
     56  CA       100.0170  152.2720  126.4480 C.3   115  VAL115      0.1561
     57  C         98.5680  152.0000  126.0550 C.2   115  VAL115      0.2260
     58  O         98.2520  151.8990  124.8640 O.2   115  VAL115     -0.2867
     59  CB       100.8030  150.9830  126.7580 C.3   115  VAL115      0.0252
     60  CG1      100.6820  149.9650  125.6500 C.3   115  VAL115      0.0019
     61  CG2      102.2550  151.3110  126.9540 C.3   115  VAL115      0.0019
     62  N        104.5970  147.1870  122.0710 N.3   140  LEU140     -0.1245
     63  CA       104.4310  147.4200  123.4930 C.3   140  LEU140      0.1561
     64  C        103.2810  146.6300  124.0920 C.2   140  LEU140      0.2260
     65  O        102.9970  146.7930  125.2780 O.2   140  LEU140     -0.2867
     66  CB       104.2160  148.9060  123.7580 C.3   140  LEU140      0.0270
     67  CG       105.3970  149.8100  123.4320 C.3   140  LEU140      0.0019
     68  CD1      104.9960  151.2520  123.5980 C.3   140  LEU140      0.0001
     69  CD2      106.5720  149.4850  124.3170 C.3   140  LEU140      0.0001
     70  N        103.0880  144.2870  127.5790 N.3   143  ILE143     -0.1245
     71  CA       102.8760  144.7350  128.9460 C.3   143  ILE143      0.1561
     72  C        101.5030  144.3060  129.4470 C.2   143  ILE143      0.2260
     73  O        101.2390  144.3280  130.6510 O.2   143  ILE143     -0.2867
     74  CB       103.0900  146.2580  129.0210 C.3   143  ILE143      0.0252
     75  CG1      103.3390  146.7170  130.4570 C.3   143  ILE143      0.0019
     76  CG2      101.9140  146.9890  128.4440 C.3   143  ILE143      0.0019
     77  CD1      103.8660  148.1040  130.5660 C.3   143  ILE143      0.0001
     78  N        107.2250  138.1860  134.9090 N.3   155  ARG155     -0.1231
     79  CA       107.4970  139.5870  135.1960 C.3   155  ARG155      0.1694
     80  C        108.7430  139.7600  136.0390 C.2   155  ARG155      0.2591
     81  O        109.5540  140.6580  135.7850 O.2   155  ARG155     -0.2718
     82  CB       106.3050  140.1850  135.9140 C.3   155  ARG155      0.0321
     83  CG       106.4520  141.6180  136.2730 C.3   155  ARG155      0.0489
     84  CD       105.1630  142.1270  136.8290 C.3   155  ARG155      0.2205
     85  NE       104.7920  141.4440  138.0630 N.pl3 155  ARG155     -0.0865
     86  CZ       103.7010  140.7060  138.2050 C.cat 155  ARG155      0.5346
     87  NH1      103.4410  140.1180  139.3540 N.pl3 155  ARG155      0.1354
     88  NH2      102.8690  140.5600  137.1930 N.pl3 155  ARG155      0.1354
     89  N        108.9120  138.9100  137.0460 N.am  156  ARG156     -0.1980
     90  CA       110.0940  138.9980  137.8840 C.3   156  ARG156      0.1597
     91  C        111.3450  138.5960  137.1260 C.2   156  ARG156      0.2287
     92  O        112.3860  139.2360  137.2840 O.2   156  ARG156     -0.2864
     93  CB       109.8870  138.1410  139.1190 C.3   156  ARG156      0.0334
     94  CG       108.7600  138.6650  139.9500 C.3   156  ARG156      0.0492
     95  CD       108.3570  137.7240  141.0390 C.3   156  ARG156      0.2205
     96  NE       107.1530  138.2090  141.6900 N.pl3 156  ARG156     -0.0865
     97  CZ       106.4460  137.5110  142.5640 C.cat 156  ARG156      0.5346
     98  NH1      105.3570  138.0330  143.0970 N.pl3 156  ARG156      0.1354
     99  NH2      106.8130  136.2850  142.8850 N.pl3 156  ARG156      0.1354
    100  N        112.3260  141.5530  135.0070 N.3   159  ARG159     -0.1245
    101  CA       112.8280  142.6750  135.7910 C.3   159  ARG159      0.1563
    102  C        114.2540  142.4380  136.2550 C.2   159  ARG159      0.2260
    103  O        115.0710  143.3590  136.2500 O.2   159  ARG159     -0.2867
    104  CB       111.9350  142.9270  136.9960 C.3   159  ARG159      0.0307
    105  CG       112.3140  144.1680  137.7430 C.3   159  ARG159      0.0489
    106  CD       111.5500  144.3250  139.0140 C.3   159  ARG159      0.2205
    107  NE       110.1240  144.4200  138.7900 N.pl3 159  ARG159     -0.0865
    108  CZ       109.2500  143.5610  139.2800 C.cat 159  ARG159      0.5346
    109  NH1      109.6610  142.5600  140.0320 N.pl3 159  ARG159      0.1354
    110  NH2      107.9640  143.7140  139.0360 N.pl3 159  ARG159      0.1354
    111  N        116.6890  143.0800  133.3330 N.3   162  PHE162     -0.1227
    112  CA       116.9800  144.4960  133.1400 C.3   162  PHE162      0.1736
    113  C        117.6810  145.1320  134.3300 C.2   162  PHE162      0.2595
    114  O        118.2710  146.2010  134.1770 O.2   162  PHE162     -0.2718
    115  CB       115.7090  145.2730  132.8330 C.3   162  PHE162      0.0547
    116  CG       115.2110  145.0800  131.4450 C.ar  162  PHE162     -0.0202
    117  CD1      115.7820  145.7700  130.4020 C.ar  162  PHE162     -0.0042
    118  CD2      114.1720  144.2200  131.1820 C.ar  162  PHE162     -0.0042
    119  CE1      115.3290  145.6000  129.1280 C.ar  162  PHE162     -0.0003
    120  CE2      113.7170  144.0480  129.9080 C.ar  162  PHE162     -0.0003
    121  CZ       114.2950  144.7390  128.8820 C.ar  162  PHE162     -0.0000
    122  N        117.6390  144.5170  135.5040 N.am  163  GLN163     -0.1979
    123  CA       118.4170  145.0250  136.6220 C.3   163  GLN163      0.1601
    124  C        119.8410  144.4950  136.6480 C.2   163  GLN163      0.2287
    125  O        120.6650  145.0370  137.3860 O.2   163  GLN163     -0.2864
    126  CB       117.7380  144.6840  137.9420 C.3   163  GLN163      0.0394
    127  CG       116.5100  145.4870  138.2460 C.3   163  GLN163      0.0908
    128  CD       115.8740  145.0620  139.5450 C.2   163  GLN163      0.2608
    129  OE1      116.2800  144.0780  140.1480 O.2   163  GLN163     -0.2717
    130  NE2      114.8870  145.8150  139.9950 N.am  163  GLN163     -0.0878
    131  N        115.6240  139.0320  146.0610 N.3   266  LYS266     -0.1245
    132  CA       114.1870  138.9680  145.8110 C.3   266  LYS266      0.1561
    133  C        113.5390  137.8420  146.6010 C.2   266  LYS266      0.2260
    134  O        112.4350  138.0090  147.1310 O.2   266  LYS266     -0.2867
    135  CB       113.9140  138.7960  144.3230 C.3   266  LYS266      0.0271
    136  CG       112.4530  138.7530  143.9730 C.3   266  LYS266      0.0035
    137  CD       111.8220  140.0840  144.2380 C.3   266  LYS266      0.0206
    138  CE       110.3770  140.0960  143.8450 C.3   266  LYS266      0.1093
    139  NZ       109.7610  141.3830  144.2150 N.3   266  LYS266     -0.1314
    140  N        113.1880  139.0250  150.2230 N.3   269  SER269     -0.1217
    141  CA       112.0540  139.9080  150.4640 C.3   269  SER269      0.1889
    142  C        110.7250  139.1760  150.3620 C.2   269  SER269      0.2288
    143  O        109.7470  139.5890  150.9930 O.2   269  SER269     -0.2866
    144  CB       112.0790  141.0790  149.4980 C.3   269  SER269      0.2089
    145  OG       111.8280  140.6350  148.1890 O.3   269  SER269     -0.2183
@<TRIPOS>BOND
     1    62    63    1
     2    67    68    1
     3    67    66    1
     4    67    69    1
     5    63    66    1
     6    63    64    1
     7    64    65    2
     8    58    57    2
     9    60    59    1
    10    57    56    1
    11    56    59    1
    12    56    55    1
    13    59    61    1
    14    70    71    1
    15    76    74    1
    16   121   119   ar
    17   121   120   ar
    18    71    74    1
    19    71    72    1
    20    74    75    1
    21   119   117   ar
    22    72    73    2
    23   120   118   ar
    24    51    50    2
    25   117   116   ar
    26    75    77    1
    27    53    52    1
    28   118   116   ar
    29    50    49    1
    30   116   115    1
    31    49    52    1
    32    49    48    1
    33    52    54    1
    34   115   112    1
    35   112   111    1
    36   112   113    1
    37   114   113    2
    38   113   122   am
    39    40    39    2
    40    78    79    1
    41   100   101    1
    42    79    82    1
    43    79    80    1
    44   122   123    1
    45    39    38    1
    46    42    43    1
    47    42    41    1
    48    81    80    2
    49   101   102    1
    50   101   104    1
    51    31    30    2
    52    82    83    1
    53    80    89   am
    54    38    41    1
    55    38    37    1
    56   103   102    2
    57    83    84    1
    58    43    44    1
    59   123   124    1
    60   123   126    1
    61   124   125    2
    62    84    85    1
    63    30    37   am
    64    30    29    1
    65   104   105    1
    66    89    90    1
    67    91    92    2
    68    91    90    1
    69    88    86    1
    70    44    45    2
    71   105   106    1
    72    90    93    1
    73   126   127    1
    74    29    32    1
    75    29    28    1
    76    32    33    1
    77    85    86    2
    78    86    87    1
    79   127   128    1
    80    45    46    1
    81    45    47    1
    82   107   106    1
    83   107   108    2
    84    21    20    2
    85    34    33    1
    86    34    35    1
    87   110   108    1
    88    93    94    1
    89   108   109    1
    90    28    20   am
    91   128   130   am
    92   128   129    2
    93    20    19    1
    94    36    35    1
    95    94    95    1
    96    25    27   ar
    97    25    23   ar
    98    27    26   ar
    99    95    96    1
   100    19    22    1
   101    19    18    1
   102    23    22    1
   103    23    24   ar
   104    26    24   ar
   105    96    97    2
   106    97    99    1
   107    97    98    1
   108   138   139    1
   109   138   137    1
   110   136   137    1
   111   136   135    1
   112   135   132    1
   113   132   131    1
   114   132   133    1
   115     8     6   am
   116     4     3    2
   117     5     6    1
   118     5     2    1
   119   133   134    2
   120     6     7    2
   121     3     2    1
   122     1     2    1
   123   145   144    1
   124    16    17    1
   125    16    15    1
   126    14    15    1
   127    14    13    1
   128     9    10    1
   129   144   141    1
   130    13    10    1
   131    10    11    1
   132   140   141    1
   133   142   141    1
   134   142   143    2
   135    12    11    2
