@<TRIPOS>MOLECULE
tmp/6c9bB00.pdb
 102 94 0 0 0
SMALL
GASTEIGER

@<TRIPOS>ATOM
      1  N        -25.3820   15.3010  -30.4240 N.3     6  THR6       -0.1218
      2  CA       -26.1860   14.2540  -31.0470 C.3     6  THR6        0.1862
      3  C        -27.2120   14.8470  -32.0070 C.2     6  THR6        0.2287
      4  O        -27.4820   14.2760  -33.0690 O.2     6  THR6       -0.2866
      5  CB       -26.8530   13.4110  -29.9550 C.3     6  THR6        0.1770
      6  OG1      -25.8230   12.8100  -29.1580 O.3     6  THR6       -0.2211
      7  CG2      -27.7640   12.3010  -30.5420 C.3     6  THR6        0.0375
      8  N        -25.6700   15.4260  -35.0740 N.3     9  GLU9       -0.1245
      9  CA       -25.4310   14.1660  -35.7660 C.3     9  GLU9        0.1567
     10  C        -26.6900   13.6390  -36.4540 C.2     9  GLU9        0.2260
     11  O        -26.5740   12.9480  -37.4650 O.2     9  GLU9       -0.2867
     12  CB       -24.8570   13.1310  -34.7940 C.3     9  GLU9        0.0388
     13  CG       -23.4740   13.5480  -34.2570 C.3     9  GLU9        0.1160
     14  CD       -22.8830   12.5920  -33.2200 C.2     9  GLU9        0.3649
     15  OE1      -23.5950   11.7240  -32.6890 O.co2   9  GLU9       -0.2457
     16  OE2      -21.6750   12.7010  -32.9510 O.co2   9  GLU9       -0.2457
     17  N        -19.4990    9.5040  -34.6330 N.3    22  GLY22      -0.1210
     18  CA       -18.2690    8.7570  -34.5330 C.3    22  GLY22       0.1956
     19  C        -18.3950    7.2740  -34.7310 C.2    22  GLY22       0.2611
     20  O        -17.3780    6.5760  -34.6740 O.2    22  GLY22      -0.2717
     21  N        -19.6040    6.7740  -34.9950 N.am   23  HIS23      -0.1975
     22  CA       -19.8100    5.3490  -35.1700 C.3    23  HIS23       0.1656
     23  C        -19.0090    4.8350  -36.3620 C.2    23  HIS23       0.2291
     24  O        -18.6400    5.5840  -37.2740 O.2    23  HIS23      -0.2864
     25  CB       -21.2860    5.0420  -35.3930 C.3    23  HIS23       0.0771
     26  CG       -22.1480    5.4090  -34.2240 C.ar   23  HIS23       0.0820
     27  ND1      -23.4060    4.8830  -34.0330 N.ar   23  HIS23      -0.2267
     28  CD2      -21.9350    6.2600  -33.1900 C.ar   23  HIS23       0.1154
     29  CE1      -23.9300    5.3860  -32.9280 C.ar   23  HIS23       0.1986
     30  NE2      -23.0560    6.2190  -32.3940 N.ar   23  HIS23      -0.2212
     31  N        -23.9590    4.7810  -23.2610 N.3    85  SER85      -0.1217
     32  CA       -24.7940    5.8410  -22.6860 C.3    85  SER85       0.1889
     33  C        -25.8460    5.2990  -21.7240 C.2    85  SER85       0.2288
     34  O        -26.1860    5.9820  -20.7530 O.2    85  SER85      -0.2866
     35  CB       -25.4870    6.6420  -23.7740 C.3    85  SER85       0.2089
     36  OG       -24.5330    7.3150  -24.5750 O.3    85  SER85      -0.2183
     37  N        -17.0330   14.1100  -24.6380 N.3   109  PHE109     -0.1241
     38  CA       -18.2790   13.8520  -25.3510 C.3   109  PHE109      0.1605
     39  C        -19.4550   14.3510  -24.5040 C.2   109  PHE109      0.2264
     40  O        -19.5520   14.0330  -23.3120 O.2   109  PHE109     -0.2867
     41  CB       -18.3930   12.3530  -25.6390 C.3   109  PHE109      0.0534
     42  CG       -19.7130   11.9390  -26.2100 C.ar  109  PHE109     -0.0203
     43  CD1      -20.3560   12.7260  -27.1570 C.ar  109  PHE109     -0.0042
     44  CD2      -20.3090   10.7530  -25.8010 C.ar  109  PHE109     -0.0042
     45  CE1      -21.5850   12.3440  -27.6870 C.ar  109  PHE109     -0.0003
     46  CE2      -21.5210   10.3540  -26.3340 C.ar  109  PHE109     -0.0003
     47  CZ       -22.1670   11.1580  -27.2740 C.ar  109  PHE109     -0.0000
     48  N        -22.5810   14.0350  -24.0170 N.3   111  ASN111     -0.1240
     49  CA       -23.7020   13.4060  -23.3520 C.3   111  ASN111      0.1653
     50  C        -23.3020   12.9170  -21.9590 C.2   111  ASN111      0.2266
     51  O        -24.1810   12.7870  -21.1020 O.2   111  ASN111     -0.2867
     52  CB       -24.3330   12.3150  -24.2120 C.3   111  ASN111      0.1155
     53  CG       -23.6580   11.0150  -24.1080 C.2   111  ASN111      0.2627
     54  OD1      -22.4750   10.9250  -23.7930 O.2   111  ASN111     -0.2716
     55  ND2      -24.4080    9.9610  -24.4120 N.am  111  ASN111     -0.0877
     56  N        -12.5400   11.6150  -26.0260 N.3   154  ASN154     -0.1240
     57  CA       -13.3190   12.0230  -27.1980 C.3   154  ASN154      0.1653
     58  C        -13.6580   13.4690  -26.9220 C.2   154  ASN154      0.2266
     59  O        -14.4180   13.7360  -25.9830 O.2   154  ASN154     -0.2867
     60  CB       -14.5780   11.1670  -27.3060 C.3   154  ASN154      0.1155
     61  CG       -15.4400   11.5290  -28.4650 C.2   154  ASN154      0.2627
     62  OD1      -15.1550   12.4600  -29.2230 O.2   154  ASN154     -0.2716
     63  ND2      -16.4810   10.7500  -28.6510 N.am  154  ASN154     -0.0877
     64  N        -12.9960    4.5210  -26.4970 N.3   185  PHE185     -0.1241
     65  CA       -11.9940    4.5880  -27.5490 C.3   185  PHE185      0.1605
     66  C        -10.7870    3.6920  -27.2590 C.2   185  PHE185      0.2264
     67  O         -9.7960    3.7590  -27.9890 O.2   185  PHE185     -0.2867
     68  CB       -11.5200    6.0340  -27.7460 C.3   185  PHE185      0.0534
     69  CG       -12.4360    6.9170  -28.5770 C.ar  185  PHE185     -0.0203
     70  CD1      -13.6140    6.4560  -29.1280 C.ar  185  PHE185     -0.0042
     71  CD2      -12.0530    8.2360  -28.8380 C.ar  185  PHE185     -0.0042
     72  CE1      -14.4150    7.3050  -29.9200 C.ar  185  PHE185     -0.0003
     73  CE2      -12.8340    9.0690  -29.6030 C.ar  185  PHE185     -0.0003
     74  CZ       -14.0210    8.5950  -30.1570 C.ar  185  PHE185     -0.0000
     75  N        -24.0470   -3.5800  -30.2870 N.3   222  LYS222     -0.1245
     76  CA       -22.9740   -3.2380  -29.3710 C.3   222  LYS222      0.1561
     77  C        -23.4350   -3.4880  -27.9440 C.2   222  LYS222      0.2260
     78  O        -24.6060   -3.7750  -27.6850 O.2   222  LYS222     -0.2867
     79  CB       -22.5930   -1.7720  -29.5350 C.3   222  LYS222      0.0271
     80  CG       -23.7320   -0.8200  -29.1240 C.3   222  LYS222      0.0035
     81  CD       -23.6720    0.5360  -29.7580 C.3   222  LYS222      0.0206
     82  CE       -24.9530    1.3090  -29.4320 C.3   222  LYS222      0.1093
     83  NZ       -24.8320    2.7000  -29.9370 N.3   222  LYS222     -0.1314
     84  N        -19.1060   17.9900  -37.6680 N.3   327  LEU327     -0.1245
     85  CA       -19.6360   18.3150  -36.3520 C.3   327  LEU327      0.1561
     86  C        -18.9330   19.5450  -35.7900 C.2   327  LEU327      0.2260
     87  O        -17.6970   19.5270  -35.6280 O.2   327  LEU327     -0.2867
     88  CB       -19.4530   17.1070  -35.4380 C.3   327  LEU327      0.0270
     89  CG       -20.2760   16.9610  -34.1850 C.3   327  LEU327      0.0019
     90  CD1      -21.7280   16.9400  -34.5520 C.3   327  LEU327      0.0001
     91  CD2      -19.8490   15.6600  -33.4880 C.3   327  LEU327      0.0001
     92  N        -15.1200   18.6920  -35.9830 N.3   345  ARG345     -0.1245
     93  CA       -14.6600   17.3210  -35.7980 C.3   345  ARG345      0.1563
     94  C        -15.0810   16.4910  -37.0000 C.2   345  ARG345      0.2260
     95  O        -16.2150   16.6010  -37.4710 O.2   345  ARG345     -0.2867
     96  CB       -15.2250   16.6970  -34.5080 C.3   345  ARG345      0.0307
     97  CG       -14.4430   15.4890  -34.0410 C.3   345  ARG345      0.0489
     98  CD       -15.1880   14.6860  -32.9640 C.3   345  ARG345      0.2205
     99  NE       -16.3360   13.9850  -33.5460 N.pl3 345  ARG345     -0.0865
    100  CZ       -17.0640   13.0640  -32.9090 C.cat 345  ARG345      0.5346
    101  NH1      -18.0800   12.4830  -33.5240 N.pl3 345  ARG345      0.1354
    102  NH2      -16.7830   12.7190  -31.6550 N.pl3 345  ARG345      0.1354
@<TRIPOS>BOND
     1    84    85    1
     2    95    94    2
     3    11    10    2
     4    24    23    2
     5    94    93    1
     6    10     9    1
     7    23    22    1
     8    85    86    1
     9    85    88    1
    10    92    93    1
    11    93    96    1
    12    86    87    2
    13     9     8    1
    14     9    12    1
    15    88    89    1
    16    25    22    1
    17    25    26    1
    18    22    21    1
    19    21    19   am
    20    12    13    1
    21    19    20    2
    22    19    18    1
    23    17    18    1
    24    90    89    1
    25    96    97    1
    26    13    14    1
    27    26    27   ar
    28    26    28   ar
    29    89    91    1
    30    97    98    1
    31    27    29   ar
    32    99    98    1
    33    99   100    2
    34   101   100    1
    35    14    16   ar
    36    14    15   ar
    37    28    30   ar
    38     4     3    2
    39    29    30   ar
    40   100   102    1
    41     3     2    1
    42     2     1    1
    43     2     5    1
    44     7     5    1
    45    75    76    1
    46    74    72   ar
    47    74    73   ar
    48     5     6    1
    49    83    82    1
    50    72    70   ar
    51    81    82    1
    52    81    80    1
    53    73    71   ar
    54    79    76    1
    55    79    80    1
    56    76    77    1
    57    62    61    2
    58    70    69   ar
    59    71    69   ar
    60    63    61   am
    61    69    68    1
    62    61    60    1
    63    67    66    2
    64    77    78    2
    65    68    65    1
    66    45    47   ar
    67    45    43   ar
    68    65    66    1
    69    65    64    1
    70    60    57    1
    71    47    46   ar
    72    57    58    1
    73    57    56    1
    74    43    42   ar
    75    58    59    2
    76    46    44   ar
    77    42    44   ar
    78    42    41    1
    79    41    38    1
    80    38    37    1
    81    38    39    1
    82    36    35    1
    83    39    40    2
    84    55    53   am
    85    52    53    1
    86    52    49    1
    87    53    54    2
    88    48    49    1
    89    35    32    1
    90    49    50    1
    91    31    32    1
    92    32    33    1
    93    50    51    2
    94    33    34    2
