@<TRIPOS>MOLECULE
tmp/6c9cA00.pdb
 225 216 0 0 0
SMALL
GASTEIGER

@<TRIPOS>ATOM
      1  N         13.9110  -11.7780    1.6570 N.3    19  LEU19      -0.1231
      2  CA        13.7770  -12.8580    2.6250 C.3    19  LEU19       0.1693
      3  C         12.8090  -13.9280    2.1310 C.2    19  LEU19       0.2592
      4  O         13.1150  -15.1290    2.1650 O.2    19  LEU19      -0.2718
      5  CB        13.2980  -12.2930    3.9650 C.3    19  LEU19       0.0284
      6  CG        12.7880  -13.3110    4.9830 C.3    19  LEU19       0.0019
      7  CD1       13.8940  -14.3050    5.3190 C.3    19  LEU19       0.0001
      8  CD2       12.2920  -12.6200    6.2480 C.3    19  LEU19       0.0001
      9  N         11.6270  -13.5070    1.6580 N.am   20  HIS20      -0.1976
     10  CA        10.6110  -14.4970    1.3170 C.3    20  HIS20       0.1656
     11  C         10.6790  -14.9380   -0.1400 C.2    20  HIS20       0.2291
     12  O         10.5730  -16.1340   -0.4200 O.2    20  HIS20      -0.2864
     13  CB         9.2240  -13.9550    1.6730 C.3    20  HIS20       0.0771
     14  CG         9.0310  -13.7950    3.1450 C.ar   20  HIS20       0.0820
     15  ND1        9.0330  -14.8680    4.0100 N.ar   20  HIS20      -0.2267
     16  CD2        8.8920  -12.6910    3.9140 C.ar   20  HIS20       0.1154
     17  CE1        8.8780  -14.4330    5.2490 C.ar   20  HIS20       0.1986
     18  NE2        8.7850  -13.1170    5.2170 N.ar   20  HIS20      -0.2212
     19  N          2.7800  -12.9550    6.4720 N.3    63  MET63      -0.1230
     20  CA         4.1530  -13.1640    6.9230 C.3    63  MET63       0.1702
     21  C          4.7740  -11.8490    7.3670 C.2    63  MET63       0.2593
     22  O          4.9830  -11.6330    8.5620 O.2    63  MET63      -0.2718
     23  CB         4.9690  -13.8300    5.8100 C.3    63  MET63       0.0401
     24  CG         5.8120  -15.0070    6.2750 C.3    63  MET63       0.0596
     25  SD         4.8810  -16.3440    7.0770 S.3    63  MET63      -0.1393
     26  CE         5.9140  -16.6230    8.5110 C.3    63  MET63       0.0692
     27  N          5.0550  -10.9430    6.4440 N.am   64  SER64      -0.1952
     28  CA         5.6450   -9.6450    6.7320 C.3    64  SER64       0.1924
     29  C          4.5840   -8.5580    6.5430 C.2    64  SER64       0.2314
     30  O          3.4020   -8.8430    6.3470 O.2    64  SER64      -0.2863
     31  CB         6.8650   -9.4330    5.8350 C.3    64  SER64       0.2116
     32  OG         6.5160   -9.6080    4.4810 O.3    64  SER64      -0.2180
     33  N          7.5890   -6.8470    2.7310 N.3    76  THR76      -0.1218
     34  CA         8.5830   -6.8000    3.8040 C.3    76  THR76       0.1862
     35  C          9.1680   -5.3960    3.9690 C.2    76  THR76       0.2287
     36  O         10.3780   -5.1810    3.8800 O.2    76  THR76      -0.2866
     37  CB         9.7110   -7.8180    3.5690 C.3    76  THR76       0.1770
     38  OG1        9.1650   -9.0470    3.0750 O.3    76  THR76      -0.2211
     39  CG2       10.4460   -8.0990    4.8740 C.3    76  THR76       0.0375
     40  N          8.9510   -3.6810    6.7890 N.3    78  GLU78      -0.1231
     41  CA         8.9600   -3.3120    8.2050 C.3    78  GLU78       0.1699
     42  C         10.3620   -2.9790    8.7270 C.2    78  GLU78       0.2592
     43  O         10.5070   -2.0950    9.5770 O.2    78  GLU78      -0.2718
     44  CB         8.3230   -4.4230    9.0440 C.3    78  GLU78       0.0402
     45  CG         9.0020   -5.7790    8.8950 C.3    78  GLU78       0.1161
     46  CD         8.2680   -6.7020    7.9320 C.2    78  GLU78       0.3649
     47  OE1        7.5840   -6.2010    7.0150 O.co2  78  GLU78      -0.2457
     48  OE2        8.3760   -7.9370    8.1030 O.co2  78  GLU78      -0.2457
     49  N         11.4070   -3.6770    8.2670 N.am   79  HIS79      -0.1976
     50  CA        12.7330   -3.4060    8.8280 C.3    79  HIS79       0.1656
     51  C         13.3240   -2.0960    8.3060 C.2    79  HIS79       0.2291
     52  O         14.0310   -1.3940    9.0390 O.2    79  HIS79      -0.2864
     53  CB        13.6900   -4.5600    8.5280 C.3    79  HIS79       0.0771
     54  CG        13.2070   -5.8880    9.0250 C.ar   79  HIS79       0.0820
     55  ND1       13.7350   -7.0820    8.5800 N.ar   79  HIS79      -0.2267
     56  CD2       12.2420   -6.2130    9.9230 C.ar   79  HIS79       0.1154
     57  CE1       13.1170   -8.0860    9.1800 C.ar   79  HIS79       0.1986
     58  NE2       12.1950   -7.5880    9.9850 N.ar   79  HIS79      -0.2212
     59  N          6.9600  -17.8730   23.4420 N.3   161  PHE161     -0.1241
     60  CA         7.3450  -19.1030   22.7580 C.3   161  PHE161      0.1605
     61  C          7.6290  -20.1820   23.7910 C.2   161  PHE161      0.2264
     62  O          8.5090  -20.0140   24.6420 O.2   161  PHE161     -0.2867
     63  CB         8.5800  -18.8860   21.8830 C.3   161  PHE161      0.0534
     64  CG         8.3420  -17.9830   20.7060 C.ar  161  PHE161     -0.0203
     65  CD1        7.7540  -18.4740   19.5490 C.ar  161  PHE161     -0.0042
     66  CD2        8.7090  -16.6440   20.7520 C.ar  161  PHE161     -0.0042
     67  CE1        7.5260  -17.6480   18.4590 C.ar  161  PHE161     -0.0003
     68  CE2        8.4800  -15.8160   19.6690 C.ar  161  PHE161     -0.0003
     69  CZ         7.8890  -16.3220   18.5190 C.ar  161  PHE161     -0.0000
     70  N         15.9090  -10.5890   12.5150 N.3   188  THR188     -0.1203
     71  CA        14.7330  -11.4370   12.3730 C.3   188  THR188      0.1994
     72  C         15.1130  -12.8960   12.6380 C.2   188  THR188      0.2618
     73  O         16.2940  -13.2560   12.6870 O.2   188  THR188     -0.2717
     74  CB        14.1290  -11.2600   10.9750 C.3   188  THR188      0.1784
     75  OG1       12.8700  -11.9400   10.8910 O.3   188  THR188     -0.2211
     76  CG2       15.0700  -11.7870    9.8990 C.3   188  THR188      0.0376
     77  N         14.0980  -13.7390   12.8410 N.am  189  PHE189     -0.1961
     78  CA        14.3520  -15.1030   13.2900 C.3   189  PHE189      0.1771
     79  C         13.2280  -16.0130   12.8230 C.2   189  PHE189      0.2620
     80  O         12.1070  -15.5660   12.5770 O.2   189  PHE189     -0.2715
     81  CB        14.4960  -15.1840   14.8170 C.3   189  PHE189      0.0574
     82  CG        13.2730  -14.7190   15.5740 C.ar  189  PHE189     -0.0200
     83  CD1       13.1600  -13.3960   15.9980 C.ar  189  PHE189     -0.0042
     84  CD2       12.2420  -15.6030   15.8670 C.ar  189  PHE189     -0.0042
     85  CE1       12.0250  -12.9610   16.7150 C.ar  189  PHE189     -0.0003
     86  CE2       11.1020  -15.1810   16.5610 C.ar  189  PHE189     -0.0003
     87  CZ        11.0020  -13.8590   16.9950 C.ar  189  PHE189     -0.0000
     88  N         13.5490  -17.3050   12.7030 N.am  190  GLY190     -0.1940
     89  CA        12.5800  -18.3250   12.3560 C.3   190  GLY190      0.2014
     90  C         13.0130  -19.6840   12.8750 C.2   190  GLY190      0.2639
     91  O         14.1080  -19.8450   13.4160 O.2   190  GLY190     -0.2714
     92  N         12.1490  -20.6750   12.6890 N.am  191  PHE191     -0.1959
     93  CA        12.3070  -21.9670   13.3510 C.3   191  PHE191      0.1771
     94  C         12.3950  -23.0980   12.3360 C.2   191  PHE191      0.2619
     95  O         11.6180  -23.1420   11.3760 O.2   191  PHE191     -0.2715
     96  CB        11.1430  -22.2230   14.3090 C.3   191  PHE191      0.0574
     97  CG        11.0450  -21.2160   15.4200 C.ar  191  PHE191     -0.0200
     98  CD1       11.6180  -21.4760   16.6580 C.ar  191  PHE191     -0.0042
     99  CD2       10.3980  -20.0020   15.2210 C.ar  191  PHE191     -0.0042
    100  CE1       11.5370  -20.5470   17.6770 C.ar  191  PHE191     -0.0003
    101  CE2       10.3170  -19.0680   16.2310 C.ar  191  PHE191     -0.0003
    102  CZ        10.8870  -19.3420   17.4650 C.ar  191  PHE191     -0.0000
    103  N         13.3300  -24.0310   12.5650 N.am  192  MET192     -0.1977
    104  CA        13.4140  -25.2140   11.7100 C.3   192  MET192      0.1605
    105  C         12.1240  -26.0150   11.7310 C.2   192  MET192      0.2287
    106  O         11.8380  -26.7350   10.7690 O.2   192  MET192     -0.2864
    107  CB        14.5880  -26.1240   12.1240 C.3   192  MET192      0.0413
    108  CG        15.9660  -25.5070   11.8650 C.3   192  MET192      0.0598
    109  SD        16.1630  -24.9460   10.1480 S.3   192  MET192     -0.1393
    110  CE        16.2120  -26.5100    9.2680 C.3   192  MET192      0.0692
    111  N         10.0800  -24.4440    8.7720 N.3   195  ILE195     -0.1231
    112  CA        10.6990  -23.9980    7.5300 C.3   195  ILE195      0.1692
    113  C         10.3260  -24.8880    6.3530 C.2   195  ILE195      0.2591
    114  O         10.2440  -24.4140    5.2140 O.2   195  ILE195     -0.2718
    115  CB        12.2270  -23.8930    7.7080 C.3   195  ILE195      0.0266
    116  CG1       12.8260  -23.1310    6.5270 C.3   195  ILE195      0.0019
    117  CG2       12.8570  -25.2630    7.8410 C.3   195  ILE195      0.0020
    118  CD1       12.0760  -21.8040    6.2380 C.3   195  ILE195      0.0001
    119  N         10.0970  -26.1800    6.5860 N.am  196  GLU196     -0.1979
    120  CA         9.6940  -27.0320    5.4790 C.3   196  GLU196      0.1602
    121  C          8.3070  -26.6450    4.9780 C.2   196  GLU196      0.2287
    122  O          8.0700  -26.6010    3.7650 O.2   196  GLU196     -0.2864
    123  CB         9.7640  -28.5000    5.9000 C.3   196  GLU196      0.0415
    124  CG        11.1820  -28.8810    6.3670 C.3   196  GLU196      0.1163
    125  CD        11.2940  -30.3150    6.8140 C.2   196  GLU196      0.3649
    126  OE1       10.7390  -31.1970    6.1260 O.co2 196  GLU196     -0.2457
    127  OE2       11.9280  -30.5560    7.8580 O.co2 196  GLU196     -0.2457
    128  N          7.0660  -23.5890    5.2590 N.3   198  LEU198     -0.1231
    129  CA         7.2050  -22.2650    4.6500 C.3   198  LEU198      0.1693
    130  C          7.8030  -22.3590    3.2440 C.2   198  LEU198      0.2591
    131  O          7.3020  -21.7390    2.2980 O.2   198  LEU198     -0.2718
    132  CB         8.0500  -21.3490    5.5470 C.3   198  LEU198      0.0284
    133  CG         7.4190  -20.8300    6.8510 C.3   198  LEU198      0.0019
    134  CD1        8.3760  -19.9100    7.5880 C.3   198  LEU198      0.0001
    135  CD2        6.1060  -20.0880    6.6100 C.3   198  LEU198      0.0001
    136  N          8.8790  -23.1350    3.0880 N.am  199  ARG199     -0.1980
    137  CA         9.4780  -23.3080    1.7680 C.3   199  ARG199      0.1597
    138  C          8.4960  -23.9440    0.7850 C.2   199  ARG199      0.2287
    139  O          8.4620  -23.5740   -0.3920 O.2   199  ARG199     -0.2864
    140  CB        10.7600  -24.1370    1.8900 C.3   199  ARG199      0.0334
    141  CG        11.8790  -23.4260    2.6660 C.3   199  ARG199      0.0492
    142  CD        12.4460  -22.2850    1.8540 C.3   199  ARG199      0.2205
    143  NE        13.5480  -21.5550    2.4810 N.pl3 199  ARG199     -0.0865
    144  CZ        14.8050  -21.9870    2.5400 C.cat 199  ARG199      0.5346
    145  NH1       15.1330  -23.1870    2.0680 N.pl3 199  ARG199      0.1354
    146  NH2       15.7340  -21.2320    3.1120 N.pl3 199  ARG199      0.1354
    147  N         10.0310  -17.5490    2.7860 N.3   204  ALA204     -0.1245
    148  CA        11.3620  -17.5830    3.4030 C.3   204  ALA204      0.1562
    149  C         12.4150  -18.1700    2.4670 C.2   204  ALA204      0.2260
    150  O         13.4200  -18.7270    2.9180 O.2   204  ALA204     -0.2867
    151  CB        11.3600  -18.3530    4.7250 C.3   204  ALA204      0.0290
    152  N         15.8140  -16.9320    3.2390 N.3   207  GLY207     -0.1210
    153  CA        16.2650  -16.9680    4.6210 C.3   207  GLY207      0.1956
    154  C         17.3880  -17.9730    4.8210 C.2   207  GLY207      0.2613
    155  O         17.3790  -19.0700    4.2600 O.2   207  GLY207     -0.2717
    156  N         18.3660  -17.5850    5.6410 N.am  208  SER208     -0.1938
    157  CA        19.4540  -18.4690    6.0490 C.3   208  SER208      0.2055
    158  C         20.0900  -17.8760    7.2950 C.2   208  SER208      0.2642
    159  O         19.7660  -16.7540    7.7030 O.2   208  SER208     -0.2714
    160  CB        20.4990  -18.6180    4.9440 C.3   208  SER208      0.2130
    161  OG        21.2750  -17.4320    4.8870 O.3   208  SER208     -0.2179
    162  N         21.0580  -18.6050    7.8610 N.am  209  VAL209     -0.1977
    163  CA        21.8360  -18.0640    8.9780 C.3   209  VAL209      0.1596
    164  C         22.5700  -16.7840    8.6020 C.2   209  VAL209      0.2287
    165  O         23.0380  -16.0610    9.4870 O.2   209  VAL209     -0.2864
    166  CB        22.8440  -19.1000    9.5210 C.3   209  VAL209      0.0276
    167  CG1       22.1330  -20.2370   10.2010 C.3   209  VAL209      0.0022
    168  CG2       23.7920  -19.5940    8.4100 C.3   209  VAL209      0.0022
    169  N         19.3420  -14.2900    9.3080 N.3   212  ALA212     -0.1245
    170  CA        18.3250  -14.5660   10.3170 C.3   212  ALA212      0.1562
    171  C         18.9090  -15.4680   11.3920 C.2   212  ALA212      0.2260
    172  O         19.8350  -16.2400   11.1390 O.2   212  ALA212     -0.2867
    173  CB        17.0750  -15.2300    9.7220 C.3   212  ALA212      0.0290
    174  N         18.3990  -18.6640   13.0300 N.3   214  VAL214     -0.1245
    175  CA        17.6970  -19.8840   12.6550 C.3   214  VAL214      0.1561
    176  C         17.7040  -20.8100   13.8680 C.2   214  VAL214      0.2260
    177  O         18.7610  -21.3020   14.2840 O.2   214  VAL214     -0.2867
    178  CB        18.3400  -20.5460   11.4320 C.3   214  VAL214      0.0252
    179  CG1       17.5780  -21.8150   11.0430 C.3   214  VAL214      0.0019
    180  CG2       18.4120  -19.5650   10.2650 C.3   214  VAL214      0.0019
    181  N         21.1330  -22.2860   15.2460 N.3   221  LEU221     -0.1245
    182  CA        22.0830  -22.8210   14.2790 C.3   221  LEU221      0.1561
    183  C         23.2260  -21.8570   13.9670 C.2   221  LEU221      0.2260
    184  O         24.2920  -22.3120   13.5450 O.2   221  LEU221     -0.2867
    185  CB        21.3600  -23.2060   12.9860 C.3   221  LEU221      0.0270
    186  CG        20.3460  -24.3540   13.0770 C.3   221  LEU221      0.0019
    187  CD1       20.0220  -24.8810   11.6880 C.3   221  LEU221      0.0001
    188  CD2       20.8470  -25.4800   13.9860 C.3   221  LEU221      0.0001
    189  N         13.8690   -7.8320   18.4080 N.3   235  HIS235     -0.1226
    190  CA        13.4750   -7.7660   17.0090 C.3   235  HIS235      0.1752
    191  C         11.9770   -7.4940   16.8590 C.2   235  HIS235      0.2595
    192  O         11.5640   -6.7710   15.9430 O.2   235  HIS235     -0.2718
    193  CB        13.8290   -9.0390   16.2470 C.3   235  HIS235      0.0759
    194  CG        13.4940   -8.9180   14.7970 C.ar  235  HIS235      0.0818
    195  ND1       14.3230   -8.2810   13.9010 N.ar  235  HIS235     -0.2268
    196  CD2       12.3620   -9.2160   14.1160 C.ar  235  HIS235      0.1154
    197  CE1       13.7450   -8.2560   12.7140 C.ar  235  HIS235      0.1986
    198  NE2       12.5550   -8.8150   12.8180 N.ar  235  HIS235     -0.2212
    199  N         11.1490   -8.1060   17.7130 N.am  236  LYS236     -0.1980
    200  CA         9.7170   -7.7960   17.6970 C.3   236  LYS236      0.1596
    201  C          9.4910   -6.3080   17.8870 C.2   236  LYS236      0.2287
    202  O          8.5970   -5.7250   17.2690 O.2   236  LYS236     -0.2864
    203  CB         8.9860   -8.5770   18.7980 C.3   236  LYS236      0.0298
    204  CG         9.0540  -10.0730   18.6110 C.3   236  LYS236      0.0038
    205  CD         8.4310  -10.4850   17.2830 C.3   236  LYS236      0.0206
    206  CE         6.9000  -10.5430   17.3610 C.3   236  LYS236      0.1093
    207  NZ         6.3300  -11.0190   16.0570 N.3   236  LYS236     -0.1314
    208  N         10.3040   -4.6290   14.6700 N.3   239  ASP239     -0.1239
    209  CA         9.1510   -4.8120   13.7870 C.3   239  ASP239      0.1674
    210  C          8.0430   -3.8090   14.0920 C.2   239  ASP239      0.2266
    211  O          7.4910   -3.1700   13.1870 O.2   239  ASP239     -0.2867
    212  CB         8.5950   -6.2360   13.9330 C.3   239  ASP239      0.1410
    213  CG         9.3650   -7.2570   13.1080 C.2   239  ASP239      0.3668
    214  OD1        9.2050   -8.4620   13.3560 O.co2 239  ASP239     -0.2456
    215  OD2       10.1300   -6.8430   12.2170 O.co2 239  ASP239     -0.2456
    216  N          2.5320   -8.5050   12.6110 N.3   262  HIS262     -0.1241
    217  CA         2.2360   -7.4430   11.6470 C.3   262  HIS262      0.1621
    218  C          0.7370   -7.2560   11.4500 C.2   262  HIS262      0.2264
    219  O          0.2630   -6.1210   11.2880 O.2   262  HIS262     -0.2867
    220  CB         2.9110   -7.7430   10.3110 C.3   262  HIS262      0.0745
    221  CG         4.3750   -7.9960   10.4400 C.ar  262  HIS262      0.0817
    222  ND1        5.2530   -7.0460   10.9150 N.ar  262  HIS262     -0.2268
    223  CD2        5.1170   -9.0960   10.1740 C.ar  262  HIS262      0.1154
    224  CE1        6.4760   -7.5470   10.9250 C.ar  262  HIS262      0.1986
    225  NE2        6.4200   -8.7880   10.4800 N.ar  262  HIS262     -0.2212
@<TRIPOS>BOND
     1    12    11    2
     2   139   138    2
     3    11    10    1
     4   138   137    1
     5    10     9    1
     6    10    13    1
     7     1     2    1
     8     9     3   am
     9    13    14    1
    10   137   140    1
    11   137   136    1
    12   142   143    1
    13   142   141    1
    14   140   141    1
    15   145   144    1
    16     3     4    2
    17     3     2    1
    18   131   130    2
    19   149   150    2
    20   149   148    1
    21   143   144    2
    22   144   146    1
    23     2     5    1
    24    33    34    1
    25   147   148    1
    26    38    37    1
    27   136   130   am
    28    14    16   ar
    29    14    15   ar
    30   152   153    1
    31   130   129    1
    32   148   151    1
    33    37    34    1
    34    37    39    1
    35   122   121    2
    36    34    35    1
    37    36    35    2
    38    16    18   ar
    39     5     6    1
    40    15    17   ar
    41   155   154    2
    42    32    31    1
    43   153   154    1
    44   129   128    1
    45   129   132    1
    46   154   156   am
    47   161   160    1
    48   160   157    1
    49   121   120    1
    50     6     7    1
    51     6     8    1
    52   114   113    2
    53    18    17   ar
    54   120   123    1
    55   120   119    1
    56   132   133    1
    57   156   157    1
    58    23    24    1
    59    23    20    1
    60    31    28    1
    61   123   124    1
    62   157   158    1
    63   126   125   ar
    64   118   116    1
    65    24    25    1
    66    30    29    2
    67   113   119   am
    68   113   112    1
    69   124   125    1
    70    27    28    1
    71    27    21   am
    72    19    20    1
    73   116   115    1
    74    29    28    1
    75   135   133    1
    76    40    41    1
    77   125   127   ar
    78   133   134    1
    79    20    21    1
    80    47    46   ar
    81    25    26    1
    82   158   159    2
    83   158   162   am
    84    21    22    2
    85   112   115    1
    86   112   111    1
    87   115   117    1
    88   162   163    1
    89    46    48   ar
    90    46    45    1
    91    41    42    1
    92    41    44    1
    93    49    42   am
    94    49    50    1
    95    51    50    1
    96    51    52    2
    97   168   166    1
    98    53    50    1
    99    53    54    1
   100    55    54   ar
   101    55    57   ar
   102   164   163    1
   103   164   165    2
   104    42    43    2
   105    45    44    1
   106   163   166    1
   107    54    56   ar
   108    57    58   ar
   109   110   109    1
   110   169   170    1
   111   166   167    1
   112   173   170    1
   113    76    74    1
   114    56    58   ar
   115   109   108    1
   116   223   221   ar
   117   223   225   ar
   118   180   178    1
   119   220   221    1
   120   220   217    1
   121   170   171    1
   122   221   222   ar
   123   225   224   ar
   124   106   105    2
   125    75    74    1
   126   222   224   ar
   127    74    71    1
   128   179   178    1
   129   172   171    2
   130   219   218    2
   131    95    94    2
   132   178   175    1
   133   218   217    1
   134   217   216    1
   135   187   186    1
   136   104   105    1
   137   104   107    1
   138   104   103    1
   139   108   107    1
   140   215   213   ar
   141    94   103   am
   142    94    93    1
   143    89    88    1
   144    89    90    1
   145    71    70    1
   146    71    72    1
   147    80    79    2
   148    72    73    2
   149    72    77   am
   150   175   174    1
   151   175   176    1
   152    92    90   am
   153    92    93    1
   154    88    79   am
   155   197   198   ar
   156   197   195   ar
   157   198   196   ar
   158    79    78    1
   159    77    78    1
   160    90    91    2
   161   185   186    1
   162   185   182    1
   163   186   188    1
   164   213   214   ar
   165   213   212    1
   166   211   210    2
   167    78    81    1
   168    93    96    1
   169   184   183    2
   170   209   212    1
   171   209   210    1
   172   209   208    1
   173   176   177    2
   174   195   194   ar
   175   183   182    1
   176   196   194   ar
   177   182   181    1
   178    96    97    1
   179   194   193    1
   180    81    82    1
   181    99    97   ar
   182    99   101   ar
   183    97    98   ar
   184    82    84   ar
   185    82    83   ar
   186    84    86   ar
   187   192   191    2
   188    83    85   ar
   189   207   206    1
   190   101   102   ar
   191   193   190    1
   192    86    87   ar
   193    98   100   ar
   194    85    87   ar
   195   191   190    1
   196   191   199   am
   197   190   189    1
   198   202   201    2
   199   205   206    1
   200   205   204    1
   201   102   100   ar
   202   200   199    1
   203   200   201    1
   204   200   203    1
   205    67    69   ar
   206    67    65   ar
   207    69    68   ar
   208   204   203    1
   209    65    64   ar
   210    68    66   ar
   211    64    66   ar
   212    64    63    1
   213    63    60    1
   214    60    59    1
   215    60    61    1
   216    61    62    2
