@<TRIPOS>MOLECULE
tmp/6c9gA00.pdb
 122 115 0 0 0
SMALL
GASTEIGER

@<TRIPOS>ATOM
      1  N         -5.8750   26.4830  -40.3800 N.3     3  VAL3       -0.1245
      2  CA        -6.8980   27.4420  -40.0210 C.3     3  VAL3        0.1561
      3  C         -6.4420   28.0750  -38.7160 C.2     3  VAL3        0.2260
      4  O         -6.2470   27.3930  -37.7110 O.2     3  VAL3       -0.2867
      5  CB        -8.2700   26.7870  -39.8780 C.3     3  VAL3        0.0252
      6  CG1       -9.3380   27.8430  -39.7050 C.3     3  VAL3        0.0019
      7  CG2       -8.5550   25.9500  -41.0900 C.3     3  VAL3        0.0019
      8  N         -6.7970   26.1240  -35.4070 N.3    10  LEU10      -0.1231
      9  CA        -8.0760   25.4480  -35.2060 C.3    10  LEU10       0.1693
     10  C         -7.9990   23.9500  -35.4900 C.2    10  LEU10       0.2593
     11  O         -7.6330   23.5190  -36.5700 O.2    10  LEU10      -0.2718
     12  CB        -9.1660   26.1020  -36.0630 C.3    10  LEU10       0.0284
     13  CG        -9.5520   27.5170  -35.6140 C.3    10  LEU10       0.0019
     14  CD1      -10.8060   27.9970  -36.3490 C.3    10  LEU10       0.0001
     15  CD2       -9.7710   27.5610  -34.0870 C.3    10  LEU10       0.0001
     16  N         -8.3380   23.1780  -34.4650 N.am   11  GLY11      -0.1942
     17  CA        -8.3280   21.7250  -34.4680 C.3    11  GLY11       0.2014
     18  C         -9.6800   21.0520  -34.5790 C.2    11  GLY11       0.2638
     19  O        -10.5650   21.4960  -35.3120 O.2    11  GLY11      -0.2714
     20  N         -9.8120   19.9400  -33.8570 N.am   12  ASP12      -0.1971
     21  CA       -11.0330   19.1300  -33.8320 C.3    12  ASP12       0.1709
     22  C        -12.2780   19.8190  -33.2890 C.2    12  ASP12       0.2293
     23  O        -12.1940   20.6960  -32.4320 O.2    12  ASP12      -0.2864
     24  CB       -10.7850   17.8600  -33.0240 C.3    12  ASP12       0.1436
     25  CG        -9.9010   16.8650  -33.7620 C.2    12  ASP12       0.3671
     26  OD1       -9.9850   16.7990  -35.0120 O.co2  12  ASP12      -0.2456
     27  OD2       -9.1250   16.1450  -33.0960 O.co2  12  ASP12      -0.2456
     28  N        -21.4750   21.1140  -31.1750 N.3    16  VAL16      -0.1231
     29  CA       -22.2010   22.1460  -31.9080 C.3    16  VAL16       0.1692
     30  C        -23.0210   23.0380  -30.9870 C.2    16  VAL16       0.2593
     31  O        -23.8350   22.5550  -30.2060 O.2    16  VAL16      -0.2718
     32  CB       -23.1340   21.5300  -32.9550 C.3    16  VAL16       0.0266
     33  CG1      -23.9360   22.6150  -33.6580 C.3    16  VAL16       0.0020
     34  CG2      -22.3300   20.7220  -33.9500 C.3    16  VAL16       0.0020
     35  N        -22.7920   24.3440  -31.0730 N.am   17  GLY17      -0.1942
     36  CA       -23.5030   25.2990  -30.2400 C.3    17  GLY17       0.2014
     37  C        -24.7860   25.7570  -30.9030 C.2    17  GLY17       0.2640
     38  O        -25.1270   25.2730  -31.9890 O.2    17  GLY17      -0.2714
     39  N        -25.5000   26.6780  -30.2550 N.am   18  THR18      -0.1936
     40  CA       -26.6910   27.2650  -30.8550 C.3    18  THR18       0.2028
     41  C        -26.3060   27.8450  -32.2110 C.2    18  THR18       0.2642
     42  O        -27.0180   27.6730  -33.2030 O.2    18  THR18      -0.2714
     43  CB       -27.3100   28.3600  -29.9660 C.3    18  THR18       0.1808
     44  OG1      -27.6170   27.8150  -28.6750 O.3    18  THR18      -0.2208
     45  CG2      -28.5830   28.9040  -30.6040 C.3    18  THR18       0.0379
     46  N        -25.1530   28.5060  -32.2480 N.am   19  PHE19      -0.1959
     47  CA       -24.5980   28.9890  -33.4970 C.3    19  PHE19       0.1771
     48  C        -23.3020   28.3060  -33.8560 C.2    19  PHE19       0.2620
     49  O        -22.3950   28.1810  -33.0190 O.2    19  PHE19      -0.2715
     50  CB       -24.3290   30.4800  -33.4450 C.3    19  PHE19       0.0574
     51  CG       -25.5160   31.2820  -33.1120 C.ar   19  PHE19      -0.0200
     52  CD1      -26.3490   31.7120  -34.1120 C.ar   19  PHE19      -0.0042
     53  CD2      -25.8040   31.6100  -31.8020 C.ar   19  PHE19      -0.0042
     54  CE1      -27.4420   32.4570  -33.8230 C.ar   19  PHE19      -0.0003
     55  CE2      -26.9060   32.3500  -31.5080 C.ar   19  PHE19      -0.0003
     56  CZ       -27.7200   32.7650  -32.5170 C.ar   19  PHE19      -0.0000
     57  N        -23.1910   27.9040  -35.1130 N.am   20  GLY20      -0.1940
     58  CA       -21.9540   27.3700  -35.6210 C.3    20  GLY20       0.2014
     59  C        -21.5140   26.1220  -34.8910 C.2    20  GLY20       0.2638
     60  O        -22.3260   25.3010  -34.4660 O.2    20  GLY20      -0.2714
     61  N        -20.2050   25.9820  -34.7550 N.am   21  LYS21      -0.1977
     62  CA       -19.6270   24.8460  -34.0800 C.3    21  LYS21       0.1596
     63  C        -18.5320   25.3350  -33.1320 C.2    21  LYS21       0.2287
     64  O        -17.8860   26.3500  -33.3810 O.2    21  LYS21      -0.2864
     65  CB       -19.0800   23.8340  -35.1010 C.3    21  LYS21       0.0298
     66  CG       -20.1820   23.1130  -35.8820 C.3    21  LYS21       0.0038
     67  CD       -19.6600   21.9450  -36.7140 C.3    21  LYS21       0.0206
     68  CE       -18.7840   22.4160  -37.8500 C.3    21  LYS21       0.1093
     69  NZ       -18.3330   21.2760  -38.6870 N.3    21  LYS21      -0.1314
     70  N        -14.8700   24.6140  -31.6980 N.3    23  LYS23      -0.1245
     71  CA       -13.6520   23.8640  -32.0350 C.3    23  LYS23       0.1561
     72  C        -12.5270   24.1270  -31.0400 C.2    23  LYS23       0.2260
     73  O        -12.4580   25.1950  -30.4160 O.2    23  LYS23      -0.2867
     74  CB       -13.1500   24.2020  -33.4540 C.3    23  LYS23       0.0271
     75  CG       -13.9420   23.5700  -34.5630 C.3    23  LYS23       0.0035
     76  CD       -13.6920   24.2600  -35.8670 C.3    23  LYS23       0.0206
     77  CE       -14.4700   23.6090  -37.0120 C.3    23  LYS23       0.1093
     78  NZ       -14.0810   22.1980  -37.2000 N.3    23  LYS23      -0.1314
     79  N        -17.6660   29.3510  -32.9930 N.3    38  ILE38      -0.1245
     80  CA       -17.8290   30.0750  -34.2450 C.3    38  ILE38       0.1561
     81  C        -19.2770   30.4920  -34.4480 C.2    38  ILE38       0.2260
     82  O        -20.1640   29.6540  -34.4770 O.2    38  ILE38      -0.2867
     83  CB       -17.3700   29.2230  -35.4220 C.3    38  ILE38       0.0252
     84  CG1      -15.9030   28.8240  -35.2240 C.3    38  ILE38       0.0019
     85  CG2      -17.5740   29.9750  -36.7320 C.3    38  ILE38       0.0019
     86  CD1      -15.4340   27.7260  -36.2130 C.3    38  ILE38       0.0001
     87  N        -21.6970   32.2880  -37.0850 N.3    40  ASN40      -0.1240
     88  CA       -21.8750   32.7950  -38.4370 C.3    40  ASN40       0.1653
     89  C        -22.8180   33.9900  -38.4470 C.2    40  ASN40       0.2266
     90  O        -23.9620   33.8940  -37.9850 O.2    40  ASN40      -0.2867
     91  CB       -22.4100   31.6940  -39.3540 C.3    40  ASN40       0.1155
     92  CG       -22.5330   32.1440  -40.7850 C.2    40  ASN40       0.2627
     93  OD1      -23.6040   32.5620  -41.2300 O.2    40  ASN40      -0.2716
     94  ND2      -21.4240   32.0850  -41.5150 N.am   40  ASN40      -0.0877
     95  N        -26.1790   33.6570  -40.1460 N.3    43  LYS43      -0.1245
     96  CA       -27.0660   32.7810  -39.3860 C.3    43  LYS43       0.1561
     97  C        -27.7040   33.5080  -38.2030 C.2    43  LYS43       0.2260
     98  O        -28.9070   33.3550  -37.9570 O.2    43  LYS43      -0.2867
     99  CB       -26.3160   31.5470  -38.8910 C.3    43  LYS43       0.0271
    100  CG       -25.9530   30.5820  -39.9790 C.3    43  LYS43       0.0035
    101  CD       -26.3520   29.1690  -39.6060 C.3    43  LYS43       0.0206
    102  CE       -26.4320   28.2720  -40.8430 C.3    43  LYS43       0.1093
    103  NZ       -27.4880   28.7370  -41.8060 N.3    43  LYS43      -0.1314
    104  N        -17.8440   36.0080  -39.8740 N.3    80  ASP80      -0.1239
    105  CA       -17.9930   35.2310  -38.6460 C.3    80  ASP80       0.1674
    106  C        -17.5260   35.9280  -37.3760 C.2    80  ASP80       0.2266
    107  O        -16.6920   36.8210  -37.4020 O.2    80  ASP80      -0.2867
    108  CB       -17.2390   33.9020  -38.7800 C.3    80  ASP80       0.1410
    109  CG       -17.7390   33.0610  -39.9420 C.2    80  ASP80       0.3668
    110  OD1      -18.8130   32.4390  -39.8010 O.co2  80  ASP80      -0.2456
    111  OD2      -17.0620   33.0210  -40.9940 O.co2  80  ASP80      -0.2456
    112  N        -15.7930   34.9610  -33.7610 N.3    82  PHE82      -0.1241
    113  CA       -15.1030   33.9090  -33.0280 C.3    82  PHE82       0.1605
    114  C        -14.9810   34.2310  -31.5380 C.2    82  PHE82       0.2264
    115  O        -14.3760   35.2300  -31.1530 O.2    82  PHE82      -0.2867
    116  CB       -13.7190   33.6700  -33.6120 C.3    82  PHE82       0.0534
    117  CG       -13.7350   33.2180  -35.0280 C.ar   82  PHE82      -0.0203
    118  CD1      -13.9660   34.1190  -36.0520 C.ar   82  PHE82      -0.0042
    119  CD2      -13.4760   31.8960  -35.3460 C.ar   82  PHE82      -0.0042
    120  CE1      -13.9630   33.7060  -37.3660 C.ar   82  PHE82      -0.0003
    121  CE2      -13.4800   31.4710  -36.6720 C.ar   82  PHE82      -0.0003
    122  CZ       -13.7240   32.3810  -37.6760 C.ar   82  PHE82      -0.0000
@<TRIPOS>BOND
     1   103   102    1
     2    94    92   am
     3    93    92    2
     4     7     5    1
     5   111   109   ar
     6   102   101    1
     7    92    91    1
     8     1     2    1
     9    95    96    1
    10     2     5    1
    11     2     3    1
    12   100   101    1
    13   100    99    1
    14   109   110   ar
    15   109   108    1
    16     5     6    1
    17   104   105    1
    18    96    99    1
    19    96    97    1
    20    91    88    1
    21   108   105    1
    22     3     4    2
    23    69    68    1
    24   105   106    1
    25    89    88    1
    26    89    90    2
    27    88    87    1
    28    97    98    2
    29    68    67    1
    30   122   120   ar
    31   122   121   ar
    32   107   106    2
    33   120   118   ar
    34    78    77    1
    35    77    76    1
    36    85    83    1
    37    67    66    1
    38   121   119   ar
    39    11    10    2
    40    14    13    1
    41    86    84    1
    42    12    13    1
    43    12     9    1
    44   118   117   ar
    45    66    65    1
    46    76    75    1
    47    58    57    1
    48    58    59    1
    49    13    15    1
    50    10     9    1
    51    10    16   am
    52    83    84    1
    53    83    80    1
    54     8     9    1
    55   119   117   ar
    56    19    18    2
    57    57    48   am
    58    65    62    1
    59   117   116    1
    60    26    25   ar
    61    59    61   am
    62    59    60    2
    63    61    62    1
    64    18    17    1
    65    18    20   am
    66    75    74    1
    67    82    81    2
    68    17    16    1
    69    81    80    1
    70    80    79    1
    71    52    54   ar
    72    52    51   ar
    73    62    63    1
    74    34    32    1
    75    20    21    1
    76    48    47    1
    77    48    49    2
    78    21    22    1
    79    21    24    1
    80    54    56   ar
    81    25    27   ar
    82    25    24    1
    83   112   113    1
    84    33    32    1
    85   116   113    1
    86    47    50    1
    87    47    46    1
    88    74    71    1
    89    50    51    1
    90    64    63    2
    91    22    23    2
    92    42    41    2
    93    51    53   ar
    94   113   114    1
    95    32    29    1
    96    56    55   ar
    97    46    41   am
    98    41    40    1
    99    71    70    1
   100    71    72    1
   101    38    37    2
   102    29    28    1
   103    29    30    1
   104    53    55   ar
   105   114   115    2
   106    35    30   am
   107    35    36    1
   108    72    73    2
   109    30    31    2
   110    37    39   am
   111    37    36    1
   112    40    39    1
   113    40    43    1
   114    45    43    1
   115    43    44    1
