@<TRIPOS>MOLECULE
tmp/6c9hA00.pdb
 114 107 0 0 0
SMALL
GASTEIGER

@<TRIPOS>ATOM
      1  N         -6.8670   27.4000  -40.2710 N.3     3  VAL3       -0.1245
      2  CA        -7.9210   28.2770  -39.7760 C.3     3  VAL3        0.1561
      3  C         -7.4650   28.8580  -38.4430 C.2     3  VAL3        0.2260
      4  O         -7.3690   28.1430  -37.4420 O.2     3  VAL3       -0.2867
      5  CB        -9.2500   27.5290  -39.6250 C.3     3  VAL3        0.0252
      6  CG1      -10.3450   28.4850  -39.1750 C.3     3  VAL3        0.0019
      7  CG2       -9.6260   26.8500  -40.9310 C.3     3  VAL3        0.0019
      8  N         -7.9120   26.8970  -34.8800 N.3    10  LEU10      -0.1231
      9  CA        -9.1910   26.2300  -34.6560 C.3    10  LEU10       0.1693
     10  C         -9.1050   24.7320  -34.9390 C.2    10  LEU10       0.2592
     11  O         -8.6450   24.3130  -36.0050 O.2    10  LEU10      -0.2718
     12  CB       -10.2820   26.8740  -35.5110 C.3    10  LEU10       0.0284
     13  CG       -10.6330   28.3010  -35.0900 C.3    10  LEU10       0.0019
     14  CD1      -11.8180   28.8330  -35.8830 C.3    10  LEU10       0.0001
     15  CD2      -10.9190   28.3490  -33.5900 C.3    10  LEU10       0.0001
     16  N         -9.5260   23.9290  -33.9620 N.am   11  GLY11      -0.1957
     17  CA        -9.4860   22.4800  -34.0450 C.3    11  GLY11       0.1869
     18  C        -10.8250   21.7990  -34.2730 C.2    11  GLY11       0.2309
     19  O        -11.7070   22.3350  -34.9500 O.2    11  GLY11      -0.2863
     20  N        -22.4260   21.5270  -31.1000 N.3    16  VAL16      -0.1231
     21  CA       -23.1500   22.3380  -32.0660 C.3    16  VAL16       0.1692
     22  C        -24.1700   23.2060  -31.3460 C.2    16  VAL16       0.2593
     23  O        -24.6500   22.8850  -30.2560 O.2    16  VAL16      -0.2718
     24  CB       -23.8320   21.4420  -33.1280 C.3    16  VAL16       0.0266
     25  CG1      -24.6990   22.2510  -34.0860 C.3    16  VAL16       0.0020
     26  CG2      -22.7850   20.6560  -33.8930 C.3    16  VAL16       0.0020
     27  N        -24.4850   24.3310  -31.9830 N.am   17  GLY17      -0.1942
     28  CA       -25.3910   25.3060  -31.4280 C.3    17  GLY17       0.2014
     29  C        -26.3620   25.7230  -32.5140 C.2    17  GLY17       0.2640
     30  O        -26.1120   25.5220  -33.7020 O.2    17  GLY17      -0.2714
     31  N        -27.4930   26.2820  -32.0970 N.am   18  THR18      -0.1936
     32  CA       -28.4850   26.6520  -33.0950 C.3    18  THR18       0.2028
     33  C        -27.8980   27.6740  -34.0620 C.2    18  THR18       0.2642
     34  O        -28.0260   27.5380  -35.2830 O.2    18  THR18      -0.2714
     35  CB       -29.7310   27.2180  -32.4150 C.3    18  THR18       0.1808
     36  OG1      -29.3660   28.3690  -31.6420 O.3    18  THR18      -0.2208
     37  CG2      -30.3500   26.1800  -31.4970 C.3    18  THR18       0.0379
     38  N        -27.2570   28.7130  -33.5230 N.am   19  PHE19      -0.1959
     39  CA       -26.5640   29.7040  -34.3450 C.3    19  PHE19       0.1771
     40  C        -25.2640   29.1860  -34.9550 C.2    19  PHE19       0.2620
     41  O        -24.9780   29.4560  -36.1270 O.2    19  PHE19      -0.2715
     42  CB       -26.3050   30.9610  -33.5250 C.3    19  PHE19       0.0574
     43  CG       -27.5530   31.6360  -33.0980 C.ar   19  PHE19      -0.0200
     44  CD1      -28.2050   32.4880  -33.9570 C.ar   19  PHE19      -0.0042
     45  CD2      -28.1000   31.3900  -31.8520 C.ar   19  PHE19      -0.0042
     46  CE1      -29.3580   33.0980  -33.5830 C.ar   19  PHE19      -0.0003
     47  CE2      -29.2630   32.0020  -31.4690 C.ar   19  PHE19      -0.0003
     48  CZ       -29.8930   32.8490  -32.3320 C.ar   19  PHE19      -0.0000
     49  N        -24.4450   28.4830  -34.1760 N.am   20  GLY20      -0.1940
     50  CA       -23.1460   28.0720  -34.6760 C.3    20  GLY20       0.2014
     51  C        -22.4810   26.9850  -33.8640 C.2    20  GLY20       0.2638
     52  O        -22.8070   26.7600  -32.6940 O.2    20  GLY20      -0.2714
     53  N        -21.5230   26.3200  -34.5060 N.am   21  LYS21      -0.1977
     54  CA       -20.7200   25.2870  -33.8640 C.3    21  LYS21       0.1596
     55  C        -19.7020   25.8700  -32.8850 C.2    21  LYS21       0.2287
     56  O        -19.2440   27.0070  -33.0260 O.2    21  LYS21      -0.2864
     57  CB       -19.9870   24.4580  -34.9190 C.3    21  LYS21       0.0298
     58  CG       -20.9020   23.6400  -35.8150 C.3    21  LYS21       0.0038
     59  CD       -20.1180   22.9030  -36.8900 C.3    21  LYS21       0.0206
     60  CE       -20.8140   21.6060  -37.2810 C.3    21  LYS21       0.1093
     61  NZ       -20.0120   20.7900  -38.2340 N.3    21  LYS21      -0.1314
     62  N        -15.9690   25.2120  -31.4150 N.3    23  LYS23      -0.1245
     63  CA       -14.7490   24.5340  -31.8390 C.3    23  LYS23       0.1561
     64  C        -13.5830   24.8250  -30.9060 C.2    23  LYS23       0.2260
     65  O        -13.3820   25.9710  -30.4890 O.2    23  LYS23      -0.2867
     66  CB       -14.3700   24.9250  -33.2690 C.3    23  LYS23       0.0271
     67  CG       -15.2030   24.2310  -34.3250 C.3    23  LYS23       0.0035
     68  CD       -14.8840   24.7430  -35.7130 C.3    23  LYS23       0.0206
     69  CE       -15.5440   23.8730  -36.7690 C.3    23  LYS23       0.1093
     70  NZ       -14.6990   22.6980  -37.1240 N.3    23  LYS23      -0.1314
     71  N        -18.6860   29.9560  -32.6680 N.3    38  ILE38      -0.1245
     72  CA       -18.8150   30.6760  -33.9320 C.3    38  ILE38       0.1561
     73  C        -20.2760   31.0540  -34.1410 C.2    38  ILE38       0.2260
     74  O        -21.1460   30.1800  -34.1850 O.2    38  ILE38      -0.2867
     75  CB       -18.2940   29.8290  -35.1030 C.3    38  ILE38       0.0252
     76  CG1      -16.8660   29.3570  -34.8180 C.3    38  ILE38       0.0019
     77  CG2      -18.3660   30.6140  -36.4050 C.3    38  ILE38       0.0019
     78  CD1      -16.3070   28.4150  -35.8630 C.3    38  ILE38       0.0001
     79  N        -22.7290   32.8160  -36.7750 N.3    40  ASN40      -0.1240
     80  CA       -22.9250   33.3530  -38.1170 C.3    40  ASN40       0.1653
     81  C        -23.8830   34.5360  -38.0830 C.2    40  ASN40       0.2266
     82  O        -25.0200   34.4130  -37.6160 O.2    40  ASN40      -0.2867
     83  CB       -23.4510   32.2760  -39.0610 C.3    40  ASN40       0.1155
     84  CG       -23.6290   32.7910  -40.4790 C.2    40  ASN40       0.2627
     85  OD1      -24.7150   33.2260  -40.8630 O.2    40  ASN40      -0.2716
     86  ND2      -22.5540   32.7640  -41.2580 N.am   40  ASN40      -0.0877
     87  N        -27.2550   34.2440  -39.8080 N.3    43  LYS43      -0.1245
     88  CA       -28.1770   33.3640  -39.1010 C.3    43  LYS43       0.1561
     89  C        -28.8210   34.0750  -37.9190 C.2    43  LYS43       0.2260
     90  O        -30.0130   33.8860  -37.6550 O.2    43  LYS43      -0.2867
     91  CB       -27.4530   32.1010  -38.6390 C.3    43  LYS43       0.0271
     92  CG       -27.1190   31.1570  -39.7720 C.3    43  LYS43       0.0035
     93  CD       -27.2350   29.7100  -39.3390 C.3    43  LYS43       0.0206
     94  CE       -27.3050   28.7940  -40.5460 C.3    43  LYS43       0.1093
     95  NZ       -28.4480   29.1530  -41.4320 N.3    43  LYS43      -0.1314
     96  N        -18.9630   36.6720  -39.4810 N.3    80  ASP80      -0.1239
     97  CA       -19.1030   35.8440  -38.2880 C.3    80  ASP80       0.1674
     98  C        -18.6290   36.5520  -37.0270 C.2    80  ASP80       0.2266
     99  O        -17.7740   37.4410  -37.0710 O.2    80  ASP80      -0.2867
    100  CB       -18.3280   34.5280  -38.4380 C.3    80  ASP80       0.1410
    101  CG       -18.9180   33.6210  -39.4990 C.2    80  ASP80       0.3668
    102  OD1      -19.9360   32.9590  -39.2110 O.co2  80  ASP80      -0.2456
    103  OD2      -18.3750   33.5840  -40.6220 O.co2  80  ASP80      -0.2456
    104  N        -16.9500   35.5800  -33.3150 N.3    82  PHE82      -0.1241
    105  CA       -16.2080   34.5380  -32.6100 C.3    82  PHE82       0.1605
    106  C        -16.1600   34.8380  -31.1170 C.2    82  PHE82       0.2264
    107  O        -15.6080   35.8640  -30.7050 O.2    82  PHE82      -0.2867
    108  CB       -14.7900   34.4120  -33.1630 C.3    82  PHE82       0.0534
    109  CG       -14.7360   33.9420  -34.5820 C.ar   82  PHE82      -0.0203
    110  CD1      -14.9110   34.8320  -35.6270 C.ar   82  PHE82      -0.0042
    111  CD2      -14.5030   32.6080  -34.8720 C.ar   82  PHE82      -0.0042
    112  CE1      -14.8620   34.4000  -36.9390 C.ar   82  PHE82      -0.0003
    113  CE2      -14.4500   32.1690  -36.1810 C.ar   82  PHE82      -0.0003
    114  CZ       -14.6300   33.0670  -37.2170 C.ar   82  PHE82      -0.0000
@<TRIPOS>BOND
     1    95    94    1
     2    86    84   am
     3     7     5    1
     4    85    84    2
     5   103   101   ar
     6    94    93    1
     7    84    83    1
     8     1     2    1
     9    87    88    1
    10     2     5    1
    11     2     3    1
    12    92    93    1
    13    92    91    1
    14     5     6    1
    15   101   102   ar
    16   101   100    1
    17    96    97    1
    18    88    91    1
    19    88    89    1
    20    83    80    1
    21     3     4    2
    22   100    97    1
    23    97    98    1
    24    61    60    1
    25    80    81    1
    26    80    79    1
    27    81    82    2
    28    89    90    2
    29    60    59    1
    30   114   112   ar
    31   114   113   ar
    32    70    69    1
    33    99    98    2
    34   112   110   ar
    35    59    58    1
    36    69    68    1
    37    77    75    1
    38   113   111   ar
    39    41    40    2
    40    11    10    2
    41    14    13    1
    42    78    76    1
    43    58    57    1
    44    68    67    1
    45   110   109   ar
    46    12    13    1
    47    12     9    1
    48    34    33    2
    49    75    76    1
    50    75    72    1
    51    13    15    1
    52    40    39    1
    53    40    49   am
    54    19    18    2
    55    10     9    1
    56    10    16   am
    57    57    54    1
    58     8     9    1
    59   111   109   ar
    60    50    49    1
    61    50    51    1
    62   109   108    1
    63    53    51   am
    64    53    54    1
    65    39    42    1
    66    39    38    1
    67    67    66    1
    68    18    17    1
    69    74    73    2
    70    73    72    1
    71    25    24    1
    72    33    38   am
    73    33    32    1
    74    17    16    1
    75    44    46   ar
    76    44    43   ar
    77    72    71    1
    78    26    24    1
    79    51    52    2
    80    54    55    1
    81    30    29    2
    82    46    48   ar
    83    42    43    1
    84   104   105    1
    85    66    63    1
    86   108   105    1
    87    24    21    1
    88    43    45   ar
    89    32    35    1
    90    32    31    1
    91    56    55    2
    92   105   106    1
    93    29    31   am
    94    29    28    1
    95    35    36    1
    96    35    37    1
    97    48    47   ar
    98    21    22    1
    99    21    20    1
   100    27    28    1
   101    27    22   am
   102    45    47   ar
   103    63    62    1
   104    63    64    1
   105    22    23    2
   106   106   107    2
   107    64    65    2
