@<TRIPOS>MOLECULE
tmp/6c9hA01.pdb
 150 140 0 0 0
SMALL
GASTEIGER

@<TRIPOS>ATOM
      1  N        -16.2370   20.8130  -30.7380 N.3    14  LEU14      -0.1231
      2  CA       -16.7110   20.3450  -29.4360 C.3    14  LEU14       0.1693
      3  C        -18.2060   20.0360  -29.4260 C.2    14  LEU14       0.2593
      4  O        -18.6320   19.0310  -28.8460 O.2    14  LEU14      -0.2718
      5  CB       -16.3810   21.3760  -28.3590 C.3    14  LEU14       0.0284
      6  CG       -14.8920   21.5920  -28.1060 C.3    14  LEU14       0.0019
      7  CD1      -14.6810   22.7330  -27.1290 C.3    14  LEU14       0.0001
      8  CD2      -14.2640   20.3070  -27.5860 C.3    14  LEU14       0.0001
      9  N        -19.0160   20.9000  -30.0250 N.am   15  GLY15      -0.1942
     10  CA       -20.4610   20.7880  -29.9290 C.3    15  GLY15       0.2014
     11  C        -21.1120   21.6770  -30.9620 C.2    15  GLY15       0.2638
     12  O        -20.4520   22.4910  -31.6110 O.2    15  GLY15      -0.2714
     13  N        -22.4260   21.5270  -31.1000 N.am   16  VAL16      -0.1977
     14  CA       -23.1500   22.3380  -32.0660 C.3    16  VAL16       0.1596
     15  C        -24.1700   23.2060  -31.3460 C.2    16  VAL16       0.2287
     16  O        -24.6500   22.8850  -30.2560 O.2    16  VAL16      -0.2864
     17  CB       -23.8320   21.4420  -33.1280 C.3    16  VAL16       0.0276
     18  CG1      -24.6990   22.2510  -34.0860 C.3    16  VAL16       0.0022
     19  CG2      -22.7850   20.6560  -33.8930 C.3    16  VAL16       0.0022
     20  N        -19.3640   25.0710  -31.8710 N.3    22  VAL22      -0.1245
     21  CA       -18.3350   25.4000  -30.8870 C.3    22  VAL22       0.1561
     22  C        -17.1050   24.5560  -31.1910 C.2    22  VAL22       0.2260
     23  O        -17.1840   23.3230  -31.2240 O.2    22  VAL22      -0.2867
     24  CB       -18.8220   25.1430  -29.4530 C.3    22  VAL22       0.0252
     25  CG1      -17.6960   25.3750  -28.4590 C.3    22  VAL22       0.0019
     26  CG2      -20.0170   26.0170  -29.1290 C.3    22  VAL22       0.0019
     27  N        -12.2340   27.5230  -26.0850 N.3    35  ALA35      -0.1245
     28  CA       -13.4170   27.0950  -26.8220 C.3    35  ALA35       0.1562
     29  C        -13.9730   28.2960  -27.5740 C.2    35  ALA35       0.2260
     30  O        -14.3070   29.3150  -26.9600 O.2    35  ALA35      -0.2867
     31  CB       -14.4690   26.5060  -25.8860 C.3    35  ALA35       0.0290
     32  N        -16.8770   29.7920  -29.8430 N.3    37  LYS37      -0.1245
     33  CA       -18.2590   29.6660  -30.2960 C.3    37  LYS37       0.1561
     34  C        -18.4420   30.5660  -31.5130 C.2    37  LYS37       0.2260
     35  O        -18.3510   31.7940  -31.4060 O.2    37  LYS37      -0.2867
     36  CB       -19.2340   30.0380  -29.1820 C.3    37  LYS37       0.0271
     37  CG       -20.7000   29.8030  -29.5240 C.3    37  LYS37       0.0035
     38  CD       -21.5950   30.1390  -28.3460 C.3    37  LYS37       0.0206
     39  CE       -23.0520   29.8330  -28.6470 C.3    37  LYS37       0.1093
     40  NZ       -23.9330   30.1590  -27.4900 N.3    37  LYS37      -0.1314
     41  N        -18.3570   29.3640  -16.9520 N.3    69  ILE69      -0.1245
     42  CA       -17.4300   29.4760  -18.0790 C.3    69  ILE69       0.1561
     43  C        -17.1410   30.9400  -18.3830 C.2    69  ILE69       0.2260
     44  O        -18.0590   31.7440  -18.5820 O.2    69  ILE69      -0.2867
     45  CB       -17.9950   28.7610  -19.3160 C.3    69  ILE69       0.0252
     46  CG1      -17.9770   27.2430  -19.1260 C.3    69  ILE69       0.0019
     47  CG2      -17.2050   29.1400  -20.5640 C.3    69  ILE69       0.0019
     48  CD1      -16.5820   26.6570  -19.0820 C.3    69  ILE69       0.0001
     49  N        -13.8390   31.4740  -25.3280 N.3    85  MET85      -0.1230
     50  CA       -14.2030   31.1300  -23.9630 C.3    85  MET85       0.1702
     51  C        -13.1810   30.1630  -23.3800 C.2    85  MET85       0.2592
     52  O        -12.3980   29.5480  -24.1090 O.2    85  MET85      -0.2718
     53  CB       -15.6030   30.5120  -23.9160 C.3    85  MET85       0.0401
     54  CG       -16.6880   31.4160  -24.4680 C.3    85  MET85       0.0596
     55  SD       -18.2340   30.5240  -24.7040 S.3    85  MET85      -0.1393
     56  CE       -17.7260   29.3040  -25.9140 C.3    85  MET85       0.0692
     57  N        -13.1870   30.0380  -22.0530 N.am   86  GLU86      -0.1966
     58  CA       -12.2840   29.0950  -21.4110 C.3    86  GLU86       0.1733
     59  C        -12.6640   27.6780  -21.8210 C.2    86  GLU86       0.2616
     60  O        -13.8200   27.3910  -22.1410 O.2    86  GLU86      -0.2715
     61  CB       -12.3120   29.2460  -19.8870 C.3    86  GLU86       0.0429
     62  CG       -13.5720   28.7450  -19.2040 C.3    86  GLU86       0.1163
     63  CD       -13.4710   28.7990  -17.6880 C.2    86  GLU86       0.3649
     64  OE1      -12.6850   28.0140  -17.1120 O.co2  86  GLU86      -0.2457
     65  OE2      -14.1840   29.6190  -17.0730 O.co2  86  GLU86      -0.2457
     66  N        -11.6760   26.7890  -21.8280 N.am   87  TYR87      -0.1960
     67  CA       -11.8790   25.4070  -22.2370 C.3    87  TYR87       0.1771
     68  C        -11.6010   24.4650  -21.0750 C.2    87  TYR87       0.2619
     69  O        -10.5320   24.5320  -20.4600 O.2    87  TYR87      -0.2715
     70  CB       -10.9780   25.0640  -23.4260 C.3    87  TYR87       0.0574
     71  CG       -10.8880   23.5890  -23.7190 C.ar   87  TYR87      -0.0198
     72  CD1      -11.9220   22.9280  -24.3670 C.ar   87  TYR87      -0.0009
     73  CD2       -9.7690   22.8550  -23.3490 C.ar   87  TYR87      -0.0009
     74  CE1      -11.8460   21.5770  -24.6370 C.ar   87  TYR87       0.0417
     75  CE2       -9.6840   21.5030  -23.6150 C.ar   87  TYR87       0.0417
     76  CZ       -10.7250   20.8700  -24.2590 C.ar   87  TYR87       0.1957
     77  OH       -10.6470   19.5240  -24.5270 O.3    87  TYR87      -0.2866
     78  N        -12.5620   23.5930  -20.7780 N.am   88  VAL88      -0.1963
     79  CA       -12.4180   22.5770  -19.7400 C.3    88  VAL88       0.1727
     80  C        -12.4380   21.2030  -20.3990 C.2    88  VAL88       0.2616
     81  O        -13.3050   20.9180  -21.2350 O.2    88  VAL88      -0.2715
     82  CB       -13.5180   22.7070  -18.6730 C.3    88  VAL88       0.0290
     83  CG1      -13.2500   23.9190  -17.7950 C.3    88  VAL88       0.0023
     84  CG2      -14.8830   22.8270  -19.3280 C.3    88  VAL88       0.0023
     85  N        -11.4830   20.3520  -20.0220 N.am   89  SER89      -0.1950
     86  CA       -11.2150   19.1070  -20.7330 C.3    89  SER89       0.1924
     87  C        -12.0950   17.9430  -20.2940 C.2    89  SER89       0.2314
     88  O        -12.1310   16.9210  -20.9880 O.2    89  SER89      -0.2863
     89  CB        -9.7450   18.7170  -20.5590 C.3    89  SER89       0.2116
     90  OG        -9.4310   18.5300  -19.1900 O.3    89  SER89      -0.2180
     91  N        -15.3350   17.6380  -20.1900 N.3    91  GLY91      -0.1210
     92  CA       -16.5510   17.4720  -20.9550 C.3    91  GLY91       0.1956
     93  C        -17.7980   17.5990  -20.0990 C.2    91  GLY91       0.2611
     94  O        -17.7820   18.1340  -18.9860 O.2    91  GLY91      -0.2717
     95  N        -18.8990   17.0870  -20.6400 N.am   92  GLU92      -0.1979
     96  CA       -20.1880   17.1760  -19.9680 C.3    92  GLU92       0.1602
     97  C        -20.2270   16.3870  -18.6670 C.2    92  GLU92       0.2287
     98  O        -19.6310   15.3120  -18.5480 O.2    92  GLU92      -0.2864
     99  CB       -21.3000   16.6690  -20.8840 C.3    92  GLU92       0.0415
    100  CG       -21.5370   17.5020  -22.1180 C.3    92  GLU92       0.1163
    101  CD       -22.6970   16.9780  -22.9410 C.2    92  GLU92       0.3649
    102  OE1      -23.2940   15.9560  -22.5420 O.co2  92  GLU92      -0.2457
    103  OE2      -23.0100   17.5850  -23.9850 O.co2  92  GLU92      -0.2457
    104  N        -28.7870   21.9590  -16.6680 N.3   133  LYS133     -0.1245
    105  CA       -28.8390   20.5060  -16.8040 C.3   133  LYS133      0.1561
    106  C        -27.4250   19.9460  -16.9390 C.2   133  LYS133      0.2260
    107  O        -26.5010   20.6830  -17.3070 O.2   133  LYS133     -0.2867
    108  CB       -29.6970   20.1020  -18.0060 C.3   133  LYS133      0.0271
    109  CG       -29.2280   20.6490  -19.3390 C.3   133  LYS133      0.0035
    110  CD       -30.2050   20.2620  -20.4360 C.3   133  LYS133      0.0206
    111  CE       -29.8180   20.8730  -21.7680 C.3   133  LYS133      0.1093
    112  NZ       -30.8180   20.5590  -22.8250 N.3   133  LYS133     -0.1314
    113  N        -25.9630   18.3670  -19.1400 N.3   135  GLU135     -0.1231
    114  CA       -25.3810   18.5800  -20.4590 C.3   135  GLU135      0.1699
    115  C        -24.7050   19.9410  -20.5530 C.2   135  GLU135      0.2592
    116  O        -23.7050   20.0900  -21.2670 O.2   135  GLU135     -0.2718
    117  CB       -26.4600   18.4450  -21.5340 C.3   135  GLU135      0.0402
    118  CG       -27.0100   17.0340  -21.7080 C.3   135  GLU135      0.1161
    119  CD       -28.1370   16.7140  -20.7410 C.2   135  GLU135      0.3649
    120  OE1      -28.2580   17.4040  -19.7060 O.co2 135  GLU135     -0.2457
    121  OE2      -28.9090   15.7730  -21.0240 O.co2 135  GLU135     -0.2457
    122  N        -25.2350   20.9380  -19.8520 N.am  136  ASN136     -0.1974
    123  CA       -24.6920   22.2880  -19.8610 C.3   136  ASN136      0.1688
    124  C        -23.7430   22.5500  -18.7000 C.2   136  ASN136      0.2292
    125  O        -23.2420   23.6700  -18.5650 O.2   136  ASN136     -0.2864
    126  CB       -25.8320   23.3080  -19.8420 C.3   136  ASN136      0.1181
    127  CG       -26.5650   23.3750  -21.1620 C.2   136  ASN136      0.2629
    128  OD1      -25.9900   23.1090  -22.2160 O.2   136  ASN136     -0.2716
    129  ND2      -27.8450   23.7140  -21.1110 N.am  136  ASN136     -0.0877
    130  N        -20.1700   21.5630  -17.3480 N.3   138  LEU138     -0.1245
    131  CA       -18.9380   20.9350  -17.7880 C.3   138  LEU138      0.1561
    132  C        -18.0270   20.6840  -16.5890 C.2   138  LEU138      0.2260
    133  O        -18.3260   21.0630  -15.4550 O.2   138  LEU138     -0.2867
    134  CB       -18.2510   21.8020  -18.8420 C.3   138  LEU138      0.0270
    135  CG       -19.1360   22.2360  -20.0100 C.3   138  LEU138      0.0019
    136  CD1      -18.4120   23.2540  -20.8670 C.3   138  LEU138      0.0001
    137  CD2      -19.5570   21.0330  -20.8390 C.3   138  LEU138      0.0001
    138  N        -22.3350   26.5180  -18.5180 N.3   148  ALA148     -0.1231
    139  CA       -22.1230   26.9310  -19.8990 C.3   148  ALA148      0.1694
    140  C        -23.4560   27.1370  -20.6130 C.2   148  ALA148      0.2592
    141  O        -24.5280   26.8200  -20.0880 O.2   148  ALA148     -0.2718
    142  CB       -21.2690   25.9080  -20.6570 C.3   148  ALA148      0.0304
    143  N        -23.3650   27.6930  -21.8260 N.am  149  ASP149     -0.1974
    144  CA       -24.4930   27.8750  -22.7470 C.3   149  ASP149      0.1709
    145  C        -25.6040   28.7620  -22.1720 C.2   149  ASP149      0.2293
    146  O        -26.6780   28.2990  -21.7860 O.2   149  ASP149     -0.2864
    147  CB       -25.0640   26.5220  -23.1820 C.3   149  ASP149      0.1436
    148  CG       -25.8140   26.6080  -24.4990 C.2   149  ASP149      0.3671
    149  OD1      -26.1090   27.7380  -24.9460 O.co2 149  ASP149     -0.2456
    150  OD2      -26.1070   25.5470  -25.0860 O.co2 149  ASP149     -0.2456
@<TRIPOS>BOND
     1    18    17    1
     2    19    17    1
     3    17    14    1
     4    14    15    1
     5    14    13    1
     6    20    21    1
     7    12    11    2
     8    34    35    2
     9    34    33    1
    10    15    16    2
    11    23    22    2
    12    22    21    1
    13    13    11   am
    14    11    10    1
    15    21    24    1
    16     1     2    1
    17    33    32    1
    18    33    36    1
    19     9    10    1
    20     9     3   am
    21    37    36    1
    22    37    38    1
    23    24    26    1
    24    24    25    1
    25     2     3    1
    26     2     5    1
    27     3     4    2
    28    39    38    1
    29    39    40    1
    30     5     6    1
    31     6     8    1
    32     6     7    1
    33    29    30    2
    34    29    28    1
    35    28    27    1
    36    28    31    1
    37    56    55    1
    38    49    50    1
    39   150   148   ar
    40   149   148   ar
    41    55    54    1
    42    74    72   ar
    43    74    76   ar
    44    77    76    1
    45   148   147    1
    46    54    53    1
    47    72    71   ar
    48    76    75   ar
    49    52    51    2
    50   103   101   ar
    51    50    53    1
    52    50    51    1
    53    71    70    1
    54    71    73   ar
    55    75    73   ar
    56    70    67    1
    57    51    57   am
    58   147   144    1
    59   101   102   ar
    60   101   100    1
    61   112   111    1
    62   144   145    1
    63   144   143    1
    64    67    66    1
    65    67    68    1
    66   128   127    2
    67   145   146    2
    68    60    59    2
    69   100    99    1
    70    57    58    1
    71    66    59   am
    72   143   140   am
    73    59    58    1
    74   111   110    1
    75   118   117    1
    76   118   119    1
    77   117   114    1
    78    58    61    1
    79   116   115    2
    80    81    80    2
    81   127   129   am
    82   127   126    1
    83    68    78   am
    84    68    69    2
    85   121   119   ar
    86    88    87    2
    87    92    91    1
    88    92    93    1
    89    99    96    1
    90   136   135    1
    91   137   135    1
    92    78    79    1
    93   119   120   ar
    94    86    89    1
    95    86    87    1
    96    86    85    1
    97   142   139    1
    98    95    93   am
    99    95    96    1
   100   140   141    2
   101   140   139    1
   102    47    45    1
   103    89    90    1
   104   115   114    1
   105   115   122   am
   106   114   113    1
   107   110   109    1
   108    80    85   am
   109    80    79    1
   110    93    94    2
   111   135   134    1
   112    96    97    1
   113   139   138    1
   114    61    62    1
   115   123   122    1
   116   123   126    1
   117   123   124    1
   118    79    82    1
   119   109   108    1
   120    84    82    1
   121    45    46    1
   122    45    42    1
   123    62    63    1
   124    46    48    1
   125   134   131    1
   126   124   125    2
   127    82    83    1
   128    97    98    2
   129    44    43    2
   130    43    42    1
   131    42    41    1
   132   108   105    1
   133   131   130    1
   134   131   132    1
   135    63    64   ar
   136    63    65   ar
   137   107   106    2
   138   106   105    1
   139   105   104    1
   140   132   133    2
