@<TRIPOS>MOLECULE
tmp/6c9jA01.pdb
 165 156 0 0 0
SMALL
GASTEIGER

@<TRIPOS>ATOM
      1  N        -15.3940   20.3750  -30.9580 N.3    14  LEU14      -0.1231
      2  CA       -15.7710   19.9050  -29.6300 C.3    14  LEU14       0.1693
      3  C        -17.2620   19.5860  -29.5590 C.2    14  LEU14       0.2593
      4  O        -17.6640   18.6440  -28.8620 O.2    14  LEU14      -0.2718
      5  CB       -15.3930   20.9520  -28.5820 C.3    14  LEU14       0.0284
      6  CG       -13.9000   21.2700  -28.5010 C.3    14  LEU14       0.0019
      7  CD1      -13.6610   22.5530  -27.7200 C.3    14  LEU14       0.0001
      8  CD2      -13.1580   20.1120  -27.8680 C.3    14  LEU14       0.0001
      9  N        -18.0820   20.3570  -30.2630 N.am   15  GLY15      -0.1942
     10  CA       -19.5110   20.1280  -30.3050 C.3    15  GLY15       0.2014
     11  C        -20.2060   21.3190  -30.9250 C.2    15  GLY15       0.2639
     12  O        -19.5790   22.3260  -31.2670 O.2    15  GLY15      -0.2714
     13  N        -21.5260   21.2030  -31.0340 N.am   16  VAL16      -0.1963
     14  CA       -22.3690   22.2900  -31.5180 C.3    16  VAL16       0.1727
     15  C        -23.2880   22.7340  -30.3930 C.2    16  VAL16       0.2616
     16  O        -24.0140   21.9170  -29.8160 O.2    16  VAL16      -0.2715
     17  CB       -23.1920   21.8750  -32.7470 C.3    16  VAL16       0.0290
     18  CG1      -24.1060   23.0130  -33.1640 C.3    16  VAL16       0.0023
     19  CG2      -22.2700   21.4780  -33.8780 C.3    16  VAL16       0.0023
     20  N        -23.2640   24.0270  -30.0960 N.am   17  GLY17      -0.1955
     21  CA       -24.0070   24.5900  -28.9890 C.3    17  GLY17       0.1869
     22  C        -25.3950   25.0250  -29.3980 C.2    17  GLY17       0.2309
     23  O        -25.9410   24.5870  -30.4140 O.2    17  GLY17      -0.2863
     24  N        -18.5850   24.8610  -32.0470 N.3    22  VAL22      -0.1245
     25  CA       -17.4590   25.0650  -31.1340 C.3    22  VAL22       0.1561
     26  C        -16.3020   24.1310  -31.4670 C.2    22  VAL22       0.2260
     27  O        -16.4480   22.9040  -31.3970 O.2    22  VAL22      -0.2867
     28  CB       -17.8720   24.8660  -29.6730 C.3    22  VAL22       0.0252
     29  CG1      -16.6670   25.0790  -28.7950 C.3    22  VAL22       0.0019
     30  CG2      -18.9770   25.8310  -29.3030 C.3    22  VAL22       0.0019
     31  N        -11.4190   26.9000  -26.3630 N.3    35  ALA35      -0.1245
     32  CA       -12.6370   26.5140  -27.0600 C.3    35  ALA35       0.1562
     33  C        -13.1580   27.7350  -27.8060 C.2    35  ALA35       0.2260
     34  O        -13.3380   28.8000  -27.2070 O.2    35  ALA35      -0.2867
     35  CB       -13.6820   25.9840  -26.0820 C.3    35  ALA35       0.0290
     36  N        -16.1610   29.2830  -29.9740 N.3    37  LYS37      -0.1245
     37  CA       -17.5400   29.2520  -30.4510 C.3    37  LYS37       0.1561
     38  C        -17.6140   30.1190  -31.7080 C.2    37  LYS37       0.2260
     39  O        -17.1950   31.2800  -31.6850 O.2    37  LYS37      -0.2867
     40  CB       -18.4950   29.7550  -29.3640 C.3    37  LYS37       0.0271
     41  CG       -19.9910   29.6110  -29.6460 C.3    37  LYS37       0.0035
     42  CD       -20.7940   30.1000  -28.4350 C.3    37  LYS37       0.0206
     43  CE       -22.2960   30.0690  -28.6800 C.3    37  LYS37       0.1093
     44  NZ       -23.0910   30.7280  -27.5930 N.3    37  LYS37      -0.1314
     45  N        -17.2190   28.9100  -17.3170 N.3    69  ILE69      -0.1245
     46  CA       -16.2730   28.9920  -18.4300 C.3    69  ILE69       0.1561
     47  C        -15.9970   30.4480  -18.7710 C.2    69  ILE69       0.2260
     48  O        -16.9230   31.2320  -19.0180 O.2    69  ILE69      -0.2867
     49  CB       -16.8070   28.2320  -19.6550 C.3    69  ILE69       0.0252
     50  CG1      -16.7840   26.7240  -19.4120 C.3    69  ILE69       0.0019
     51  CG2      -15.9860   28.5570  -20.8950 C.3    69  ILE69       0.0019
     52  CD1      -15.3910   26.1450  -19.3020 C.3    69  ILE69       0.0001
     53  N        -12.8880   31.0090  -25.6880 N.3    85  MET85      -0.1230
     54  CA       -13.2190   30.6850  -24.3070 C.3    85  MET85       0.1702
     55  C        -12.1970   29.7180  -23.7250 C.2    85  MET85       0.2592
     56  O        -11.4260   29.0880  -24.4540 O.2    85  MET85      -0.2718
     57  CB       -14.6170   30.0650  -24.2000 C.3    85  MET85       0.0401
     58  CG       -15.7130   30.8990  -24.8350 C.3    85  MET85       0.0596
     59  SD       -17.2360   29.9630  -24.9790 S.3    85  MET85      -0.1393
     60  CE       -16.6780   28.6560  -26.0640 C.3    85  MET85       0.0692
     61  N        -12.1970   29.6030  -22.3980 N.am   86  GLU86      -0.1966
     62  CA       -11.2830   28.6710  -21.7530 C.3    86  GLU86       0.1733
     63  C        -11.6690   27.2420  -22.1150 C.2    86  GLU86       0.2616
     64  O        -12.8420   26.9250  -22.3270 O.2    86  GLU86      -0.2715
     65  CB       -11.2790   28.8510  -20.2290 C.3    86  GLU86       0.0429
     66  CG       -12.4520   28.2170  -19.4970 C.3    86  GLU86       0.1163
     67  CD       -12.2730   28.2210  -17.9840 C.2    86  GLU86       0.3649
     68  OE1      -11.4100   27.4670  -17.4800 O.co2  86  GLU86      -0.2457
     69  OE2      -13.0000   28.9700  -17.2950 O.co2  86  GLU86      -0.2457
     70  N        -10.6670   26.3740  -22.1830 N.am   87  TYR87      -0.1960
     71  CA       -10.8660   24.9780  -22.5430 C.3    87  TYR87       0.1771
     72  C        -10.6440   24.0800  -21.3360 C.2    87  TYR87       0.2619
     73  O         -9.6950   24.2790  -20.5710 O.2    87  TYR87      -0.2715
     74  CB        -9.9280   24.5850  -23.6860 C.3    87  TYR87       0.0574
     75  CG        -9.8390   23.1040  -23.9310 C.ar   87  TYR87      -0.0198
     76  CD1      -10.7990   22.4440  -24.6870 C.ar   87  TYR87      -0.0009
     77  CD2       -8.7800   22.3670  -23.4340 C.ar   87  TYR87      -0.0009
     78  CE1      -10.7150   21.0840  -24.9210 C.ar   87  TYR87       0.0417
     79  CE2       -8.6850   21.0100  -23.6640 C.ar   87  TYR87       0.0417
     80  CZ        -9.6540   20.3730  -24.4110 C.ar   87  TYR87       0.1957
     81  OH        -9.5550   19.0200  -24.6350 O.3    87  TYR87      -0.2866
     82  N        -11.5200   23.0880  -21.1720 N.am   88  VAL88      -0.1963
     83  CA       -11.3940   22.0790  -20.1260 C.3    88  VAL88       0.1727
     84  C        -11.3900   20.6960  -20.7650 C.2    88  VAL88       0.2616
     85  O        -12.1540   20.4270  -21.6970 O.2    88  VAL88      -0.2715
     86  CB       -12.5170   22.2070  -19.0760 C.3    88  VAL88       0.0290
     87  CG1      -12.5330   23.6060  -18.4970 C.3    88  VAL88       0.0023
     88  CG2      -13.8670   21.9060  -19.6960 C.3    88  VAL88       0.0023
     89  N        -10.5140   19.8220  -20.2680 N.am   89  SER89      -0.1950
     90  CA       -10.2540   18.5380  -20.9090 C.3    89  SER89       0.1924
     91  C        -11.1490   17.4120  -20.4080 C.2    89  SER89       0.2314
     92  O        -11.1880   16.3500  -21.0380 O.2    89  SER89      -0.2863
     93  CB        -8.7880   18.1400  -20.7150 C.3    89  SER89       0.2116
     94  OG        -8.4930   17.9550  -19.3440 O.3    89  SER89      -0.2180
     95  N        -14.3050   17.1050  -20.3790 N.3    91  GLY91      -0.1210
     96  CA       -15.5170   16.8960  -21.1180 C.3    91  GLY91       0.1956
     97  C        -16.7400   17.1370  -20.2520 C.2    91  GLY91       0.2611
     98  O        -16.7000   17.8250  -19.2330 O.2    91  GLY91      -0.2717
     99  N        -17.8440   16.5420  -20.6820 N.am   92  GLU92      -0.1979
    100  CA       -19.1190   16.7570  -20.0260 C.3    92  GLU92       0.1602
    101  C        -19.2040   15.9770  -18.7260 C.2    92  GLU92       0.2287
    102  O        -18.6750   14.8680  -18.6020 O.2    92  GLU92      -0.2864
    103  CB       -20.2700   16.3230  -20.9340 C.3    92  GLU92       0.0415
    104  CG       -20.3910   17.0890  -22.2310 C.3    92  GLU92       0.1163
    105  CD       -21.5940   16.6440  -23.0320 C.2    92  GLU92       0.3649
    106  OE1      -22.2860   15.7070  -22.5850 O.co2  92  GLU92      -0.2457
    107  OE2      -21.8520   17.2270  -24.1020 O.co2  92  GLU92      -0.2457
    108  N        -27.7750   21.6230  -16.8930 N.3   133  LYS133     -0.1245
    109  CA       -27.8460   20.1670  -16.9920 C.3   133  LYS133      0.1561
    110  C        -26.4410   19.5740  -17.0620 C.2   133  LYS133      0.2260
    111  O        -25.4820   20.2900  -17.3780 O.2   133  LYS133     -0.2867
    112  CB       -28.6530   19.7480  -18.2220 C.3   133  LYS133      0.0271
    113  CG       -28.0960   20.2550  -19.5290 C.3   133  LYS133      0.0035
    114  CD       -28.9360   19.7560  -20.6930 C.3   133  LYS133      0.0206
    115  CE       -28.4600   20.3320  -22.0160 C.3   133  LYS133      0.1093
    116  NZ       -29.2890   19.8320  -23.1450 N.3   133  LYS133     -0.1314
    117  N        -25.0310   17.9270  -19.2440 N.3   135  GLU135     -0.1231
    118  CA       -24.4520   18.0820  -20.5710 C.3   135  GLU135      0.1699
    119  C        -23.7490   19.4260  -20.7180 C.2   135  GLU135      0.2592
    120  O        -22.7740   19.5340  -21.4690 O.2   135  GLU135     -0.2718
    121  CB       -25.5440   17.9300  -21.6310 C.3   135  GLU135      0.0402
    122  CG       -26.1660   16.5360  -21.7070 C.3   135  GLU135      0.1161
    123  CD       -27.2890   16.3280  -20.7020 C.2   135  GLU135      0.3649
    124  OE1      -27.2290   16.9110  -19.5990 O.co2 135  GLU135     -0.2457
    125  OE2      -28.2420   15.5850  -21.0190 O.co2 135  GLU135     -0.2457
    126  N        -24.2330   20.4580  -20.0310 N.am  136  ASN136     -0.1974
    127  CA       -23.6190   21.7790  -20.0650 C.3   136  ASN136      0.1688
    128  C        -22.6750   22.0400  -18.8960 C.2   136  ASN136      0.2292
    129  O        -22.0690   23.1150  -18.8360 O.2   136  ASN136     -0.2864
    130  CB       -24.6960   22.8660  -20.1030 C.3   136  ASN136      0.1181
    131  CG       -25.4250   22.9110  -21.4290 C.2   136  ASN136      0.2629
    132  OD1      -24.8940   22.4920  -22.4580 O.2   136  ASN136     -0.2716
    133  ND2      -26.6490   23.4270  -21.4140 N.am  136  ASN136     -0.0877
    134  N        -19.1980   21.2590  -17.4850 N.3   138  LEU138     -0.1245
    135  CA       -17.9200   20.7390  -17.9470 C.3   138  LEU138      0.1561
    136  C        -16.9580   20.5170  -16.7860 C.2   138  LEU138      0.2260
    137  O        -16.9780   21.2400  -15.7870 O.2   138  LEU138     -0.2867
    138  CB       -17.2900   21.6910  -18.9570 C.3   138  LEU138      0.0270
    139  CG       -18.1310   21.8850  -20.2170 C.3   138  LEU138      0.0019
    140  CD1      -17.4760   22.9060  -21.1250 C.3   138  LEU138      0.0001
    141  CD2      -18.3220   20.5520  -20.9310 C.3   138  LEU138      0.0001
    142  N        -21.2870   26.1960  -18.8630 N.3   148  ALA148     -0.1231
    143  CA       -21.1150   26.7050  -20.2200 C.3   148  ALA148      0.1694
    144  C        -22.4670   26.7550  -20.9280 C.2   148  ALA148      0.2592
    145  O        -23.5010   26.3890  -20.3640 O.2   148  ALA148     -0.2718
    146  CB       -20.1100   25.8470  -20.9930 C.3   148  ALA148      0.0304
    147  N        -22.4420   27.2040  -22.1870 N.am  149  ASP149     -0.1960
    148  CA       -23.6130   27.2680  -23.0680 C.3   149  ASP149      0.1840
    149  C        -24.7160   28.1910  -22.5350 C.2   149  ASP149      0.2622
    150  O        -25.8050   27.7590  -22.1490 O.2   149  ASP149     -0.2715
    151  CB       -24.1790   25.8700  -23.3450 C.3   149  ASP149      0.1450
    152  CG       -24.7200   25.7380  -24.7540 C.2   149  ASP149      0.3671
    153  OD1      -25.1410   26.7760  -25.3140 O.co2 149  ASP149     -0.2456
    154  OD2      -24.7300   24.6120  -25.2980 O.co2 149  ASP149     -0.2456
    155  N        -24.4050   29.4820  -22.5270 N.am  150  PHE150     -0.1974
    156  CA       -25.3530   30.5010  -22.0890 C.3   150  PHE150      0.1639
    157  C        -26.3210   30.9000  -23.2070 C.2   150  PHE150      0.2290
    158  O        -27.0560   31.8800  -23.0600 O.2   150  PHE150     -0.2864
    159  CB       -24.6010   31.7300  -21.5750 C.3   150  PHE150      0.0560
    160  CG       -23.9880   31.5290  -20.2220 C.ar  150  PHE150     -0.0200
    161  CD1      -22.7040   31.0280  -20.1030 C.ar  150  PHE150     -0.0042
    162  CD2      -24.7000   31.8210  -19.0660 C.ar  150  PHE150     -0.0042
    163  CE1      -22.1340   30.8300  -18.8550 C.ar  150  PHE150     -0.0003
    164  CE2      -24.1390   31.6260  -17.8190 C.ar  150  PHE150     -0.0003
    165  CZ       -22.8540   31.1310  -17.7100 C.ar  150  PHE150     -0.0000
@<TRIPOS>BOND
     1    19    17    1
     2    18    17    1
     3    17    14    1
     4    24    25    1
     5    38    39    2
     6    38    37    1
     7    14    13    1
     8    14    15    1
     9    26    27    2
    10    26    25    1
    11    12    11    2
    12    25    28    1
    13    13    11   am
    14     1     2    1
    15    11    10    1
    16    37    36    1
    17    37    40    1
    18    23    22    2
    19    15    20   am
    20    15    16    2
    21    10     9    1
    22     9     3   am
    23    20    21    1
    24    28    30    1
    25    28    29    1
    26    41    40    1
    27    41    42    1
    28     2     3    1
    29     2     5    1
    30     3     4    2
    31    22    21    1
    32    43    42    1
    33    43    44    1
    34     5     6    1
    35     6     8    1
    36     6     7    1
    37    33    34    2
    38    33    32    1
    39    32    31    1
    40    32    35    1
    41    60    59    1
    42    53    54    1
    43   153   152   ar
    44   154   152   ar
    45    59    58    1
    46    78    76   ar
    47    78    80   ar
    48    58    57    1
    49   152   151    1
    50    76    75   ar
    51    81    80    1
    52    56    55    2
    53    80    79   ar
    54    54    57    1
    55    54    55    1
    56   107   105   ar
    57    75    74    1
    58    75    77   ar
    59    55    61   am
    60    74    71    1
    61    79    77   ar
    62   151   148    1
    63   157   158    2
    64   157   156    1
    65   116   115    1
    66   148   149    1
    67   148   147    1
    68   105   106   ar
    69   105   104    1
    70    71    70    1
    71    71    72    1
    72   149   155   am
    73   149   150    2
    74   155   156    1
    75   132   131    2
    76    61    62    1
    77    64    63    2
    78   104   103    1
    79   147   144   am
    80    70    63   am
    81    63    62    1
    82   156   159    1
    83   115   114    1
    84    62    65    1
    85   122   121    1
    86   122   123    1
    87    85    84    2
    88   121   118    1
    89   159   160    1
    90   120   119    2
    91   131   133   am
    92   131   130    1
    93    72    82   am
    94    72    73    2
    95    82    83    1
    96   140   139    1
    97    96    95    1
    98    96    97    1
    99    92    91    2
   100   125   123   ar
   101   146   143    1
   102   103   100    1
   103   141   139    1
   104   144   145    2
   105   144   143    1
   106    90    93    1
   107    90    91    1
   108    90    89    1
   109    51    49    1
   110    84    89   am
   111    84    83    1
   112   119   118    1
   113   119   126   am
   114    93    94    1
   115   123   124   ar
   116   114   113    1
   117    99    97   am
   118    99   100    1
   119   118   117    1
   120    97    98    2
   121    65    66    1
   122   160   161   ar
   123   160   162   ar
   124   143   142    1
   125   139   138    1
   126    83    86    1
   127   161   163   ar
   128   130   127    1
   129   127   126    1
   130   127   128    1
   131   100   101    1
   132    88    86    1
   133    49    50    1
   134    49    46    1
   135   113   112    1
   136    66    67    1
   137    50    52    1
   138    86    87    1
   139   162   164   ar
   140    48    47    2
   141   138   135    1
   142   128   129    2
   143   163   165   ar
   144    47    46    1
   145   101   102    2
   146    46    45    1
   147   112   109    1
   148    67    68   ar
   149    67    69   ar
   150   135   134    1
   151   135   136    1
   152   164   165   ar
   153   111   110    2
   154   110   109    1
   155   109   108    1
   156   136   137    2
