@<TRIPOS>MOLECULE
tmp/6c9jA00.pdb
 92 83 0 0 0
SMALL
GASTEIGER

@<TRIPOS>ATOM
      1  N         -6.2720   26.3360  -40.5810 N.3     3  VAL3       -0.1245
      2  CA        -7.1660   27.3950  -40.1270 C.3     3  VAL3        0.1561
      3  C         -6.6220   27.9480  -38.8190 C.2     3  VAL3        0.2260
      4  O         -6.4180   27.2040  -37.8550 O.2     3  VAL3       -0.2867
      5  CB        -8.6020   26.8800  -39.9530 C.3     3  VAL3        0.0252
      6  CG1       -9.5110   28.0120  -39.5080 C.3     3  VAL3        0.0019
      7  CG2       -9.1120   26.2570  -41.2410 C.3     3  VAL3        0.0019
      8  N         -6.8680   26.1670  -35.1950 N.3    10  LEU10      -0.1231
      9  CA        -8.1440   25.5200  -34.9140 C.3    10  LEU10       0.1693
     10  C         -8.1230   24.0390  -35.2750 C.2    10  LEU10       0.2592
     11  O         -7.7420   23.6570  -36.3870 O.2    10  LEU10      -0.2718
     12  CB        -9.2790   26.2290  -35.6510 C.3    10  LEU10       0.0284
     13  CG        -9.5090   27.6570  -35.1590 C.3    10  LEU10       0.0019
     14  CD1      -10.7310   28.2770  -35.8080 C.3    10  LEU10       0.0001
     15  CD2       -9.6580   27.6540  -33.6500 C.3    10  LEU10       0.0001
     16  N         -8.5170   23.2100  -34.3110 N.am   11  GLY11      -0.1957
     17  CA        -8.5470   21.7670  -34.4450 C.3    11  GLY11       0.1869
     18  C         -9.9260   21.1490  -34.5860 C.2    11  GLY11       0.2309
     19  O        -10.8390   21.7350  -35.1810 O.2    11  GLY11      -0.2863
     20  N        -21.5260   21.2030  -31.0340 N.3    16  VAL16      -0.1245
     21  CA       -22.3690   22.2900  -31.5180 C.3    16  VAL16       0.1561
     22  C        -23.2880   22.7340  -30.3930 C.2    16  VAL16       0.2260
     23  O        -24.0140   21.9170  -29.8160 O.2    16  VAL16      -0.2867
     24  CB       -23.1920   21.8750  -32.7470 C.3    16  VAL16       0.0252
     25  CG1      -24.1060   23.0130  -33.1640 C.3    16  VAL16       0.0019
     26  CG2      -22.2700   21.4780  -33.8780 C.3    16  VAL16       0.0019
     27  N        -24.4310   28.2250  -33.0920 N.3    20  GLY20      -0.1210
     28  CA       -23.0910   28.0770  -33.6310 C.3    20  GLY20       0.1956
     29  C        -22.3480   26.8100  -33.2270 C.2    20  GLY20       0.2611
     30  O        -22.8200   25.9670  -32.4620 O.2    20  GLY20      -0.2717
     31  N        -21.1360   26.6950  -33.7730 N.am   21  LYS21      -0.1979
     32  CA       -20.2910   25.5120  -33.6680 C.3    21  LYS21       0.1596
     33  C        -19.0520   25.8310  -32.8350 C.2    21  LYS21       0.2287
     34  O        -18.5210   26.9420  -32.9070 O.2    21  LYS21      -0.2864
     35  CB       -19.9010   25.0450  -35.0740 C.3    21  LYS21       0.0298
     36  CG       -19.1090   23.7590  -35.1620 C.3    21  LYS21       0.0038
     37  CD       -19.0340   23.2920  -36.6190 C.3    21  LYS21       0.0206
     38  CE       -18.3540   21.9390  -36.7480 C.3    21  LYS21       0.1093
     39  NZ       -18.4240   21.4020  -38.1340 N.3    21  LYS21      -0.1314
     40  N        -15.1440   24.7120  -31.7920 N.3    23  LYS23      -0.1245
     41  CA       -13.9440   23.9530  -32.1210 C.3    23  LYS23       0.1561
     42  C        -12.8150   24.2680  -31.1450 C.2    23  LYS23       0.2260
     43  O        -12.7080   25.3870  -30.6290 O.2    23  LYS23      -0.2867
     44  CB       -13.4720   24.2450  -33.5420 C.3    23  LYS23       0.0271
     45  CG       -14.4780   23.8430  -34.5720 C.3    23  LYS23       0.0035
     46  CD       -13.9170   23.9310  -35.9590 C.3    23  LYS23       0.0206
     47  CE       -14.8910   23.3100  -36.9150 C.3    23  LYS23       0.1093
     48  NZ       -14.3790   23.3480  -38.3040 N.3    23  LYS23      -0.1314
     49  N        -18.1390   29.5680  -32.8020 N.3    38  ILE38      -0.1245
     50  CA       -18.1900   30.2580  -34.0930 C.3    38  ILE38       0.1561
     51  C        -19.6300   30.6190  -34.4300 C.2    38  ILE38       0.2260
     52  O        -20.4760   29.7380  -34.6200 O.2    38  ILE38      -0.2867
     53  CB       -17.5770   29.4160  -35.2160 C.3    38  ILE38       0.0252
     54  CG1      -16.1160   29.0840  -34.9120 C.3    38  ILE38       0.0019
     55  CG2      -17.6830   30.1540  -36.5230 C.3    38  ILE38       0.0019
     56  CD1      -15.4910   28.1220  -35.9030 C.3    38  ILE38       0.0001
     57  N        -21.8670   32.4500  -37.1760 N.3    40  ASN40      -0.1240
     58  CA       -21.9670   33.0500  -38.5000 C.3    40  ASN40       0.1653
     59  C        -22.8970   34.2530  -38.4640 C.2    40  ASN40       0.2266
     60  O        -24.0410   34.1540  -38.0060 O.2    40  ASN40      -0.2867
     61  CB       -22.4690   32.0410  -39.5270 C.3    40  ASN40       0.1155
     62  CG       -22.5010   32.6170  -40.9260 C.2    40  ASN40       0.2627
     63  OD1      -23.5590   33.0040  -41.4210 O.2    40  ASN40      -0.2716
     64  ND2      -21.3400   32.6900  -41.5700 N.am   40  ASN40      -0.0877
     65  N        -26.1430   33.9220  -40.1550 N.3    43  LYS43      -0.1245
     66  CA       -27.0450   32.9930  -39.4860 C.3    43  LYS43       0.1561
     67  C        -27.7160   33.6550  -38.2900 C.2    43  LYS43       0.2260
     68  O        -28.9030   33.4220  -38.0350 O.2    43  LYS43      -0.2867
     69  CB       -26.3050   31.7260  -39.0630 C.3    43  LYS43       0.0271
     70  CG       -27.2380   30.5640  -38.7780 C.3    43  LYS43       0.0035
     71  CD       -26.4880   29.3220  -38.3330 C.3    43  LYS43       0.0206
     72  CE       -27.4540   28.1820  -38.0360 C.3    43  LYS43       0.1093
     73  NZ       -26.7620   26.9920  -37.4650 N.3    43  LYS43      -0.1314
     74  N        -17.9070   36.3170  -39.7160 N.3    80  ASP80      -0.1239
     75  CA       -18.1090   35.4630  -38.5470 C.3    80  ASP80       0.1674
     76  C        -17.6520   36.1460  -37.2640 C.2    80  ASP80       0.2266
     77  O        -16.8290   37.0640  -37.2790 O.2    80  ASP80      -0.2867
     78  CB       -17.3690   34.1270  -38.7080 C.3    80  ASP80       0.1410
     79  CG       -17.9160   33.2850  -39.8500 C.2    80  ASP80       0.3668
     80  OD1      -19.0150   32.7120  -39.6930 O.co2  80  ASP80      -0.2456
     81  OD2      -17.2440   33.1910  -40.9010 O.co2  80  ASP80      -0.2456
     82  N        -15.9780   35.0740  -33.5630 N.3    82  PHE82      -0.1241
     83  CA       -15.2640   34.0230  -32.8410 C.3    82  PHE82       0.1605
     84  C        -15.1910   34.3440  -31.3500 C.2    82  PHE82       0.2264
     85  O        -14.5020   35.2880  -30.9490 O.2    82  PHE82      -0.2867
     86  CB       -13.8570   33.8370  -33.4060 C.3    82  PHE82       0.0534
     87  CG       -13.8240   33.4070  -34.8390 C.ar   82  PHE82      -0.0203
     88  CD1      -13.9640   34.3320  -35.8600 C.ar   82  PHE82      -0.0042
     89  CD2      -13.6520   32.0740  -35.1660 C.ar   82  PHE82      -0.0042
     90  CE1      -13.9270   33.9330  -37.1790 C.ar   82  PHE82      -0.0003
     91  CE2      -13.6180   31.6720  -36.4820 C.ar   82  PHE82      -0.0003
     92  CZ       -13.7560   32.6030  -37.4880 C.ar   82  PHE82      -0.0000
@<TRIPOS>BOND
     1    64    62   am
     2    63    62    2
     3     7     5    1
     4    62    61    1
     5    81    79   ar
     6     1     2    1
     7    65    66    1
     8     2     5    1
     9     2     3    1
    10     5     6    1
    11    79    80   ar
    12    79    78    1
    13    74    75    1
    14    61    58    1
    15    66    69    1
    16    66    67    1
    17    69    70    1
    18     3     4    2
    19    70    71    1
    20    78    75    1
    21    75    76    1
    22    58    59    1
    23    58    57    1
    24    59    60    2
    25    71    72    1
    26    48    47    1
    27    67    68    2
    28    39    38    1
    29    72    73    1
    30    92    90   ar
    31    92    91   ar
    32    77    76    2
    33    90    88   ar
    34    47    46    1
    35    38    37    1
    36    37    36    1
    37    55    53    1
    38    91    89   ar
    39    11    10    2
    40    46    45    1
    41    56    54    1
    42    88    87   ar
    43    14    13    1
    44    12    13    1
    45    12     9    1
    46    10     9    1
    47    10    16   am
    48    53    54    1
    49    53    50    1
    50     8     9    1
    51    19    18    2
    52    89    87   ar
    53    36    35    1
    54    13    15    1
    55    35    32    1
    56    87    86    1
    57    52    51    2
    58    18    17    1
    59    45    44    1
    60    17    16    1
    61    51    50    1
    62    50    49    1
    63    26    24    1
    64    31    32    1
    65    31    29   am
    66    32    33    1
    67    28    29    1
    68    28    27    1
    69    82    83    1
    70    44    41    1
    71    86    83    1
    72    29    30    2
    73    25    24    1
    74    34    33    2
    75    83    84    1
    76    24    21    1
    77    41    40    1
    78    41    42    1
    79    21    20    1
    80    21    22    1
    81    84    85    2
    82    42    43    2
    83    22    23    2
