@<TRIPOS>MOLECULE
tmp/6c9mC00.pdb
 123 114 0 0 0
SMALL
GASTEIGER

@<TRIPOS>ATOM
      1  N         39.7910    3.4210  -60.6290 N.3    13  LYS13      -0.1245
      2  CA        41.2340    3.6030  -60.5010 C.3    13  LYS13       0.1561
      3  C         41.7200    4.7100  -61.4240 C.2    13  LYS13       0.2260
      4  O         42.5460    5.5410  -61.0330 O.2    13  LYS13      -0.2867
      5  CB        41.9650    2.2800  -60.7760 C.3    13  LYS13       0.0271
      6  CG        41.9420    1.3040  -59.5790 C.3    13  LYS13       0.0035
      7  CD        42.8530    0.0990  -59.7670 C.3    13  LYS13       0.0206
      8  CE        43.0580   -0.6770  -58.4600 C.3    13  LYS13       0.1093
      9  NZ        44.2440   -1.6070  -58.5060 N.3    13  LYS13      -0.1314
     10  N         41.0720    8.0770  -59.9400 N.3    16  LEU16      -0.1245
     11  CA        41.9890    8.5150  -58.8960 C.3    16  LEU16       0.1561
     12  C         43.2470    9.1370  -59.4850 C.2    16  LEU16       0.2260
     13  O         43.6920   10.2010  -59.0260 O.2    16  LEU16      -0.2867
     14  CB        42.3470    7.3510  -57.9800 C.3    16  LEU16       0.0270
     15  CG        41.3720    7.1160  -56.8330 C.3    16  LEU16       0.0019
     16  CD1       41.7780    5.8670  -56.0770 C.3    16  LEU16       0.0001
     17  CD2       41.3180    8.3360  -55.9280 C.3    16  LEU16       0.0001
     18  N         42.8300   12.7780  -60.3480 N.3    19  TYR19      -0.1227
     19  CA        43.0290   13.8250  -59.3470 C.3    19  TYR19       0.1736
     20  C         44.4890   13.9070  -58.9000 C.2    19  TYR19       0.2595
     21  O         45.0040   15.0030  -58.6400 O.2    19  TYR19      -0.2718
     22  CB        42.0920   13.6020  -58.1550 C.3    19  TYR19       0.0548
     23  CG        42.1660   14.6320  -57.0330 C.ar   19  TYR19      -0.0200
     24  CD1       42.7730   15.8710  -57.2040 C.ar   19  TYR19      -0.0009
     25  CD2       41.6130   14.3530  -55.8060 C.ar   19  TYR19      -0.0009
     26  CE1       42.8430   16.7890  -56.1660 C.ar   19  TYR19       0.0417
     27  CE2       41.6710   15.2490  -54.7760 C.ar   19  TYR19       0.0417
     28  CZ        42.2760   16.4700  -54.9450 C.ar   19  TYR19       0.1957
     29  OH        42.3120   17.3550  -53.8790 O.3    19  TYR19      -0.2866
     30  N         45.1800   12.7710  -58.8180 N.am   20  GLU20      -0.1979
     31  CA        46.5980   12.8070  -58.4730 C.3    20  GLU20       0.1602
     32  C         47.3750   13.7310  -59.4030 C.2    20  GLU20       0.2287
     33  O         48.3110   14.4130  -58.9640 O.2    20  GLU20      -0.2864
     34  CB        47.1780   11.3940  -58.5210 C.3    20  GLU20       0.0415
     35  CG        48.4990   11.2250  -57.7910 C.3    20  GLU20       0.1163
     36  CD        49.0330    9.8060  -57.8970 C.2    20  GLU20       0.3649
     37  OE1       49.6890    9.3390  -56.9380 O.co2  20  GLU20      -0.2457
     38  OE2       48.7900    9.1570  -58.9400 O.co2  20  GLU20      -0.2457
     39  N         45.7560   16.1750  -61.2640 N.3    22  LYS22      -0.1245
     40  CA        45.0360   17.4550  -61.2700 C.3    22  LYS22       0.1561
     41  C         44.1830   17.6970  -62.4990 C.2    22  LYS22       0.2260
     42  O         43.5770   18.7660  -62.6160 O.2    22  LYS22      -0.2867
     43  CB        45.9940   18.6360  -61.0940 C.3    22  LYS22       0.0271
     44  CG        46.7640   18.5940  -59.8030 C.3    22  LYS22       0.0035
     45  CD        45.8220   18.4200  -58.6280 C.3    22  LYS22       0.0206
     46  CE        46.5450   17.9430  -57.3750 C.3    22  LYS22       0.1093
     47  NZ        46.8510   16.4840  -57.4120 N.3    22  LYS22      -0.1314
     48  N         34.5390   10.6640  -54.3690 N.3    49  MET49      -0.1245
     49  CA        35.5840   11.0810  -55.3020 C.3    49  MET49       0.1570
     50  C         35.0790   12.1660  -56.2370 C.2    49  MET49       0.2261
     51  O         35.7230   13.2090  -56.4090 O.2    49  MET49      -0.2867
     52  CB        36.0920    9.8930  -56.1130 C.3    49  MET49       0.0387
     53  CG        37.2770    9.1760  -55.4900 C.3    49  MET49       0.0595
     54  SD        38.5450   10.2620  -54.7870 S.3    49  MET49      -0.1393
     55  CE        38.9900   11.2900  -56.1910 C.3    49  MET49       0.0692
     56  N         35.2400   15.4710  -54.0370 N.3    52  LEU52      -0.1245
     57  CA        36.4710   16.1600  -53.7670 C.3    52  LEU52       0.1561
     58  C         36.9980   16.8060  -55.0320 C.2    52  LEU52       0.2260
     59  O         37.5000   17.9310  -54.9830 O.2    52  LEU52      -0.2867
     60  CB        37.4810   15.2080  -53.1600 C.3    52  LEU52       0.0270
     61  CG        38.8740   15.7460  -53.0180 C.3    52  LEU52       0.0019
     62  CD1       38.8610   17.0690  -52.2330 C.3    52  LEU52       0.0001
     63  CD2       39.6040   14.7000  -52.2420 C.3    52  LEU52       0.0001
     64  N         37.6700    3.6070  -45.7090 N.3    78  HIS78      -0.1226
     65  CA        38.7680    4.5350  -45.4380 C.3    78  HIS78       0.1752
     66  C         38.8580    5.6140  -46.5120 C.2    78  HIS78       0.2595
     67  O         39.3520    6.7230  -46.2530 O.2    78  HIS78      -0.2718
     68  CB        40.1030    3.7800  -45.3120 C.3    78  HIS78       0.0759
     69  CG        40.6380    3.2460  -46.6070 C.ar   78  HIS78       0.0818
     70  ND1       40.1620    2.0920  -47.1870 N.ar   78  HIS78      -0.2268
     71  CD2       41.6170    3.7010  -47.4280 C.ar   78  HIS78       0.1154
     72  CE1       40.8190    1.8590  -48.3110 C.ar   78  HIS78       0.1986
     73  NE2       41.7050    2.8230  -48.4820 N.ar   78  HIS78      -0.2212
     74  N         38.3850    5.3110  -47.7180 N.am   79  VAL79      -0.1980
     75  CA        38.4290    6.2910  -48.7930 C.3    79  VAL79       0.1595
     76  C         37.4890    7.4580  -48.4900 C.2    79  VAL79       0.2287
     77  O         37.8930    8.6300  -48.5410 O.2    79  VAL79      -0.2864
     78  CB        38.1010    5.6000  -50.1260 C.3    79  VAL79       0.0276
     79  CG1       38.1170    6.5980  -51.2550 C.3    79  VAL79       0.0022
     80  CG2       39.1110    4.5500  -50.3660 C.3    79  VAL79       0.0022
     81  N         38.6910    9.4030  -45.6340 N.3    82  HIS82      -0.1241
     82  CA        39.8920   10.1300  -46.0370 C.3    82  HIS82       0.1621
     83  C         39.5550   11.3320  -46.8870 C.2    82  HIS82       0.2264
     84  O         40.1430   12.4040  -46.7050 O.2    82  HIS82      -0.2867
     85  CB        40.8420    9.2370  -46.8190 C.3    82  HIS82       0.0745
     86  CG        42.1500    9.8920  -47.1260 C.ar   82  HIS82       0.0817
     87  ND1       42.9120    9.5600  -48.2220 N.ar   82  HIS82      -0.2268
     88  CD2       42.8350   10.8570  -46.4710 C.ar   82  HIS82       0.1154
     89  CE1       44.0080   10.2970  -48.2350 C.ar   82  HIS82       0.1986
     90  NE2       43.9890   11.0880  -47.1790 N.ar   82  HIS82      -0.2212
     91  N         40.2630   15.2960  -46.2420 N.3    86  LEU86      -0.1245
     92  CA        40.9590   16.1230  -47.2240 C.3    86  LEU86       0.1561
     93  C         40.1320   17.3530  -47.5520 C.2    86  LEU86       0.2260
     94  O         40.6650   18.4610  -47.6850 O.2    86  LEU86      -0.2867
     95  CB        41.2380   15.3160  -48.4920 C.3    86  LEU86       0.0270
     96  CG        42.2920   14.2220  -48.3170 C.3    86  LEU86       0.0019
     97  CD1       42.3470   13.2870  -49.5230 C.3    86  LEU86       0.0001
     98  CD2       43.6570   14.8380  -48.0100 C.3    86  LEU86       0.0001
     99  N         41.6810    0.9190  -42.5340 N.3   108  ASP108     -0.1239
    100  CA        42.9570    0.4620  -43.1180 C.3   108  ASP108      0.1674
    101  C         44.0270    1.0310  -42.1910 C.2   108  ASP108      0.2266
    102  O         44.4470    2.1760  -42.3900 O.2   108  ASP108     -0.2867
    103  CB        43.1080    0.9430  -44.5600 C.3   108  ASP108      0.1410
    104  CG        44.2430    0.2430  -45.3140 C.2   108  ASP108      0.3668
    105  OD1       44.5110   -0.9550  -45.0600 O.co2 108  ASP108     -0.2456
    106  OD2       44.8550    0.9070  -46.1870 O.co2 108  ASP108     -0.2456
    107  N         47.7200    2.4740  -43.2540 N.3   111  ASN111     -0.1240
    108  CA        47.6560    3.1000  -44.5670 C.3   111  ASN111      0.1653
    109  C         48.5810    4.3150  -44.5790 C.2   111  ASN111      0.2266
    110  O         48.3660    5.2820  -43.8370 O.2   111  ASN111     -0.2867
    111  CB        46.2050    3.4640  -44.8960 C.3   111  ASN111      0.1155
    112  CG        46.0720    4.2750  -46.1840 C.2   111  ASN111      0.2627
    113  OD1       46.5880    5.3830  -46.2760 O.2   111  ASN111     -0.2716
    114  ND2       45.3520    3.7300  -47.1750 N.am  111  ASN111     -0.0877
    115  N         49.4840    6.8270  -46.7660 N.3   113  GLN113     -0.1245
    116  CA        49.1170    8.1750  -47.1460 C.3   113  GLN113      0.1566
    117  C         48.2270    8.8130  -46.0890 C.2   113  GLN113      0.2260
    118  O         48.3650   10.0040  -45.7940 O.2   113  GLN113     -0.2867
    119  CB        48.4480    8.1870  -48.5090 C.3   113  GLN113      0.0367
    120  CG        48.3620    9.6070  -49.0480 C.3   113  GLN113      0.0905
    121  CD        47.3080    9.7540  -50.1200 C.2   113  GLN113      0.2608
    122  OE1       47.0820    8.8380  -50.9170 O.2   113  GLN113     -0.2717
    123  NE2       46.6370   10.9050  -50.1340 N.am  113  GLN113     -0.0878
@<TRIPOS>BOND
     1    42    41    2
     2    41    40    1
     3     3     4    2
     4     3     2    1
     5    40    39    1
     6    40    43    1
     7    43    44    1
     8     5     2    1
     9     5     6    1
    10     1     2    1
    11    18    19    1
    12    10    11    1
    13    44    45    1
    14     7     6    1
    15     7     8    1
    16    12    13    2
    17    12    11    1
    18    32    33    2
    19    32    31    1
    20    19    20    1
    21    19    22    1
    22    38    36   ar
    23    20    30   am
    24    20    21    2
    25    11    14    1
    26    30    31    1
    27    45    46    1
    28    34    31    1
    29    34    35    1
    30     9     8    1
    31    22    23    1
    32    14    15    1
    33    36    35    1
    34    36    37   ar
    35    47    46    1
    36    24    23   ar
    37    24    26   ar
    38    23    25   ar
    39    15    16    1
    40    15    17    1
    41    51    50    2
    42    50    49    1
    43    55    54    1
    44    26    28   ar
    45    52    53    1
    46    52    49    1
    47    25    27   ar
    48    53    54    1
    49    49    48    1
    50    58    59    2
    51    58    57    1
    52    28    27   ar
    53    28    29    1
    54    56    57    1
    55    57    60    1
    56    60    61    1
    57    61    63    1
    58    61    62    1
    59    79    78    1
    60   122   121    2
    61    80    78    1
    62   123   121   am
    63    78    75    1
    64   121   120    1
    65    97    96    1
    66   120   119    1
    67    75    76    1
    68    75    74    1
    69    77    76    2
    70   119   116    1
    71    95    96    1
    72    95    92    1
    73    73    72   ar
    74    73    71   ar
    75    96    98    1
    76    72    70   ar
    77    89    87   ar
    78    89    90   ar
    79    87    86   ar
    80    74    66   am
    81    94    93    2
    82    93    92    1
    83    71    69   ar
    84    92    91    1
    85    70    69   ar
    86    90    88   ar
    87   114   112   am
    88   116   115    1
    89   116   117    1
    90    86    85    1
    91    86    88   ar
    92    83    84    2
    93    83    82    1
    94    85    82    1
    95    69    68    1
    96    66    67    2
    97    66    65    1
    98   113   112    2
    99   106   104   ar
   100   112   111    1
   101   117   118    2
   102    82    81    1
   103    64    65    1
   104    65    68    1
   105   104   105   ar
   106   104   103    1
   107   111   108    1
   108   109   108    1
   109   109   110    2
   110   108   107    1
   111   103   100    1
   112   100    99    1
   113   100   101    1
   114   102   101    2
