@<TRIPOS>MOLECULE
tmp/6c9mC01.pdb
 129 123 0 0 0
SMALL
GASTEIGER

@<TRIPOS>ATOM
      1  N         71.0200   59.7970  -38.9260 N.3   325  ASN325     -0.1240
      2  CA        70.3900   58.5200  -38.6370 C.3   325  ASN325      0.1653
      3  C         71.3630   57.5800  -37.9310 C.2   325  ASN325      0.2266
      4  O         71.0460   57.0270  -36.8730 O.2   325  ASN325     -0.2867
      5  CB        69.8650   57.9120  -39.9320 C.3   325  ASN325      0.1155
      6  CG        68.6300   57.0840  -39.7190 C.2   325  ASN325      0.2627
      7  OD1       68.5040   56.3720  -38.7290 O.2   325  ASN325     -0.2716
      8  ND2       67.6990   57.1830  -40.6470 N.am  325  ASN325     -0.0877
      9  N         71.6490   58.4830  -34.0640 N.3   328  ARG328     -0.1245
     10  CA        70.5030   58.7180  -33.1860 C.3   328  ARG328      0.1563
     11  C         70.7150   58.1260  -31.7930 C.2   328  ARG328      0.2260
     12  O         70.2350   58.6830  -30.7970 O.2   328  ARG328     -0.2867
     13  CB        69.2340   58.1440  -33.8180 C.3   328  ARG328      0.0307
     14  CG        68.7810   58.8540  -35.0870 C.3   328  ARG328      0.0489
     15  CD        67.5560   58.1550  -35.6830 C.3   328  ARG328      0.2205
     16  NE        67.6820   56.6930  -35.6530 N.pl3 328  ARG328     -0.0865
     17  CZ        66.8170   55.8530  -36.2170 C.cat 328  ARG328      0.5346
     18  NH1       67.0110   54.5410  -36.1400 N.pl3 328  ARG328      0.1354
     19  NH2       65.7600   56.3280  -36.8650 N.pl3 328  ARG328      0.1354
     20  N         65.6110   67.0170  -33.0650 N.3   384  LYS384     -0.1245
     21  CA        65.6860   66.0190  -32.0040 C.3   384  LYS384      0.1561
     22  C         65.7660   66.6810  -30.6310 C.2   384  LYS384      0.2260
     23  O         65.1910   66.1880  -29.6540 O.2   384  LYS384     -0.2867
     24  CB        66.8890   65.1050  -32.2500 C.3   384  LYS384      0.0271
     25  CG        67.0230   63.9810  -31.2550 C.3   384  LYS384      0.0035
     26  CD        66.2120   62.7840  -31.6660 C.3   384  LYS384      0.0206
     27  CE        66.9380   61.4880  -31.3580 C.3   384  LYS384      0.1093
     28  NZ        66.3020   60.3290  -32.0430 N.3   384  LYS384     -0.1314
     29  N         59.2240   66.3580  -41.1460 N.3   414  LYS414     -0.1245
     30  CA        59.4410   65.6940  -39.8670 C.3   414  LYS414      0.1561
     31  C         59.4670   66.7000  -38.7230 C.2   414  LYS414      0.2260
     32  O         58.9050   66.4500  -37.6500 O.2   414  LYS414     -0.2867
     33  CB        60.7350   64.8880  -39.9190 C.3   414  LYS414      0.0271
     34  CG        61.0280   64.1590  -38.6430 C.3   414  LYS414      0.0035
     35  CD        62.0400   63.0580  -38.8650 C.3   414  LYS414      0.0206
     36  CE        61.3930   61.9180  -39.5640 C.3   414  LYS414      0.1093
     37  NZ        62.3100   60.7660  -39.6640 N.3   414  LYS414     -0.1314
     38  N         55.9460   67.5770  -37.9860 N.3   417  LYS417     -0.1231
     39  CA        55.2800   66.4970  -37.2710 C.3   417  LYS417      0.1693
     40  C         55.6130   66.5610  -35.7840 C.2   417  LYS417      0.2592
     41  O         54.7150   66.6170  -34.9290 O.2   417  LYS417     -0.2718
     42  CB        55.6840   65.1530  -37.8550 C.3   417  LYS417      0.0285
     43  CG        54.8280   64.0240  -37.3790 C.3   417  LYS417      0.0035
     44  CD        55.4340   62.6850  -37.7700 C.3   417  LYS417      0.0206
     45  CE        56.7710   62.4740  -37.0870 C.3   417  LYS417      0.1093
     46  NZ        57.2250   61.0580  -37.1380 N.3   417  LYS417     -0.1314
     47  N         56.9070   66.6060  -35.4600 N.am  418  HIS418     -0.1976
     48  CA        57.3100   66.6740  -34.0630 C.3   418  HIS418      0.1656
     49  C         56.7840   67.9270  -33.3720 C.2   418  HIS418      0.2291
     50  O         56.5010   67.9020  -32.1710 O.2   418  HIS418     -0.2864
     51  CB        58.8230   66.6160  -33.9740 C.3   418  HIS418      0.0771
     52  CG        59.3980   65.3070  -34.4060 C.ar  418  HIS418      0.0820
     53  ND1       60.7030   65.1720  -34.8330 N.ar  418  HIS418     -0.2267
     54  CD2       58.8540   64.0710  -34.4640 C.ar  418  HIS418      0.1154
     55  CE1       60.9350   63.9120  -35.1440 C.ar  418  HIS418      0.1986
     56  NE2       59.8310   63.2220  -34.9210 N.ar  418  HIS418     -0.2212
     57  N         58.9820   54.8190  -52.0570 N.3   441  PHE441     -0.1241
     58  CA        59.3350   55.1320  -50.6670 C.3   441  PHE441      0.1605
     59  C         58.7800   56.4750  -50.2360 C.2   441  PHE441      0.2264
     60  O         58.0250   56.5620  -49.2590 O.2   441  PHE441     -0.2867
     61  CB        60.8460   55.1290  -50.4780 C.3   441  PHE441      0.0534
     62  CG        61.2820   55.5420  -49.1110 C.ar  441  PHE441     -0.0203
     63  CD1       61.2380   54.6400  -48.0610 C.ar  441  PHE441     -0.0042
     64  CD2       61.7620   56.8270  -48.8720 C.ar  441  PHE441     -0.0042
     65  CE1       61.6480   55.0110  -46.7800 C.ar  441  PHE441     -0.0003
     66  CE2       62.1800   57.2070  -47.5950 C.ar  441  PHE441     -0.0003
     67  CZ        62.1210   56.2990  -46.5510 C.ar  441  PHE441     -0.0000
     68  N         55.6890   57.4180  -47.4880 N.3   445  LYS445     -0.1245
     69  CA        55.7370   58.3750  -46.3830 C.3   445  LYS445      0.1561
     70  C         54.6610   59.4280  -46.5410 C.2   445  LYS445      0.2260
     71  O         54.0010   59.8110  -45.5640 O.2   445  LYS445     -0.2867
     72  CB        57.0960   59.0500  -46.3130 C.3   445  LYS445      0.0271
     73  CG        58.1290   58.2990  -45.5640 C.3   445  LYS445      0.0035
     74  CD        58.8020   59.1640  -44.5630 C.3   445  LYS445      0.0206
     75  CE        59.8890   58.3430  -43.9100 C.3   445  LYS445      0.1093
     76  NZ        59.4410   56.9540  -43.5790 N.3   445  LYS445     -0.1314
     77  N         51.5000   57.9960  -45.5410 N.3   448  LYS448     -0.1231
     78  CA        51.4510   57.8190  -44.0930 C.3   448  LYS448      0.1693
     79  C         51.1540   59.1390  -43.3890 C.2   448  LYS448      0.2592
     80  O         50.2320   59.2140  -42.5690 O.2   448  LYS448     -0.2718
     81  CB        52.7460   57.2160  -43.5570 C.3   448  LYS448      0.0285
     82  CG        52.7080   57.0500  -42.0460 C.3   448  LYS448      0.0035
     83  CD        53.9180   56.3170  -41.5470 C.3   448  LYS448      0.0206
     84  CE        54.9420   57.2540  -40.9170 C.3   448  LYS448      0.1093
     85  NZ        56.3110   56.6860  -41.0190 N.3   448  LYS448     -0.1314
     86  N         51.9150   60.1940  -43.6960 N.am  449  TYR449     -0.1976
     87  CA        51.6070   61.4870  -43.1050 C.3   449  TYR449      0.1639
     88  C         50.1790   61.9040  -43.4300 C.2   449  TYR449      0.2290
     89  O         49.4910   62.5080  -42.5950 O.2   449  TYR449     -0.2864
     90  CB        52.5850   62.5330  -43.6000 C.3   449  TYR449      0.0560
     91  CG        53.8860   62.5400  -42.8540 C.ar  449  TYR449     -0.0198
     92  CD1       54.5620   61.3710  -42.6080 C.ar  449  TYR449     -0.0009
     93  CD2       54.4530   63.7290  -42.4040 C.ar  449  TYR449     -0.0009
     94  CE1       55.7500   61.3640  -41.9300 C.ar  449  TYR449      0.0417
     95  CE2       55.6490   63.7310  -41.7070 C.ar  449  TYR449      0.0417
     96  CZ        56.2910   62.5440  -41.4750 C.ar  449  TYR449      0.1957
     97  OH        57.4920   62.5320  -40.7970 O.3   449  TYR449     -0.2866
     98  N         47.9760   60.2040  -40.9820 N.3   452  LYS452     -0.1245
     99  CA        48.0950   60.8070  -39.6640 C.3   452  LYS452      0.1561
    100  C         47.3790   62.1470  -39.5700 C.2   452  LYS452      0.2260
    101  O         47.1570   62.6370  -38.4610 O.2   452  LYS452     -0.2867
    102  CB        49.5710   60.9640  -39.3030 C.3   452  LYS452      0.0271
    103  CG        50.3430   59.6400  -39.3250 C.3   452  LYS452      0.0035
    104  CD        51.7970   59.7900  -38.8960 C.3   452  LYS452      0.0206
    105  CE        52.2190   58.5470  -38.1420 C.3   452  LYS452      0.1093
    106  NZ        51.4250   58.3870  -36.8760 N.3   452  LYS452     -0.1314
    107  N         51.5370   48.1790  -42.6940 N.3   484  TRP484     -0.1241
    108  CA        51.8030   49.5670  -42.3290 C.3   484  TRP484      0.1605
    109  C         50.6420   50.4450  -42.7630 C.2   484  TRP484      0.2264
    110  O         50.2410   51.3620  -42.0370 O.2   484  TRP484     -0.2867
    111  CB        53.1420   50.0780  -42.8970 C.3   484  TRP484      0.0550
    112  CG        53.1320   50.5530  -44.3450 C.ar  484  TRP484      0.0003
    113  CD1       53.6730   49.9050  -45.4110 C.ar  484  TRP484      0.0946
    114  CD2       52.5540   51.7550  -44.8680 C.ar  484  TRP484      0.0152
    115  NE1       53.4460   50.6020  -46.5680 N.ar  484  TRP484     -0.2442
    116  CE2       52.7630   51.7470  -46.2630 C.ar  484  TRP484      0.0810
    117  CE3       51.8680   52.8290  -44.2970 C.ar  484  TRP484      0.0012
    118  CZ2       52.3250   52.7770  -47.0970 C.ar  484  TRP484      0.0191
    119  CZ3       51.4200   53.8560  -45.1350 C.ar  484  TRP484      0.0001
    120  CH2       51.6540   53.8180  -46.5190 C.ar  484  TRP484      0.0015
    121  N         48.0980   52.1170  -39.8870 N.3   488  GLU488     -0.1245
    122  CA        47.9630   53.5690  -39.8880 C.3   488  GLU488      0.1567
    123  C         46.5260   54.0020  -40.1490 C.2   488  GLU488      0.2260
    124  O         46.0800   55.0190  -39.6050 O.2   488  GLU488     -0.2867
    125  CB        48.9030   54.2060  -40.9160 C.3   488  GLU488      0.0388
    126  CG        50.3720   54.2700  -40.4830 C.3   488  GLU488      0.1160
    127  CD        50.6030   55.1140  -39.2390 C.2   488  GLU488      0.3649
    128  OE1       51.7160   54.9790  -38.6870 O.co2 488  GLU488     -0.2457
    129  OE2       49.6990   55.9040  -38.8210 O.co2 488  GLU488     -0.2457
@<TRIPOS>BOND
     1    57    58    1
     2    58    61    1
     3    58    59    1
     4    61    62    1
     5    59    60    2
     6    62    64   ar
     7    62    63   ar
     8    64    66   ar
     9    63    65   ar
    10    66    67   ar
    11    68    69    1
    12   118   120   ar
    13   118   116   ar
    14    65    67   ar
    15   115   116   ar
    16   115   113   ar
    17    70    69    1
    18    70    71    2
    19   120   119   ar
    20    69    72    1
    21    72    73    1
    22   116   114   ar
    23    73    74    1
    24    77    78    1
    25   113   112   ar
    26   119   117   ar
    27   114   112   ar
    28   114   117   ar
    29    74    75    1
    30   112   111    1
    31    78    81    1
    32    78    79    1
    33    75    76    1
    34    86    79   am
    35    86    87    1
    36    90    87    1
    37    90    91    1
    38    81    82    1
    39    88    87    1
    40    88    89    2
    41    79    80    2
    42   111   108    1
    43    91    92   ar
    44    91    93   ar
    45   109   108    1
    46   109   110    2
    47   107   108    1
    48    92    94   ar
    49    93    95   ar
    50    82    83    1
    51    94    96   ar
    52    95    96   ar
    53    83    84    1
    54    96    97    1
    55    29    30    1
    56    85    84    1
    57    98    99    1
    58   125   126    1
    59   125   122    1
    60     8     6   am
    61   126   127    1
    62   123   122    1
    63   123   124    2
    64     5     6    1
    65     5     2    1
    66    33    30    1
    67    33    34    1
    68   122   121    1
    69    30    31    1
    70     6     7    2
    71    99   100    1
    72    99   102    1
    73    37    36    1
    74   100   101    2
    75    36    35    1
    76   103   102    1
    77   103   104    1
    78   127   129   ar
    79   127   128   ar
    80     1     2    1
    81   104   105    1
    82    35    34    1
    83    31    32    2
    84     2     3    1
    85   105   106    1
    86    38    39    1
    87     3     4    2
    88    42    43    1
    89    42    39    1
    90    44    43    1
    91    44    45    1
    92    39    40    1
    93    46    45    1
    94    19    17    1
    95    17    18    1
    96    17    16    2
    97    40    47   am
    98    40    41    2
    99    15    16    1
   100    15    14    1
   101    47    48    1
   102    55    56   ar
   103    55    53   ar
   104    14    13    1
   105    56    54   ar
   106    53    52   ar
   107    54    52   ar
   108    52    51    1
   109     9    10    1
   110    48    51    1
   111    48    49    1
   112    13    10    1
   113    49    50    2
   114    10    11    1
   115    20    21    1
   116    24    21    1
   117    24    25    1
   118    28    27    1
   119    21    22    1
   120    11    12    2
   121    26    27    1
   122    26    25    1
   123    22    23    2
