@<TRIPOS>MOLECULE
tmp/6c9wA00.pdb
 171 162 0 0 0
SMALL
GASTEIGER

@<TRIPOS>ATOM
      1  N        -24.9210  -59.2370  -19.1980 N.3    18  PHE18      -0.1241
      2  CA       -23.5230  -59.6460  -19.1970 C.3    18  PHE18       0.1605
      3  C        -23.1790  -60.5440  -20.3770 C.2    18  PHE18       0.2264
      4  O        -21.9920  -60.7900  -20.6180 O.2    18  PHE18      -0.2867
      5  CB       -23.1840  -60.3380  -17.8760 C.3    18  PHE18       0.0534
      6  CG       -23.1060  -59.3940  -16.7110 C.ar   18  PHE18      -0.0203
      7  CD1      -22.1370  -58.4060  -16.6720 C.ar   18  PHE18      -0.0042
      8  CD2      -24.0010  -59.4870  -15.6590 C.ar   18  PHE18      -0.0042
      9  CE1      -22.0590  -57.5300  -15.6090 C.ar   18  PHE18      -0.0003
     10  CE2      -23.9280  -58.6120  -14.5890 C.ar   18  PHE18      -0.0003
     11  CZ       -22.9560  -57.6310  -14.5670 C.ar   18  PHE18      -0.0000
     12  N        -21.7160  -57.8520  -22.3690 N.3    21  MET21      -0.1245
     13  CA       -20.3900  -57.4550  -21.9150 C.3    21  MET21       0.1570
     14  C        -19.3620  -58.5480  -22.1770 C.2    21  MET21       0.2261
     15  O        -18.2110  -58.2540  -22.5210 O.2    21  MET21      -0.2867
     16  CB       -20.4490  -57.1120  -20.4280 C.3    21  MET21       0.0387
     17  CG       -19.3640  -56.1710  -19.9590 C.3    21  MET21       0.0595
     18  SD       -19.7250  -55.4990  -18.3300 S.3    21  MET21      -0.1393
     19  CE       -18.2250  -54.5810  -18.0210 C.3    21  MET21       0.0692
     20  N        -15.6880  -57.1640  -23.1840 N.3    25  PHE25      -0.1241
     21  CA       -14.8000  -56.8340  -22.0690 C.3    25  PHE25       0.1605
     22  C        -13.7360  -57.9030  -21.8610 C.2    25  PHE25       0.2264
     23  O        -12.5370  -57.5840  -21.9550 O.2    25  PHE25      -0.2867
     24  CB       -15.6140  -56.5630  -20.8000 C.3    25  PHE25       0.0534
     25  CG       -14.7870  -56.0580  -19.6520 C.ar   25  PHE25      -0.0203
     26  CD1      -14.1480  -56.9360  -18.7920 C.ar   25  PHE25      -0.0042
     27  CD2      -14.6400  -54.6960  -19.4380 C.ar   25  PHE25      -0.0042
     28  CE1      -13.3820  -56.4680  -17.7410 C.ar   25  PHE25      -0.0003
     29  CE2      -13.8750  -54.2250  -18.3870 C.ar   25  PHE25      -0.0003
     30  CZ       -13.2460  -55.1100  -17.5390 C.ar   25  PHE25      -0.0000
     31  N        -21.3340  -49.7790  -19.7130 N.3   116  PHE116     -0.1227
     32  CA       -20.7030  -50.9020  -19.0210 C.3   116  PHE116      0.1736
     33  C        -19.9710  -50.4620  -17.7590 C.2   116  PHE116      0.2595
     34  O        -20.4000  -50.8240  -16.6610 O.2   116  PHE116     -0.2718
     35  CB       -19.7670  -51.6280  -19.9870 C.3   116  PHE116      0.0547
     36  CG       -20.4460  -52.1100  -21.2340 C.ar  116  PHE116     -0.0202
     37  CD1      -21.3890  -53.1240  -21.1750 C.ar  116  PHE116     -0.0042
     38  CD2      -20.1410  -51.5550  -22.4660 C.ar  116  PHE116     -0.0042
     39  CE1      -22.0170  -53.5720  -22.3190 C.ar  116  PHE116     -0.0003
     40  CE2      -20.7660  -52.0010  -23.6150 C.ar  116  PHE116     -0.0003
     41  CZ       -21.7040  -53.0110  -23.5420 C.ar  116  PHE116     -0.0000
     42  N        -18.8740  -49.7070  -17.8710 N.am  117  ASN117     -0.1974
     43  CA       -18.0930  -49.3560  -16.6860 C.3   117  ASN117      0.1688
     44  C        -18.9650  -48.7060  -15.6200 C.2   117  ASN117      0.2292
     45  O        -18.7880  -48.9590  -14.4220 O.2   117  ASN117     -0.2864
     46  CB       -16.9410  -48.4260  -17.0660 C.3   117  ASN117      0.1181
     47  CG       -15.8910  -49.1140  -17.9150 C.2   117  ASN117      0.2629
     48  OD1      -16.2070  -49.9390  -18.7730 O.2   117  ASN117     -0.2716
     49  ND2      -14.6280  -48.7850  -17.6690 N.am  117  ASN117     -0.0877
     50  N        -23.0410  -51.2030  -15.8140 N.3   120  ALA120     -0.1231
     51  CA       -23.1110  -52.5040  -15.1500 C.3   120  ALA120      0.1679
     52  C        -23.4110  -52.3780  -13.6630 C.2   120  ALA120      0.2434
     53  O        -24.3920  -52.9820  -13.1930 O.2   120  ALA120     -0.2733
     54  CB       -21.8140  -53.2760  -15.4060 C.3   120  ALA120      0.0304
     55  N        -22.6340  -51.6330  -12.8700 N.am  121  PRO121     -0.2729
     56  CA       -22.9700  -51.5150  -11.4420 C.3   121  PRO121      0.1401
     57  C        -24.3100  -50.8470  -11.1920 C.2   121  PRO121      0.2269
     58  O        -24.9450  -51.1210  -10.1650 O.2   121  PRO121     -0.2865
     59  CB       -21.8080  -50.6880  -10.8730 C.3   121  PRO121      0.0296
     60  CG       -21.2420  -49.9630  -12.0430 C.3   121  PRO121      0.0237
     61  CD       -21.4150  -50.8780  -13.2120 C.3   121  PRO121      0.0939
     62  N        -26.6360  -53.5960  -11.3530 N.3   124  GLU124     -0.1245
     63  CA       -26.4920  -54.4010  -10.1440 C.3   124  GLU124      0.1567
     64  C        -27.1870  -53.7440   -8.9580 C.2   124  GLU124      0.2260
     65  O        -27.8920  -54.4130   -8.1940 O.2   124  GLU124     -0.2867
     66  CB       -25.0120  -54.6260   -9.8340 C.3   124  GLU124      0.0388
     67  CG       -24.3000  -55.5270  -10.8270 C.3   124  GLU124      0.1160
     68  CD       -22.8470  -55.7630  -10.4600 C.2   124  GLU124      0.3649
     69  OE1      -22.2450  -54.8780   -9.8150 O.co2 124  GLU124     -0.2457
     70  OE2      -22.3090  -56.8340  -10.8120 O.co2 124  GLU124     -0.2457
     71  N        -27.6380  -62.8220   -9.7520 N.3   142  ARG142     -0.1245
     72  CA       -26.4420  -62.4310  -10.4860 C.3   142  ARG142      0.1563
     73  C        -25.6750  -63.6280  -11.0300 C.2   142  ARG142      0.2260
     74  O        -24.9070  -63.4710  -11.9840 O.2   142  ARG142     -0.2867
     75  CB       -25.5480  -61.5840   -9.5820 C.3   142  ARG142      0.0307
     76  CG       -24.6530  -60.6050  -10.3240 C.3   142  ARG142      0.0489
     77  CD       -23.1990  -61.0140  -10.2200 C.3   142  ARG142      0.2205
     78  NE       -22.3060  -60.0920  -10.9210 N.pl3 142  ARG142     -0.0865
     79  CZ       -22.0840  -60.1190  -12.2330 C.cat 142  ARG142      0.5346
     80  NH1      -22.7020  -61.0080  -13.0070 N.pl3 142  ARG142      0.1354
     81  NH2      -21.2470  -59.2480  -12.7730 N.pl3 142  ARG142      0.1354
     82  N        -25.6300  -63.8500  -14.6290 N.3   145  GLY145     -0.1210
     83  CA       -24.6250  -63.1190  -15.3830 C.3   145  GLY145      0.1956
     84  C        -23.3780  -63.9420  -15.6430 C.2   145  GLY145      0.2612
     85  O        -22.8010  -63.8870  -16.7320 O.2   145  GLY145     -0.2717
     86  N        -22.9450  -64.7190  -14.6460 N.am  146  CYS146     -0.1970
     87  CA       -21.7680  -65.5620  -14.8230 C.3   146  CYS146      0.1712
     88  C        -21.9770  -66.5870  -15.9300 C.2   146  CYS146      0.2296
     89  O        -21.0160  -66.9720  -16.6060 O.2   146  CYS146     -0.2864
     90  CB       -21.4240  -66.2630  -13.5080 C.3   146  CYS146      0.0983
     91  SG       -21.0630  -65.1540  -12.1270 S.3   146  CYS146     -0.0798
     92  N        -22.0390  -64.4060  -19.3450 N.3   149  TRP149     -0.1241
     93  CA       -20.6200  -64.0950  -19.4790 C.3   149  TRP149      0.1605
     94  C        -19.8500  -65.2870  -20.0340 C.2   149  TRP149      0.2264
     95  O        -19.0840  -65.1600  -20.9960 O.2   149  TRP149     -0.2867
     96  CB       -20.0750  -63.6890  -18.1100 C.3   149  TRP149      0.0550
     97  CG       -18.7150  -63.0620  -18.1100 C.ar  149  TRP149      0.0003
     98  CD1      -17.5130  -63.7050  -18.0640 C.ar  149  TRP149      0.0946
     99  CD2      -18.4210  -61.6610  -18.1140 C.ar  149  TRP149      0.0152
    100  NE1      -16.4880  -62.7900  -18.0520 N.ar  149  TRP149     -0.2442
    101  CE2      -17.0200  -61.5280  -18.0830 C.ar  149  TRP149      0.0810
    102  CE3      -19.2080  -60.5060  -18.1480 C.ar  149  TRP149      0.0012
    103  CZ2      -16.3900  -60.2870  -18.0820 C.ar  149  TRP149      0.0191
    104  CZ3      -18.5810  -59.2760  -18.1500 C.ar  149  TRP149      0.0001
    105  CH2      -17.1860  -59.1750  -18.1190 C.ar  149  TRP149      0.0015
    106  N        -16.1560  -69.5230  -14.8970 N.3   257  GLU257     -0.1245
    107  CA       -17.3350  -68.7150  -14.6010 C.3   257  GLU257      0.1567
    108  C        -18.5410  -69.5850  -14.2710 C.2   257  GLU257      0.2260
    109  O        -19.3780  -69.1930  -13.4500 O.2   257  GLU257     -0.2867
    110  CB       -17.6460  -67.7890  -15.7760 C.3   257  GLU257      0.0388
    111  CG       -16.5910  -66.7150  -16.0200 C.3   257  GLU257      0.1160
    112  CD       -16.5110  -65.6940  -14.9030 C.2   257  GLU257      0.3649
    113  OE1      -17.3320  -65.7630  -13.9650 O.co2 257  GLU257     -0.2457
    114  OE2      -15.6200  -64.8240  -14.9680 O.co2 257  GLU257     -0.2457
    115  N        -17.9200  -70.2020  -11.0050 N.3   260  ASN260     -0.1240
    116  CA       -18.2480  -68.9680  -10.2970 C.3   260  ASN260      0.1653
    117  C        -19.7450  -68.8700  -10.0270 C.2   260  ASN260      0.2266
    118  O        -20.1620  -68.4370   -8.9460 O.2   260  ASN260     -0.2867
    119  CB       -17.7700  -67.7600  -11.1040 C.3   260  ASN260      0.1155
    120  CG       -17.9160  -66.4540  -10.3460 C.2   260  ASN260      0.2627
    121  OD1      -18.1690  -66.4460   -9.1420 O.2   260  ASN260     -0.2716
    122  ND2      -17.7540  -65.3390  -11.0520 N.am  260  ASN260     -0.0877
    123  N         -9.8430  -66.8440   -9.0390 N.3   310  HIS310     -0.1241
    124  CA       -10.6610  -65.6430   -9.1830 C.3   310  HIS310      0.1621
    125  C        -12.1390  -65.9640   -9.0140 C.2   310  HIS310      0.2264
    126  O        -12.9020  -65.1570   -8.4700 O.2   310  HIS310     -0.2867
    127  CB       -10.4040  -65.0090  -10.5520 C.3   310  HIS310      0.0745
    128  CG       -11.3630  -63.9180  -10.9130 C.ar  310  HIS310      0.0817
    129  ND1      -11.8030  -62.9760  -10.0090 N.ar  310  HIS310     -0.2268
    130  CD2      -11.9620  -63.6170  -12.0890 C.ar  310  HIS310      0.1154
    131  CE1      -12.6280  -62.1400  -10.6120 C.ar  310  HIS310      0.1986
    132  NE2      -12.7470  -62.5110  -11.8740 N.ar  310  HIS310     -0.2212
    133  N        -13.5500  -65.6590   -5.3430 N.3   313  GLU313     -0.1231
    134  CA       -13.6530  -64.3810   -4.6470 C.3   313  GLU313      0.1699
    135  C        -14.8220  -63.5390   -5.1360 C.2   313  GLU313      0.2592
    136  O        -15.4010  -62.7820   -4.3470 O.2   313  GLU313     -0.2718
    137  CB       -12.3500  -63.5880   -4.8020 C.3   313  GLU313      0.0402
    138  CG       -12.1530  -62.9370   -6.1690 C.3   313  GLU313      0.1161
    139  CD       -12.7970  -61.5660   -6.2780 C.2   313  GLU313      0.3649
    140  OE1      -13.3520  -61.0840   -5.2690 O.co2 313  GLU313     -0.2457
    141  OE2      -12.7490  -60.9730   -7.3760 O.co2 313  GLU313     -0.2457
    142  N        -15.1790  -63.6480   -6.4180 N.am  314  VAL314     -0.1980
    143  CA       -16.2790  -62.8450   -6.9560 C.3   314  VAL314      0.1595
    144  C        -17.5500  -63.0110   -6.1350 C.2   314  VAL314      0.2287
    145  O        -18.1140  -61.9970   -5.6980 O.2   314  VAL314     -0.2864
    146  CB       -16.4910  -63.1660   -8.4430 C.3   314  VAL314      0.0276
    147  CG1      -17.7520  -62.4850   -8.9690 C.3   314  VAL314      0.0022
    148  CG2      -15.2880  -62.7370   -9.2430 C.3   314  VAL314      0.0022
    149  N        -19.1900  -59.5520   -4.4450 N.3   318  LEU318     -0.1245
    150  CA       -20.4240  -58.9210   -4.9020 C.3   318  LEU318      0.1561
    151  C        -21.5550  -59.1350   -3.9030 C.2   318  LEU318      0.2260
    152  O        -22.1190  -58.1750   -3.3660 O.2   318  LEU318     -0.2867
    153  CB       -20.8040  -59.4720   -6.2750 C.3   318  LEU318      0.0270
    154  CG       -19.7510  -59.3070   -7.3690 C.3   318  LEU318      0.0019
    155  CD1      -20.3170  -59.8470   -8.6510 C.3   318  LEU318      0.0001
    156  CD2      -19.3520  -57.8480   -7.5460 C.3   318  LEU318      0.0001
    157  N        -17.2830  -48.1860   -7.0790 N.3   343  CYS343     -0.1235
    158  CA       -16.8920  -48.0590   -8.4810 C.3   343  CYS343      0.1677
    159  C        -16.1060  -46.7740   -8.7430 C.2   343  CYS343      0.2270
    160  O        -15.0450  -46.8080   -9.3800 O.2   343  CYS343     -0.2867
    161  CB       -18.1340  -48.1320   -9.3710 C.3   343  CYS343      0.0956
    162  SG       -19.1370  -49.6110   -9.1140 S.3   343  CYS343     -0.0801
    163  N        -12.8330  -46.7500   -6.5350 N.3   346  LYS346     -0.1245
    164  CA       -12.0160  -47.7910   -7.1510 C.3   346  LYS346      0.1561
    165  C        -11.4730  -47.3140   -8.4910 C.2   346  LYS346      0.2260
    166  O        -10.2710  -47.4130   -8.7630 O.2   346  LYS346     -0.2867
    167  CB       -12.8340  -49.0710   -7.3320 C.3   346  LYS346      0.0271
    168  CG       -12.0710  -50.2350   -7.9400 C.3   346  LYS346      0.0035
    169  CD       -12.9080  -51.5100   -7.9190 C.3   346  LYS346      0.0206
    170  CE       -13.9700  -51.5130   -9.0090 C.3   346  LYS346      0.1093
    171  NZ       -13.4120  -51.9110  -10.3310 N.3   346  LYS346     -0.1314
@<TRIPOS>BOND
     1    40    41   ar
     2    40    38   ar
     3    41    39   ar
     4    20    21    1
     5    15    14    2
     6    38    36   ar
     7    12    13    1
     8    39    37   ar
     9    14    13    1
    10    21    22    1
    11    21    24    1
    12    23    22    2
    13    13    16    1
    14    36    37   ar
    15    36    35    1
    16    95    94    2
    17    24    25    1
    18     4     3    2
    19    16    17    1
    20     3     2    1
    21    94    93    1
    22    35    32    1
    23    17    18    1
    24    31    32    1
    25    25    27   ar
    26    25    26   ar
    27    93    92    1
    28    93    96    1
    29    27    29   ar
    30     1     2    1
    31     2     5    1
    32    32    33    1
    33    26    28   ar
    34    48    47    2
    35    29    30   ar
    36    18    19    1
    37   104   102   ar
    38   104   105   ar
    39   102    99   ar
    40   105   103   ar
    41    99    97   ar
    42    99   101   ar
    43    96    97    1
    44    97    98   ar
    45   101   103   ar
    46   101   100   ar
    47    98   100   ar
    48    47    49   am
    49    47    46    1
    50     5     6    1
    51    42    33   am
    52    42    43    1
    53    33    34    2
    54    28    30   ar
    55    46    43    1
    56    85    84    2
    57     6     7   ar
    58     6     8   ar
    59    43    44    1
    60     7     9   ar
    61    89    88    2
    62   111   110    1
    63   111   112    1
    64    88    87    1
    65    50    51    1
    66   110   107    1
    67     8    10   ar
    68    84    83    1
    69    84    86   am
    70    44    45    2
    71     9    11   ar
    72    54    51    1
    73    83    82    1
    74    51    52    1
    75   114   112   ar
    76   112   113   ar
    77   106   107    1
    78    87    86    1
    79    87    90    1
    80   107   108    1
    81    10    11   ar
    82   108   109    2
    83    52    53    2
    84    52    55   am
    85    90    91    1
    86    61    55    1
    87    61    60    1
    88    80    79    1
    89    55    56    1
    90    81    79    1
    91    79    78    2
    92   130   132   ar
    93   130   128   ar
    94    60    59    1
    95    74    73    2
    96   132   131   ar
    97    56    57    1
    98    56    59    1
    99    62    63    1
   100    57    58    2
   101   119   120    1
   102   119   116    1
   103   122   120   am
   104    73    72    1
   105   115   116    1
   106    78    77    1
   107   128   127    1
   108   128   129   ar
   109    67    68    1
   110    67    66    1
   111    70    68   ar
   112   131   129   ar
   113   127   124    1
   114    72    71    1
   115    72    75    1
   116    68    69   ar
   117   120   121    2
   118   171   170    1
   119    76    77    1
   120    76    75    1
   121   116   117    1
   122    63    66    1
   123    63    64    1
   124   117   118    2
   125   160   159    2
   126   161   162    1
   127   161   158    1
   128   148   146    1
   129   124   123    1
   130   124   125    1
   131   125   126    2
   132   170   169    1
   133   147   146    1
   134    64    65    2
   135   166   165    2
   136   159   158    1
   137   155   154    1
   138   165   164    1
   139   158   157    1
   140   146   143    1
   141   168   169    1
   142   168   167    1
   143   156   154    1
   144   141   139   ar
   145   154   153    1
   146   167   164    1
   147   164   163    1
   148   143   142    1
   149   143   144    1
   150   142   135   am
   151   139   138    1
   152   139   140   ar
   153   153   150    1
   154   138   137    1
   155   144   145    2
   156   133   134    1
   157   135   134    1
   158   135   136    2
   159   150   149    1
   160   150   151    1
   161   137   134    1
   162   151   152    2
