@<TRIPOS>MOLECULE
tmp/6c9xB00.pdb
 162 160 0 0 0
SMALL
GASTEIGER

@<TRIPOS>ATOM
      1  N          9.1390   -5.4250   18.1050 N.3    73  ASP73      -0.1239
      2  CA        10.2870   -6.2700   17.8300 C.3    73  ASP73       0.1674
      3  C         10.4350   -6.4140   16.3130 C.2    73  ASP73       0.2266
      4  O          9.7470   -7.2160   15.6870 O.2    73  ASP73      -0.2867
      5  CB        10.0770   -7.6330   18.4910 C.3    73  ASP73       0.1410
      6  CG        11.2390   -8.5860   18.2670 C.2    73  ASP73       0.3668
      7  OD1       12.1310   -8.2770   17.4490 O.co2  73  ASP73      -0.2456
      8  OD2       11.2510   -9.6590   18.9010 O.co2  73  ASP73      -0.2456
      9  N         13.7060   -6.8420   13.6660 N.3    75  PRO75      -0.2116
     10  CA        15.1690   -6.9830   13.5860 C.3    75  PRO75       0.1372
     11  C         15.7560   -6.5250   12.2510 C.2    75  PRO75       0.2244
     12  O         16.9200   -6.8170   11.9610 O.2    75  PRO75      -0.2868
     13  CB        15.3670   -8.4880   13.7490 C.3    75  PRO75       0.0268
     14  CG        14.1630   -9.0760   13.0660 C.3    75  PRO75       0.0207
     15  CD        13.0230   -8.1190   13.3690 C.3    75  PRO75       0.0892
     16  N         24.5680  -14.6760   21.1810 N.3   169  TRP169     -0.1241
     17  CA        23.4550  -15.5980   21.3040 C.3   169  TRP169      0.1605
     18  C         23.9820  -16.9840   20.9790 C.2   169  TRP169      0.2264
     19  O         24.2200  -17.3190   19.8110 O.2   169  TRP169     -0.2867
     20  CB        22.3410  -15.1790   20.3470 C.3   169  TRP169      0.0550
     21  CG        21.1140  -16.0350   20.3920 C.ar  169  TRP169      0.0003
     22  CD1       20.8170  -17.0200   21.2950 C.ar  169  TRP169      0.0946
     23  CD2       20.0260  -15.9900   19.4680 C.ar  169  TRP169      0.0152
     24  NE1       19.6000  -17.5820   20.9900 N.ar  169  TRP169     -0.2442
     25  CE2       19.0960  -16.9690   19.8710 C.ar  169  TRP169      0.0810
     26  CE3       19.7490  -15.2150   18.3350 C.ar  169  TRP169      0.0012
     27  CZ2       17.8990  -17.1910   19.1780 C.ar  169  TRP169      0.0191
     28  CZ3       18.5580  -15.4330   17.6540 C.ar  169  TRP169      0.0001
     29  CH2       17.6540  -16.4110   18.0770 C.ar  169  TRP169      0.0015
     30  N         23.4240  -14.8270   27.4500 N.3   197  ASP197     -0.1225
     31  CA        22.1660  -14.8430   26.7170 C.3   197  ASP197      0.1805
     32  C         21.3340  -16.0500   27.1630 C.2   197  ASP197      0.2597
     33  O         21.7510  -16.8160   28.0400 O.2   197  ASP197     -0.2718
     34  CB        22.4530  -14.8750   25.2080 C.3   197  ASP197      0.1424
     35  CG        21.4000  -14.1570   24.3820 C.2   197  ASP197      0.3668
     36  OD1       20.2100  -14.1700   24.7760 O.co2 197  ASP197     -0.2456
     37  OD2       21.7700  -13.5840   23.3280 O.co2 197  ASP197     -0.2456
     38  N         20.1720  -16.2270   26.5390 N.am  198  ILE198     -0.1980
     39  CA        19.0990  -17.0710   27.0770 C.3   198  ILE198      0.1595
     40  C         19.4590  -18.5260   27.3710 C.2   198  ILE198      0.2287
     41  O         18.7490  -19.2080   28.1180 O.2   198  ILE198     -0.2864
     42  CB        17.8400  -17.0280   26.1760 C.3   198  ILE198      0.0276
     43  CG1       18.1900  -17.3460   24.7140 C.3   198  ILE198      0.0022
     44  CG2       17.1380  -15.6700   26.3000 C.3   198  ILE198      0.0022
     45  CD1       16.9580  -17.3700   23.7860 C.3   198  ILE198      0.0001
     46  N         20.7310  -12.1210   30.9140 N.3   234  ILE234     -0.1245
     47  CA        19.5040  -11.6240   30.3200 C.3   234  ILE234      0.1561
     48  C         18.2940  -12.1020   31.1290 C.2   234  ILE234      0.2260
     49  O         18.2910  -13.1970   31.7160 O.2   234  ILE234     -0.2867
     50  CB        19.4200  -12.0880   28.8270 C.3   234  ILE234      0.0252
     51  CG1       18.3820  -11.2880   28.0270 C.3   234  ILE234      0.0019
     52  CG2       19.1670  -13.5960   28.7220 C.3   234  ILE234      0.0019
     53  CD1       18.4540  -11.5740   26.5080 C.3   234  ILE234      0.0001
     54  N         10.5870  -17.7580   23.7270 N.3   271  TRP271     -0.1241
     55  CA        11.6260  -18.7890   23.7650 C.3   271  TRP271      0.1605
     56  C         11.2420  -20.1040   24.4770 C.2   271  TRP271      0.2264
     57  O         11.5890  -21.1810   23.9780 O.2   271  TRP271     -0.2867
     58  CB        12.9440  -18.2310   24.3240 C.3   271  TRP271      0.0550
     59  CG        13.3890  -16.9770   23.6270 C.ar  271  TRP271      0.0003
     60  CD1       13.5340  -15.7340   24.1820 C.ar  271  TRP271      0.0946
     61  CD2       13.7260  -16.8350   22.2360 C.ar  271  TRP271      0.0152
     62  NE1       13.9510  -14.8320   23.2260 N.ar  271  TRP271     -0.2442
     63  CE2       14.0720  -15.4830   22.0250 C.ar  271  TRP271      0.0810
     64  CE3       13.7750  -17.7220   21.1530 C.ar  271  TRP271      0.0012
     65  CZ2       14.4570  -14.9960   20.7720 C.ar  271  TRP271      0.0191
     66  CZ3       14.1580  -17.2350   19.9090 C.ar  271  TRP271      0.0001
     67  CH2       14.4900  -15.8860   19.7320 C.ar  271  TRP271      0.0015
     68  N         20.3740   -7.4000   31.6610 N.3   305  TRP305     -0.1241
     69  CA        19.7060   -6.7830   30.5190 C.3   305  TRP305      0.1605
     70  C         18.3130   -7.3780   30.3470 C.2   305  TRP305      0.2264
     71  O         18.1480   -8.6020   30.4140 O.2   305  TRP305     -0.2867
     72  CB        20.5480   -6.8340   29.2190 C.3   305  TRP305      0.0550
     73  CG        21.1910   -8.1620   28.7880 C.ar  305  TRP305      0.0003
     74  CD1       21.9350   -9.0210   29.5590 C.ar  305  TRP305      0.0946
     75  CD2       21.2190   -8.7020   27.4540 C.ar  305  TRP305      0.0152
     76  NE1       22.3930  -10.0740   28.7880 N.ar  305  TRP305     -0.2442
     77  CE2       21.9620   -9.9040   27.4990 C.ar  305  TRP305      0.0810
     78  CE3       20.6640   -8.3000   26.2350 C.ar  305  TRP305      0.0012
     79  CZ2       22.1720  -10.7030   26.3660 C.ar  305  TRP305      0.0191
     80  CZ3       20.8750   -9.0890   25.1080 C.ar  305  TRP305      0.0001
     81  CH2       21.6170  -10.2810   25.1830 C.ar  305  TRP305      0.0015
     82  N         14.9670   -8.0600   28.1140 N.3   307  ASP307     -0.1225
     83  CA        14.7290   -8.2630   26.6850 C.3   307  ASP307      0.1805
     84  C         13.3060   -8.7300   26.3740 C.2   307  ASP307      0.2597
     85  O         12.5690   -9.1620   27.2680 O.2   307  ASP307     -0.2718
     86  CB        15.7240   -9.2990   26.1560 C.3   307  ASP307      0.1424
     87  CG        15.7350   -9.3920   24.6340 C.2   307  ASP307      0.3668
     88  OD1       15.4630   -8.3740   23.9650 O.co2 307  ASP307     -0.2456
     89  OD2       16.0120  -10.4900   24.1040 O.co2 307  ASP307     -0.2456
     90  N         12.9430   -8.6520   25.0940 N.am  308  MET308     -0.1979
     91  CA        11.6630   -9.1410   24.5720 C.3   308  MET308      0.1605
     92  C         10.4970   -8.4400   25.2380 C.2   308  MET308      0.2287
     93  O          9.3930   -8.9910   25.3260 O.2   308  MET308     -0.2864
     94  CB        11.5290  -10.6610   24.7470 C.3   308  MET308      0.0413
     95  CG        12.7090  -11.4760   24.2440 C.3   308  MET308      0.0598
     96  SD        13.0570  -11.2800   22.4750 S.3   308  MET308     -0.1393
     97  CE        11.7640  -12.2760   21.7350 C.3   308  MET308      0.0692
     98  N          5.6360  -14.4070   19.7160 N.3   314  PHE314     -0.1241
     99  CA         5.8370  -15.2210   18.5100 C.3   314  PHE314      0.1605
    100  C          4.4810  -15.6290   17.9340 C.2   314  PHE314      0.2264
    101  O          4.2870  -15.6660   16.7120 O.2   314  PHE314     -0.2867
    102  CB         6.6560  -16.4880   18.7970 C.3   314  PHE314      0.0534
    103  CG         8.0800  -16.2430   19.2310 C.ar  314  PHE314     -0.0203
    104  CD1        8.6410  -14.9740   19.2230 C.ar  314  PHE314     -0.0042
    105  CD2        8.8580  -17.3180   19.6600 C.ar  314  PHE314     -0.0042
    106  CE1        9.9660  -14.7730   19.6390 C.ar  314  PHE314     -0.0003
    107  CE2       10.1740  -17.1260   20.0700 C.ar  314  PHE314     -0.0003
    108  CZ        10.7290  -15.8570   20.0570 C.ar  314  PHE314     -0.0000
    109  N         15.5420   -3.3620   26.2500 N.3   404  ARG404     -0.1245
    110  CA        15.3160   -3.1980   24.8180 C.3   404  ARG404      0.1563
    111  C         14.2090   -2.1730   24.5480 C.2   404  ARG404      0.2260
    112  O         14.4220   -1.1930   23.8360 O.2   404  ARG404     -0.2867
    113  CB        15.0080   -4.5360   24.1420 C.3   404  ARG404      0.0307
    114  CG        15.2410   -4.4400   22.6360 C.3   404  ARG404      0.0489
    115  CD        15.2160   -5.7920   21.9490 C.3   404  ARG404      0.2205
    116  NE        13.8680   -6.3400   21.8650 N.pl3 404  ARG404     -0.0865
    117  CZ        13.5580   -7.4460   21.1940 C.cat 404  ARG404      0.5346
    118  NH1       12.3040   -7.8680   21.1590 N.pl3 404  ARG404      0.1354
    119  NH2       14.4980   -8.1190   20.5470 N.pl3 404  ARG404      0.1354
    120  N         19.8980   -0.6300   24.9630 N.3   417  TRP417     -0.1241
    121  CA        20.7420   -0.8990   23.7990 C.3   417  TRP417      0.1605
    122  C         19.8600   -0.7920   22.5820 C.2   417  TRP417      0.2264
    123  O         18.6400   -0.9150   22.6930 O.2   417  TRP417     -0.2867
    124  CB        21.4750   -2.2300   23.8870 C.3   417  TRP417      0.0550
    125  CG        20.8010   -3.4480   23.3230 C.ar  417  TRP417      0.0003
    126  CD1       21.0710   -4.0520   22.1190 C.ar  417  TRP417      0.0946
    127  CD2       19.8390   -4.2800   23.9810 C.ar  417  TRP417      0.0152
    128  NE1       20.3110   -5.1920   21.9800 N.ar  417  TRP417     -0.2442
    129  CE2       19.5450   -5.3540   23.1060 C.ar  417  TRP417      0.0810
    130  CE3       19.1810   -4.2120   25.2150 C.ar  417  TRP417      0.0012
    131  CZ2       18.6220   -6.3510   23.4270 C.ar  417  TRP417      0.0191
    132  CZ3       18.2660   -5.2120   25.5390 C.ar  417  TRP417      0.0001
    133  CH2       17.9980   -6.2650   24.6430 C.ar  417  TRP417      0.0015
    134  N         18.3320   -5.1120   17.6830 N.3   420  ASP420     -0.1239
    135  CA        18.9060   -5.9970   16.6880 C.3   420  ASP420      0.1674
    136  C         19.2520   -5.2380   15.4140 C.2   420  ASP420      0.2266
    137  O         18.4610   -5.1930   14.4630 O.2   420  ASP420     -0.2867
    138  CB        17.9610   -7.1710   16.3950 C.3   420  ASP420      0.1410
    139  CG        17.7210   -8.0500   17.6160 C.2   420  ASP420      0.3668
    140  OD1       18.5970   -8.0900   18.5020 O.co2 420  ASP420     -0.2456
    141  OD2       16.6520   -8.6970   17.6970 O.co2 420  ASP420     -0.2456
    142  N         24.5480   -7.0120   14.9930 N.3   453  PHE453     -0.1241
    143  CA        23.9550   -8.2200   15.5660 C.3   453  PHE453      0.1605
    144  C         23.6930   -9.2870   14.5060 C.2   453  PHE453      0.2264
    145  O         24.2440  -10.3990   14.5600 O.2   453  PHE453     -0.2867
    146  CB        22.6600   -7.8500   16.3020 C.3   453  PHE453      0.0534
    147  CG        21.8550   -9.0290   16.7770 C.ar  453  PHE453     -0.0203
    148  CD1       22.2200   -9.7230   17.9240 C.ar  453  PHE453     -0.0042
    149  CD2       20.7050   -9.4190   16.0930 C.ar  453  PHE453     -0.0042
    150  CE1       21.4570  -10.8020   18.3770 C.ar  453  PHE453     -0.0003
    151  CE2       19.9320  -10.4850   16.5390 C.ar  453  PHE453     -0.0003
    152  CZ        20.3110  -11.1830   17.6860 C.ar  453  PHE453     -0.0000
    153  N         28.0960   -7.7840   20.2880 N.3   478  HIS478     -0.1241
    154  CA        27.0960   -8.8520   20.4330 C.3   478  HIS478      0.1621
    155  C         26.6460   -9.2930   19.0440 C.2   478  HIS478      0.2264
    156  O         26.6600   -8.4920   18.1040 O.2   478  HIS478     -0.2867
    157  CB        25.9140   -8.3480   21.2740 C.3   478  HIS478      0.0745
    158  CG        24.8480   -9.3730   21.5340 C.ar  478  HIS478      0.0817
    159  ND1       25.1140  -10.6170   22.0660 N.ar  478  HIS478     -0.2268
    160  CD2       23.5060   -9.3170   21.3630 C.ar  478  HIS478      0.1154
    161  CE1       23.9860  -11.2960   22.1850 C.ar  478  HIS478      0.1986
    162  NE2       22.9920  -10.5270   21.7720 N.ar  478  HIS478     -0.2212
@<TRIPOS>BOND
     1    12    11    2
     2    11    10    1
     3    14    15    1
     4    14    13    1
     5    15     9    1
     6    10     9    1
     7    10    13    1
     8   137   136    2
     9   144   145    2
    10   144   143    1
    11   142   143    1
    12   136   135    1
    13   143   146    1
    14     4     3    2
    15   149   151   ar
    16   149   147   ar
    17   146   147    1
    18     3     2    1
    19   138   135    1
    20   138   139    1
    21   151   152   ar
    22   135   134    1
    23   101   100    2
    24   147   148   ar
    25     7     6   ar
    26   139   141   ar
    27   139   140   ar
    28    28    29   ar
    29    28    26   ar
    30   152   150   ar
    31     2     1    1
    32     2     5    1
    33   148   150   ar
    34   100    99    1
    35    29    27   ar
    36   156   155    2
    37     6     5    1
    38     6     8   ar
    39    26    23   ar
    40    99   102    1
    41    99    98    1
    42   102   103    1
    43   155   154    1
    44    27    25   ar
    45   104   103   ar
    46   104   106   ar
    47   103   105   ar
    48    23    25   ar
    49    23    21   ar
    50   106   108   ar
    51   105   107   ar
    52    67    66   ar
    53    67    65   ar
    54    19    18    2
    55    25    24   ar
    56    66    64   ar
    57   108   107   ar
    58   153   154    1
    59    20    21    1
    60    20    17    1
    61    21    22   ar
    62   154   157    1
    63   119   117    1
    64    65    63   ar
    65    18    17    1
    66    24    22   ar
    67    64    61   ar
    68   118   117    1
    69    16    17    1
    70   117   116    2
    71   157   158    1
    72   160   158   ar
    73   160   162   ar
    74   158   159   ar
    75    97    96    1
    76   162   161   ar
    77   116   115    1
    78   115   114    1
    79   128   126   ar
    80   128   129   ar
    81    63    61   ar
    82    63    62   ar
    83   159   161   ar
    84   126   125   ar
    85    61    59   ar
    86    96    95    1
    87   122   123    2
    88   122   121    1
    89   114   113    1
    90   129   131   ar
    91   129   127   ar
    92    62    60   ar
    93   125   124    1
    94   125   127   ar
    95    37    35   ar
    96   131   133   ar
    97    59    60   ar
    98    59    58    1
    99    54    55    1
   100    55    58    1
   101    55    56    1
   102    45    43    1
   103   121   124    1
   104   121   120    1
   105   112   111    2
   106    88    87   ar
   107    57    56    2
   108   127   130   ar
   109    89    87   ar
   110   113   110    1
   111    95    94    1
   112    35    36   ar
   113    35    34    1
   114   111   110    1
   115    91    94    1
   116    91    90    1
   117    91    92    1
   118    87    86    1
   119   133   132   ar
   120    43    42    1
   121   110   109    1
   122    90    84   am
   123    80    81   ar
   124    80    78   ar
   125    81    79   ar
   126    34    31    1
   127   130   132   ar
   128    92    93    2
   129    86    83    1
   130    42    44    1
   131    42    39    1
   132    78    75   ar
   133    79    77   ar
   134    84    83    1
   135    84    85    2
   136    53    51    1
   137    38    39    1
   138    38    32   am
   139    83    82    1
   140    31    32    1
   141    31    30    1
   142    39    40    1
   143    32    33    2
   144    40    41    2
   145    75    77   ar
   146    75    73   ar
   147    77    76   ar
   148    51    50    1
   149    52    50    1
   150    76    74   ar
   151    73    72    1
   152    73    74   ar
   153    50    47    1
   154    72    69    1
   155    47    46    1
   156    47    48    1
   157    70    71    2
   158    70    69    1
   159    69    68    1
   160    48    49    2
