@<TRIPOS>MOLECULE
tmp/6ca1B00.pdb
 155 153 0 0 0
SMALL
GASTEIGER

@<TRIPOS>ATOM
      1  N         -4.2460   -6.8400  -16.5320 N.3    75  ASP75      -0.1239
      2  CA        -5.3110   -6.0450  -15.9330 C.3    75  ASP75       0.1674
      3  C         -5.4260   -6.3730  -14.4470 C.2    75  ASP75       0.2266
      4  O         -6.1960   -7.2430  -14.0550 O.2    75  ASP75      -0.2867
      5  CB        -6.6310   -6.3310  -16.6660 C.3    75  ASP75       0.1410
      6  CG        -7.8370   -5.6420  -16.0370 C.2    75  ASP75       0.3668
      7  OD1       -7.6710   -4.7710  -15.1530 O.co2  75  ASP75      -0.2456
      8  OD2       -8.9730   -5.9750  -16.4480 O.co2  75  ASP75      -0.2456
      9  N        -16.8640    6.5080  -13.9350 N.3   171  TRP171     -0.1241
     10  CA       -17.4950    5.3130  -14.4460 C.3   171  TRP171      0.1605
     11  C        -18.8990    5.3110  -13.8780 C.2   171  TRP171      0.2264
     12  O        -19.1120    4.9600  -12.7210 O.2   171  TRP171     -0.2867
     13  CB       -16.7250    4.0790  -14.0050 C.3   171  TRP171      0.0550
     14  CG       -17.3130    2.7670  -14.4230 C.ar  171  TRP171      0.0003
     15  CD1      -18.3890    2.5540  -15.2420 C.ar  171  TRP171      0.0946
     16  CD2      -16.8540    1.4750  -14.0130 C.ar  171  TRP171      0.0152
     17  NE1      -18.6230    1.2000  -15.3650 N.ar  171  TRP171     -0.2442
     18  CE2      -17.6910    0.5210  -14.6240 C.ar  171  TRP171      0.0810
     19  CE3      -15.8090    1.0350  -13.1910 C.ar  171  TRP171      0.0012
     20  CZ2      -17.5140   -0.8520  -14.4370 C.ar  171  TRP171      0.0191
     21  CZ3      -15.6360   -0.3290  -13.0060 C.ar  171  TRP171      0.0001
     22  CH2      -16.4850   -1.2550  -13.6260 C.ar  171  TRP171      0.0015
     23  N        -17.3660    7.2530  -20.0730 N.3   199  ASP199     -0.1225
     24  CA       -16.9980    5.8720  -19.8400 C.3   199  ASP199      0.1805
     25  C        -18.0430    5.0000  -20.5220 C.2   199  ASP199      0.2597
     26  O        -18.9380    5.5110  -21.2210 O.2   199  ASP199     -0.2718
     27  CB       -16.8760    5.5830  -18.3300 C.3   199  ASP199      0.1424
     28  CG       -15.7690    4.5850  -18.0050 C.2   199  ASP199      0.3668
     29  OD1      -15.6250    3.5840  -18.7440 O.co2 199  ASP199     -0.2456
     30  OD2      -15.0400    4.7940  -17.0020 O.co2 199  ASP199     -0.2456
     31  N        -17.9450    3.6940  -20.3060 N.am  200  ILE200     -0.1980
     32  CA       -18.5860    2.7100  -21.1800 C.3   200  ILE200      0.1595
     33  C        -20.1110    2.7780  -21.2970 C.2   200  ILE200      0.2287
     34  O        -20.7010    2.1620  -22.1970 O.2   200  ILE200     -0.2864
     35  CB       -18.1600    1.2750  -20.8020 C.3   200  ILE200      0.0276
     36  CG1      -18.4820    0.9870  -19.3290 C.3   200  ILE200      0.0022
     37  CG2      -16.6780    1.0800  -21.0820 C.3   200  ILE200      0.0022
     38  CD1      -18.1190   -0.4190  -18.8680 C.3   200  ILE200      0.0001
     39  N        -14.5970    6.6000  -24.4420 N.3   236  ILE236     -0.1245
     40  CA       -13.7450    5.4380  -24.2620 C.3   236  ILE236      0.1561
     41  C        -13.9700    4.4770  -25.4280 C.2   236  ILE236      0.2260
     42  O        -15.0530    4.4530  -26.0310 O.2   236  ILE236     -0.2867
     43  CB       -14.0830    4.7430  -22.9000 C.3   236  ILE236      0.0252
     44  CG1      -13.0120    3.7330  -22.4830 C.3   236  ILE236      0.0019
     45  CG2      -15.4620    4.0880  -22.9410 C.3   236  ILE236      0.0019
     46  CD1      -13.1600    3.2930  -21.0200 C.3   236  ILE236      0.0001
     47  N        -17.2460   -6.5240  -21.1040 N.3   273  TRP273     -0.1241
     48  CA       -18.4460   -5.7610  -20.7470 C.3   273  TRP273      0.1605
     49  C        -19.7160   -6.0370  -21.5620 C.2   273  TRP273      0.2264
     50  O        -20.8020   -6.0850  -20.9860 O.2   273  TRP273     -0.2867
     51  CB       -18.1570   -4.2610  -20.6660 C.3   273  TRP273      0.0550
     52  CG       -17.3650   -3.9410  -19.4530 C.ar  273  TRP273      0.0003
     53  CD1      -16.1040   -3.4250  -19.4060 C.ar  273  TRP273      0.0946
     54  CD2      -17.7630   -4.1630  -18.0950 C.ar  273  TRP273      0.0152
     55  NE1      -15.7000   -3.2960  -18.1010 N.ar  273  TRP273     -0.2442
     56  CE2      -16.7010   -3.7390  -17.2790 C.ar  273  TRP273      0.0810
     57  CE3      -18.9160   -4.6690  -17.4930 C.ar  273  TRP273      0.0012
     58  CZ2      -16.7580   -3.8110  -15.8870 C.ar  273  TRP273      0.0191
     59  CZ3      -18.9720   -4.7350  -16.1110 C.ar  273  TRP273      0.0001
     60  CH2      -17.9020   -4.3040  -15.3240 C.ar  273  TRP273      0.0015
     61  N         -9.9600    7.5920  -25.3390 N.3   307  TRP307     -0.1241
     62  CA        -9.1080    6.7600  -24.5010 C.3   307  TRP307      0.1605
     63  C         -9.4290    5.2910  -24.7570 C.2   307  TRP307      0.2264
     64  O        -10.5970    4.9240  -24.9110 O.2   307  TRP307     -0.2867
     65  CB        -9.1540    7.1670  -23.0240 C.3   307  TRP307      0.0550
     66  CG       -10.5180    7.2610  -22.3660 C.ar  307  TRP307      0.0003
     67  CD1      -11.6190    7.9420  -22.8210 C.ar  307  TRP307      0.0946
     68  CD2      -10.8860    6.7060  -21.0940 C.ar  307  TRP307      0.0152
     69  NE1      -12.6590    7.8130  -21.9180 N.ar  307  TRP307     -0.2442
     70  CE2      -12.2320    7.0600  -20.8520 C.ar  307  TRP307      0.0810
     71  CE3      -10.2110    5.9360  -20.1400 C.ar  307  TRP307      0.0012
     72  CZ2      -12.9120    6.6660  -19.6960 C.ar  307  TRP307      0.0191
     73  CZ3      -10.8970    5.5350  -18.9930 C.ar  307  TRP307      0.0001
     74  CH2      -12.2250    5.9040  -18.7810 C.ar  307  TRP307      0.0015
     75  N         -9.2480    1.3550  -23.6410 N.3   309  ASP309     -0.1225
     76  CA        -9.2650    0.6170  -22.3750 C.3   309  ASP309      0.1805
     77  C         -9.3110   -0.8920  -22.6090 C.2   309  ASP309      0.2597
     78  O         -9.6080   -1.3430  -23.7180 O.2   309  ASP309     -0.2718
     79  CB       -10.4890    1.0470  -21.5600 C.3   309  ASP309      0.1424
     80  CG       -10.4710    0.5130  -20.1300 C.2   309  ASP309      0.3668
     81  OD1       -9.3660    0.2330  -19.6110 O.co2 309  ASP309     -0.2456
     82  OD2      -11.5690    0.3730  -19.5320 O.co2 309  ASP309     -0.2456
     83  N         -9.0050   -1.6640  -21.5610 N.am  310  MET310     -0.1979
     84  CA        -9.1210   -3.1210  -21.5960 C.3   310  MET310      0.1605
     85  C         -8.2680   -3.7520  -22.6960 C.2   310  MET310      0.2287
     86  O         -8.5590   -4.8550  -23.1510 O.2   310  MET310     -0.2864
     87  CB       -10.5920   -3.5270  -21.7870 C.3   310  MET310      0.0413
     88  CG       -11.5380   -2.8900  -20.8010 C.3   310  MET310      0.0598
     89  SD       -11.2410   -3.5380  -19.1600 S.3   310  MET310     -0.1393
     90  CE       -12.0950   -5.1050  -19.2990 C.3   310  MET310      0.0692
     91  N        -12.7260  -11.4830  -19.0480 N.3   316  PHE316     -0.1241
     92  CA       -13.4200  -11.9040  -17.8290 C.3   316  PHE316      0.1605
     93  C        -13.4920  -13.4220  -17.7940 C.2   316  PHE316      0.2264
     94  O        -13.3350  -14.0340  -16.7360 O.2   316  PHE316     -0.2867
     95  CB       -14.8170  -11.3070  -17.7370 C.3   316  PHE316      0.0534
     96  CG       -14.8290   -9.8180  -17.6070 C.ar  316  PHE316     -0.0203
     97  CD1      -13.6720   -9.1280  -17.2960 C.ar  316  PHE316     -0.0042
     98  CD2      -16.0030   -9.1050  -17.8070 C.ar  316  PHE316     -0.0042
     99  CE1      -13.6800   -7.7590  -17.1770 C.ar  316  PHE316     -0.0003
    100  CE2      -16.0150   -7.7340  -17.6890 C.ar  316  PHE316     -0.0003
    101  CZ       -14.8520   -7.0610  -17.3740 C.ar  316  PHE316     -0.0000
    102  N         -4.3780    2.2530  -21.9620 N.3   406  ARG406     -0.1245
    103  CA        -3.9930    1.6270  -20.6980 C.3   406  ARG406      0.1563
    104  C         -2.7670    0.7270  -20.8660 C.2   406  ARG406      0.2260
    105  O         -1.7430    0.9090  -20.1970 O.2   406  ARG406     -0.2867
    106  CB        -5.1590    0.8320  -20.1130 C.3   406  ARG406      0.0307
    107  CG        -5.0180    0.5940  -18.6160 C.3   406  ARG406      0.0489
    108  CD        -6.2820    0.0340  -18.0090 C.3   406  ARG406      0.2205
    109  NE        -6.5420   -1.3410  -18.4300 N.pl3 406  ARG406     -0.0865
    110  CZ        -7.4700   -2.1160  -17.8780 C.cat 406  ARG406      0.5346
    111  NH1       -7.6470   -3.3640  -18.3000 N.pl3 406  ARG406      0.1354
    112  NH2       -8.2180   -1.6400  -16.8930 N.pl3 406  ARG406      0.1354
    113  N         -2.4750    6.4650  -19.4420 N.3   419  TRP419     -0.1241
    114  CA        -2.7680    6.8020  -18.0580 C.3   419  TRP419      0.1605
    115  C         -2.3780    5.6000  -17.2150 C.2   419  TRP419      0.2264
    116  O         -2.2530    4.4950  -17.7530 O.2   419  TRP419     -0.2867
    117  CB        -4.2250    7.2390  -17.8680 C.3   419  TRP419      0.0550
    118  CG        -5.2300    6.1800  -17.5210 C.ar  419  TRP419      0.0003
    119  CD1       -5.7140    5.8870  -16.2770 C.ar  419  TRP419      0.0946
    120  CD2       -5.9350    5.3330  -18.4370 C.ar  419  TRP419      0.0152
    121  NE1       -6.6550    4.8930  -16.3600 N.ar  419  TRP419     -0.2442
    122  CE2       -6.8060    4.5310  -17.6700 C.ar  419  TRP419      0.0810
    123  CE3       -5.9010    5.1650  -19.8230 C.ar  419  TRP419      0.0012
    124  CZ2       -7.6350    3.5720  -18.2540 C.ar  419  TRP419      0.0191
    125  CZ3       -6.7200    4.2200  -20.3990 C.ar  419  TRP419      0.0001
    126  CH2       -7.5780    3.4320  -19.6170 C.ar  419  TRP419      0.0015
    127  N         -5.7590    1.4970  -13.0990 N.3   422  ASP422     -0.1239
    128  CA        -6.6360    1.4370  -11.9390 C.3   422  ASP422      0.1674
    129  C         -5.8790    1.5580  -10.6250 C.2   422  ASP422      0.2266
    130  O         -5.5980    0.5640   -9.9460 O.2   422  ASP422     -0.2867
    131  CB        -7.5110    0.1890  -11.9910 C.3   422  ASP422      0.1410
    132  CG        -8.4520    0.2010  -13.1890 C.2   422  ASP422      0.3668
    133  OD1       -8.7100    1.3090  -13.7090 O.co2 422  ASP422     -0.2456
    134  OD2       -8.9200   -0.8770  -13.6160 O.co2 422  ASP422     -0.2456
    135  N         -8.7150    5.9620   -8.4070 N.3   455  PHE455     -0.1241
    136  CA        -9.8050    5.3130   -9.1290 C.3   455  PHE455      0.1605
    137  C        -10.6990    4.4760   -8.2110 C.2   455  PHE455      0.2264
    138  O        -11.9120    4.7300   -8.0890 O.2   455  PHE455     -0.2867
    139  CB        -9.2200    4.4340  -10.2480 C.3   455  PHE455      0.0534
    140  CG       -10.2510    3.6400  -11.0100 C.ar  455  PHE455     -0.0203
    141  CD1      -11.1350    4.2720  -11.8790 C.ar  455  PHE455     -0.0042
    142  CD2      -10.3270    2.2610  -10.8630 C.ar  455  PHE455     -0.0042
    143  CE1      -12.0880    3.5330  -12.5860 C.ar  455  PHE455     -0.0003
    144  CE2      -11.2640    1.5170  -11.5580 C.ar  455  PHE455     -0.0003
    145  CZ       -12.1470    2.1500  -12.4250 C.ar  455  PHE455     -0.0000
    146  N        -10.7200   10.9030  -12.0820 N.3   480  HIS480     -0.1241
    147  CA       -11.5530    9.7910  -12.5480 C.3   480  HIS480      0.1621
    148  C        -11.7820    8.7720  -11.4260 C.2   480  HIS480      0.2264
    149  O        -10.8870    8.5340  -10.6030 O.2   480  HIS480     -0.2867
    150  CB       -10.8990    9.1270  -13.7610 C.3   480  HIS480      0.0745
    151  CG       -11.6740    7.9740  -14.3170 C.ar  480  HIS480      0.0817
    152  ND1      -12.9940    8.0850  -14.7170 N.ar  480  HIS480     -0.2268
    153  CD2      -11.3150    6.6920  -14.5510 C.ar  480  HIS480      0.1154
    154  CE1      -13.4100    6.9150  -15.1670 C.ar  480  HIS480      0.1986
    155  NE2      -12.4140    6.0510  -15.0800 N.ar  480  HIS480     -0.2212
@<TRIPOS>BOND
     1    42    41    2
     2    41    40    1
     3    61    62    1
     4    64    63    2
     5    63    62    1
     6    62    65    1
     7    39    40    1
     8    40    43    1
     9    78    77    2
    10    75    76    1
    11    86    85    2
    12    65    66    1
    13    45    43    1
    14    43    44    1
    15    67    66   ar
    16    67    69   ar
    17    85    84    1
    18    77    76    1
    19    77    83   am
    20    44    46    1
    21    76    79    1
    22    66    68   ar
    23    34    33    2
    24   102   103    1
    25    69    70   ar
    26    87    84    1
    27    87    88    1
    28    84    83    1
    29    49    50    2
    30    49    48    1
    31    79    80    1
    32    33    32    1
    33    26    25    2
    34    32    35    1
    35    32    31    1
    36    47    48    1
    37    68    70   ar
    38    68    71   ar
    39    37    35    1
    40   104   103    1
    41   104   105    2
    42    70    72   ar
    43    35    36    1
    44    88    89    1
    45    48    51    1
    46   103   106    1
    47    51    52    1
    48    25    31   am
    49    25    24    1
    50   125   123   ar
    51   125   126   ar
    52    71    73   ar
    53    80    81   ar
    54    80    82   ar
    55   106   107    1
    56    23    24    1
    57    24    27    1
    58   123   120   ar
    59    72    74   ar
    60   126   124   ar
    61    52    53   ar
    62    52    54   ar
    63   113   114    1
    64    53    55   ar
    65    36    38    1
    66    90    89    1
    67    91    92    1
    68    73    74   ar
    69    29    28   ar
    70   107   108    1
    71   120   122   ar
    72   120   118   ar
    73   109   108    1
    74   109   110    2
    75    27    28    1
    76   111   110    1
    77   124   122   ar
    78    55    56   ar
    79    54    57   ar
    80    54    56   ar
    81   114   117    1
    82   114   115    1
    83    28    30   ar
    84   110   112    1
    85   117   118    1
    86    92    93    1
    87    92    95    1
    88    98   100   ar
    89    98    96   ar
    90    93    94    2
    91   116   115    2
    92    95    96    1
    93   100   101   ar
    94   122   121   ar
    95    96    97   ar
    96   118   119   ar
    97    57    59   ar
    98   101    99   ar
    99    97    99   ar
   100    56    58   ar
   101     5     6    1
   102     5     2    1
   103     1     2    1
   104     8     6   ar
   105   121   119   ar
   106    59    60   ar
   107     6     7   ar
   108     2     3    1
   109    58    60   ar
   110    17    15   ar
   111    17    18   ar
   112    15    14   ar
   113   154   155   ar
   114   154   152   ar
   115   155   153   ar
   116   152   151   ar
   117    18    20   ar
   118    18    16   ar
   119   153   151   ar
   120     3     4    2
   121    10    13    1
   122    10     9    1
   123    10    11    1
   124    20    22   ar
   125    14    16   ar
   126    14    13    1
   127   151   150    1
   128    16    19   ar
   129    11    12    2
   130   150   147    1
   131   133   132   ar
   132    22    21   ar
   133   134   132   ar
   134    19    21   ar
   135   132   131    1
   136   127   128    1
   137   143   145   ar
   138   143   141   ar
   139   147   146    1
   140   147   148    1
   141   145   144   ar
   142   131   128    1
   143   128   129    1
   144   141   140   ar
   145   144   142   ar
   146   148   149    2
   147   140   142   ar
   148   140   139    1
   149   129   130    2
   150   139   136    1
   151   136   135    1
   152   136   137    1
   153   137   138    2
