@<TRIPOS>MOLECULE
tmp/6ca4B00.pdb
 96 93 0 0 0
SMALL
GASTEIGER

@<TRIPOS>ATOM
      1  N         13.9250  -12.5790    6.7200 N.3   156  ARG156     -0.1231
      2  CA        14.4080  -13.3110    7.8810 C.3   156  ARG156      0.1694
      3  C         13.4730  -14.4790    8.2020 C.2   156  ARG156      0.2592
      4  O         12.3720  -14.6060    7.6610 O.2   156  ARG156     -0.2718
      5  CB        14.5150  -12.3750    9.0880 C.3   156  ARG156      0.0321
      6  CG        15.8670  -11.7250    9.2890 C.3   156  ARG156      0.0489
      7  CD        16.1470  -10.6670    8.2490 C.3   156  ARG156      0.2205
      8  NE        17.4190   -9.9910    8.4990 N.pl3 156  ARG156     -0.0865
      9  CZ        17.9240   -9.0360    7.7240 C.cat 156  ARG156      0.5346
     10  NH1       17.2650   -8.6390    6.6450 N.pl3 156  ARG156      0.1354
     11  NH2       19.0890   -8.4740    8.0240 N.pl3 156  ARG156      0.1354
     12  N         13.9300  -15.3420    9.1080 N.am  157  ASP157     -0.1960
     13  CA        13.1620  -16.5270    9.4640 C.3   157  ASP157      0.1840
     14  C         11.7340  -16.1660    9.8570 C.2   157  ASP157      0.2622
     15  O         11.5000  -15.2670   10.6710 O.2   157  ASP157     -0.2715
     16  CB        13.8460  -17.2660   10.6150 C.3   157  ASP157      0.1450
     17  CG        14.9920  -18.1410   10.1480 C.2   157  ASP157      0.3671
     18  OD1       14.7550  -19.0280    9.2980 O.co2 157  ASP157     -0.2456
     19  OD2       16.1260  -17.9430   10.6300 O.co2 157  ASP157     -0.2456
     20  N         10.7820  -16.8730    9.2520 N.am  158  ALA158     -0.1963
     21  CA         9.3540  -16.8480    9.5540 C.3   158  ALA158      0.1728
     22  C          8.6370  -15.5960    9.0680 C.2   158  ALA158      0.2616
     23  O          7.4340  -15.4600    9.3300 O.2   158  ALA158     -0.2715
     24  CB         9.0720  -17.0070   11.0580 C.3   158  ALA158      0.0334
     25  N          9.3080  -14.6890    8.3560 N.am  159  GLU159     -0.1963
     26  CA         8.6200  -13.4890    7.8970 C.3   159  GLU159      0.1733
     27  C          7.5730  -13.8100    6.8320 C.2   159  GLU159      0.2616
     28  O          6.5150  -13.1710    6.8070 O.2   159  GLU159     -0.2715
     29  CB         9.6260  -12.4580    7.3830 C.3   159  GLU159      0.0429
     30  CG        10.3140  -11.7300    8.5300 C.3   159  GLU159      0.1163
     31  CD        11.2750  -10.6540    8.0940 C.2   159  GLU159      0.3649
     32  OE1       11.7560  -10.7190    6.9380 O.co2 159  GLU159     -0.2457
     33  OE2       11.5520   -9.7470    8.9200 O.co2 159  GLU159     -0.2457
     34  N          7.8180  -14.8000    5.9650 N.am  160  VAL160     -0.1977
     35  CA         6.7940  -15.1830    4.9940 C.3   160  VAL160      0.1596
     36  C          5.6250  -15.8690    5.6950 C.2   160  VAL160      0.2287
     37  O          4.4570  -15.6040    5.3810 O.2   160  VAL160     -0.2864
     38  CB         7.3870  -16.0760    3.8890 C.3   160  VAL160      0.0276
     39  CG1        6.2680  -16.6140    3.0130 C.3   160  VAL160      0.0022
     40  CG2        8.3890  -15.2860    3.0670 C.3   160  VAL160      0.0022
     41  N         13.1120  -22.3120   -5.0490 N.3   174  TRP174     -0.1227
     42  CA        14.0020  -23.1510   -4.2560 C.3   174  TRP174      0.1737
     43  C         13.2150  -24.2240   -3.5150 C.2   174  TRP174      0.2595
     44  O         13.6540  -25.3760   -3.4160 O.2   174  TRP174     -0.2718
     45  CB        14.8010  -22.3010   -3.2690 C.3   174  TRP174      0.0564
     46  CG        15.6540  -23.1450   -2.3750 C.ar  174  TRP174      0.0003
     47  CD1       16.8270  -23.7600   -2.7030 C.ar  174  TRP174      0.0946
     48  CD2       15.3890  -23.4840   -1.0100 C.ar  174  TRP174      0.0152
     49  NE1       17.3140  -24.4560   -1.6220 N.ar  174  TRP174     -0.2442
     50  CE2       16.4500  -24.3000   -0.5690 C.ar  174  TRP174      0.0810
     51  CE3       14.3610  -23.1700   -0.1180 C.ar  174  TRP174      0.0012
     52  CZ2       16.5070  -24.8140    0.7240 C.ar  174  TRP174      0.0191
     53  CZ3       14.4190  -23.6760    1.1640 C.ar  174  TRP174      0.0001
     54  CH2       15.4860  -24.4880    1.5760 C.ar  174  TRP174      0.0015
     55  N         12.0480  -23.8630   -2.9860 N.am  175  GLU175     -0.1979
     56  CA        11.2030  -24.8480   -2.3210 C.3   175  GLU175      0.1602
     57  C         10.6700  -25.8700   -3.3140 C.2   175  GLU175      0.2287
     58  O         10.6260  -27.0690   -3.0160 O.2   175  GLU175     -0.2864
     59  CB        10.0430  -24.1500   -1.6180 C.3   175  GLU175      0.0415
     60  CG        10.4270  -23.3110   -0.4190 C.3   175  GLU175      0.1163
     61  CD         9.2130  -22.7360    0.2920 C.2   175  GLU175      0.3649
     62  OE1        8.1710  -22.5270   -0.3630 O.co2 175  GLU175     -0.2457
     63  OE2        9.3030  -22.5070    1.5190 O.co2 175  GLU175     -0.2457
     64  N         21.0420  -23.2550   -0.9310 N.3   184  ARG184     -0.1245
     65  CA        20.0440  -22.6880   -0.0350 C.3   184  ARG184      0.1563
     66  C         20.3710  -21.2640    0.4170 C.2   184  ARG184      0.2260
     67  O         19.5360  -20.3640    0.2780 O.2   184  ARG184     -0.2867
     68  CB        19.8810  -23.5970    1.1920 C.3   184  ARG184      0.0307
     69  CG        18.9920  -23.0170    2.2810 C.3   184  ARG184      0.0489
     70  CD        18.8340  -23.9710    3.4550 C.3   184  ARG184      0.2205
     71  NE        17.9490  -23.4220    4.4760 N.pl3 184  ARG184     -0.0865
     72  CZ        17.6280  -24.0440    5.6040 C.cat 184  ARG184      0.5346
     73  NH1       18.1110  -25.2540    5.8610 N.pl3 184  ARG184      0.1354
     74  NH2       16.8220  -23.4530    6.4760 N.pl3 184  ARG184      0.1354
     75  N         18.7690  -16.9270    3.5090 N.3   198  ARG198     -0.1245
     76  CA        18.2540  -17.0750    2.1450 C.3   198  ARG198      0.1563
     77  C         17.5310  -15.7950    1.7270 C.2   198  ARG198      0.2260
     78  O         16.3030  -15.7250    1.6230 O.2   198  ARG198     -0.2867
     79  CB        17.3410  -18.2940    2.0540 C.3   198  ARG198      0.0307
     80  CG        16.9130  -18.6520    0.6440 C.3   198  ARG198      0.0489
     81  CD        16.2850  -20.0370    0.5880 C.3   198  ARG198      0.2205
     82  NE        14.9310  -20.0690    1.1240 N.pl3 198  ARG198     -0.0865
     83  CZ        13.8370  -19.8650    0.4030 C.cat 198  ARG198      0.5346
     84  NH1       13.9210  -19.6000   -0.9040 N.pl3 198  ARG198      0.1354
     85  NH2       12.6550  -19.9300    0.9980 N.pl3 198  ARG198      0.1354
     86  N         15.4520  -14.7730   -3.5120 N.3   201  ARG201     -0.1245
     87  CA        14.4080  -15.7480   -3.7880 C.3   201  ARG201      0.1563
     88  C         13.7480  -15.4470   -5.1230 C.2   201  ARG201      0.2260
     89  O         13.7550  -14.3080   -5.6040 O.2   201  ARG201     -0.2867
     90  CB        13.3550  -15.7590   -2.6720 C.3   201  ARG201      0.0307
     91  CG        13.9720  -15.8840   -1.2990 C.3   201  ARG201      0.0489
     92  CD        12.9350  -16.1530   -0.2220 C.3   201  ARG201      0.2205
     93  NE        13.5720  -16.2780    1.0830 N.pl3 201  ARG201     -0.0865
     94  CZ        12.9620  -16.6640    2.2010 C.cat 201  ARG201      0.5346
     95  NH1       11.6750  -16.9840    2.2110 N.pl3 201  ARG201      0.1354
     96  NH2       13.6570  -16.7320    3.3210 N.pl3 201  ARG201      0.1354
@<TRIPOS>BOND
     1    89    88    2
     2    88    87    1
     3    41    42    1
     4    42    43    1
     5    42    45    1
     6    87    86    1
     7    87    90    1
     8    43    44    2
     9    43    55   am
    10    57    58    2
    11    57    56    1
    12    45    46    1
    13    55    56    1
    14    47    46   ar
    15    47    49   ar
    16    90    91    1
    17    46    48   ar
    18    56    59    1
    19    49    50   ar
    20    59    60    1
    21    91    92    1
    22    48    50   ar
    23    48    51   ar
    24    64    65    1
    25    84    83    1
    26    50    52   ar
    27    60    61    1
    28    62    61   ar
    29    92    93    1
    30    51    53   ar
    31    65    66    1
    32    65    68    1
    33    67    66    2
    34    61    63   ar
    35    83    85    1
    36    83    82    2
    37    81    80    1
    38    81    82    1
    39    80    79    1
    40    52    54   ar
    41    93    94    2
    42    53    54   ar
    43    68    69    1
    44    78    77    2
    45    77    76    1
    46    79    76    1
    47    76    75    1
    48    94    95    1
    49    94    96    1
    50    69    70    1
    51    39    38    1
    52    40    38    1
    53    70    71    1
    54    38    35    1
    55    71    72    2
    56    35    36    1
    57    35    34    1
    58    37    36    2
    59    72    73    1
    60    72    74    1
    61    34    27   am
    62    10     9    1
    63     1     2    1
    64    28    27    2
    65    27    26    1
    66    32    31   ar
    67    29    26    1
    68    29    30    1
    69     4     3    2
    70     9    11    1
    71     9     8    2
    72     2     3    1
    73     2     5    1
    74    26    25    1
    75    31    30    1
    76    31    33   ar
    77     3    12   am
    78     7     8    1
    79     7     6    1
    80    25    22   am
    81    22    23    2
    82    22    21    1
    83     5     6    1
    84    12    13    1
    85    20    21    1
    86    20    14   am
    87    18    17   ar
    88    13    14    1
    89    13    16    1
    90    21    24    1
    91    14    15    2
    92    17    16    1
    93    17    19   ar
