@<TRIPOS>MOLECULE
tmp/6cadA00.pdb
 213 204 0 0 0
SMALL
GASTEIGER

@<TRIPOS>ATOM
      1  N        -40.1790   26.9570   -5.2300 N.3    15  ILE15      -0.1231
      2  CA       -40.7940   26.3850   -4.0380 C.3    15  ILE15       0.1692
      3  C        -41.2930   27.4710   -3.0910 C.2    15  ILE15       0.2592
      4  O        -42.4580   27.4650   -2.6810 O.2    15  ILE15      -0.2718
      5  CB       -39.8230   25.4290   -3.3090 C.3    15  ILE15       0.0266
      6  CG1      -39.3880   24.3680   -4.3210 C.3    15  ILE15       0.0019
      7  CG2      -40.5100   24.7640   -2.0610 C.3    15  ILE15       0.0020
      8  CD1      -38.8230   23.1410   -3.6960 C.3    15  ILE15       0.0001
      9  N        -40.4240   28.4160   -2.7350 N.am   16  GLY16      -0.1957
     10  CA       -40.7750   29.4320   -1.7660 C.3    16  GLY16       0.1869
     11  C        -40.1720   30.7740   -2.1290 C.2    16  GLY16       0.2309
     12  O        -39.2580   30.8730   -2.9500 O.2    16  GLY16      -0.2863
     13  N        -36.2100   30.0440   -3.2190 N.3    22  VAL22      -0.1245
     14  CA       -35.5930   28.7240   -3.2540 C.3    22  VAL22       0.1561
     15  C        -36.2160   27.9210   -4.3880 C.2    22  VAL22       0.2260
     16  O        -37.4170   28.0360   -4.6660 O.2    22  VAL22      -0.2867
     17  CB       -35.7240   27.9880   -1.9030 C.3    22  VAL22       0.0252
     18  CG1      -35.2820   28.8930   -0.7640 C.3    22  VAL22       0.0019
     19  CG2      -37.1470   27.5030   -1.6710 C.3    22  VAL22       0.0019
     20  N        -31.3800   21.4780   -3.6000 N.3    32  ALA32      -0.1231
     21  CA       -32.1670   22.6850   -3.3970 C.3    32  ALA32       0.1694
     22  C        -31.2550   23.9020   -3.4540 C.2    32  ALA32       0.2592
     23  O        -30.1640   23.8980   -2.8750 O.2    32  ALA32      -0.2718
     24  CB       -32.9080   22.6460   -2.0590 C.3    32  ALA32       0.0304
     25  N        -31.7060   24.9420   -4.1500 N.am   33  VAL33      -0.1966
     26  CA       -30.9270   26.1580   -4.3580 C.3    33  VAL33       0.1727
     27  C        -31.7170   27.3420   -3.8220 C.2    33  VAL33       0.2616
     28  O        -32.8620   27.5660   -4.2310 O.2    33  VAL33      -0.2715
     29  CB       -30.5860   26.3690   -5.8450 C.3    33  VAL33       0.0290
     30  CG1      -29.5670   27.4890   -5.9980 C.3    33  VAL33       0.0023
     31  CG2      -30.0720   25.0800   -6.4660 C.3    33  VAL33       0.0023
     32  N        -31.1030   28.0990   -2.9170 N.am   34  LYS34      -0.1977
     33  CA       -31.6810   29.3250   -2.3810 C.3    34  LYS34       0.1596
     34  C        -30.9450   30.5020   -3.0060 C.2    34  LYS34       0.2287
     35  O        -29.7520   30.6950   -2.7530 O.2    34  LYS34      -0.2864
     36  CB       -31.5770   29.3520   -0.8550 C.3    34  LYS34       0.0298
     37  CG       -31.9110   30.6830   -0.2010 C.3    34  LYS34       0.0038
     38  CD       -31.8920   30.5470    1.3160 C.3    34  LYS34       0.0206
     39  CE       -31.6490   31.8800    2.0040 C.3    34  LYS34       0.1093
     40  NZ       -31.5110   31.7170    3.4800 N.3    34  LYS34      -0.1314
     41  N        -24.5310   32.4400    6.7900 N.3    50  GLU50      -0.1245
     42  CA       -25.1150   31.1210    6.5670 C.3    50  GLU50       0.1567
     43  C        -24.0980   30.1620    5.9610 C.2    50  GLU50       0.2260
     44  O        -24.0270   28.9930    6.3560 O.2    50  GLU50      -0.2867
     45  CB       -26.3490   31.2250    5.6690 C.3    50  GLU50       0.0388
     46  CG       -27.6410   31.5370    6.4110 C.3    50  GLU50       0.1160
     47  CD       -28.8700   31.3840    5.5330 C.2    50  GLU50       0.3649
     48  OE1      -28.7130   31.0460    4.3400 O.co2  50  GLU50      -0.2457
     49  OE2      -29.9940   31.5980    6.0350 O.co2  50  GLU50      -0.2457
     50  N        -21.5730   29.3040    8.8250 N.3    53  VAL53      -0.1231
     51  CA       -22.1020   28.3540    9.8000 C.3    53  VAL53       0.1692
     52  C        -22.2870   26.9780    9.1680 C.2    53  VAL53       0.2591
     53  O        -21.9050   25.9560    9.7500 O.2    53  VAL53      -0.2718
     54  CB       -23.4170   28.8810   10.4010 C.3    53  VAL53       0.0266
     55  CG1      -24.0070   27.8610   11.3530 C.3    53  VAL53       0.0020
     56  CG2      -23.1770   30.1990   11.1210 C.3    53  VAL53       0.0020
     57  N        -22.8680   26.9330    7.9660 N.am   54  LEU54      -0.1980
     58  CA       -23.2100   25.6510    7.3540 C.3    54  LEU54       0.1596
     59  C        -21.9710   24.8230    7.0400 C.2    54  LEU54       0.2287
     60  O        -21.9780   23.5980    7.2130 O.2    54  LEU54      -0.2864
     61  CB       -24.0300   25.8760    6.0840 C.3    54  LEU54       0.0297
     62  CG       -25.5350   26.0820    6.2610 C.3    54  LEU54       0.0022
     63  CD1      -26.1910   26.3620    4.9190 C.3    54  LEU54       0.0001
     64  CD2      -26.1640   24.8670    6.9250 C.3    54  LEU54       0.0001
     65  N        -20.6880   22.4890    9.6640 N.3    57  THR57      -0.1218
     66  CA       -21.6120   21.4500   10.1010 C.3    57  THR57       0.1862
     67  C        -21.4890   20.2270    9.2010 C.2    57  THR57       0.2287
     68  O        -21.5660   20.3420    7.9730 O.2    57  THR57      -0.2866
     69  CB       -23.0560   21.9570   10.0960 C.3    57  THR57       0.1770
     70  OG1      -23.4560   22.2620    8.7540 O.3    57  THR57      -0.2211
     71  CG2      -23.1860   23.2020   10.9610 C.3    57  THR57       0.0375
     72  N        -28.5030   17.4460   10.4840 N.3    62  ILE62      -0.1231
     73  CA       -28.3700   18.8320   10.0560 C.3    62  ILE62       0.1692
     74  C        -28.4180   18.8380    8.5370 C.2    62  ILE62       0.2591
     75  O        -27.8190   17.9710    7.8860 O.2    62  ILE62      -0.2718
     76  CB       -27.0670   19.4660   10.5820 C.3    62  ILE62       0.0266
     77  CG1      -27.0370   19.4520   12.1130 C.3    62  ILE62       0.0019
     78  CG2      -26.9140   20.8900   10.0720 C.3    62  ILE62       0.0020
     79  CD1      -28.3160   19.9430   12.7580 C.3    62  ILE62       0.0001
     80  N        -29.1430   19.7990    7.9690 N.am   63  LEU63      -0.1980
     81  CA       -29.2960   19.8690    6.5210 C.3    63  LEU63       0.1596
     82  C        -27.9340   19.9480    5.8450 C.2    63  LEU63       0.2287
     83  O        -27.1360   20.8440    6.1380 O.2    63  LEU63      -0.2864
     84  CB       -30.1510   21.0760    6.1410 C.3    63  LEU63       0.0297
     85  CG       -30.4400   21.2320    4.6480 C.3    63  LEU63       0.0022
     86  CD1      -31.3620   20.1220    4.1750 C.3    63  LEU63       0.0001
     87  CD2      -31.0430   22.5930    4.3500 C.3    63  LEU63       0.0001
     88  N        -27.0560   29.5090   -2.3720 N.3    76  ILE76      -0.1245
     89  CA       -26.5650   28.4280   -1.5270 C.3    76  ILE76       0.1561
     90  C        -27.3160   27.1630   -1.9100 C.2    76  ILE76       0.2260
     91  O        -28.5510   27.1630   -1.9620 O.2    76  ILE76      -0.2867
     92  CB       -26.7510   28.7340   -0.0290 C.3    76  ILE76       0.0252
     93  CG1      -26.0180   30.0200    0.3520 C.3    76  ILE76       0.0019
     94  CG2      -26.2480   27.5760    0.8150 C.3    76  ILE76       0.0019
     95  CD1      -26.2430   30.4470    1.7850 C.3    76  ILE76       0.0001
     96  N        -28.1060   23.0740   -1.2110 N.3    78  THR78      -0.1203
     97  CA       -28.1550   22.0620   -0.1670 C.3    78  THR78       0.1994
     98  C        -28.7700   20.7890   -0.7320 C.2    78  THR78       0.2618
     99  O        -29.2660   20.7570   -1.8620 O.2    78  THR78      -0.2717
    100  CB       -28.9650   22.5300    1.0530 C.3    78  THR78       0.1784
    101  OG1      -30.3510   22.6370    0.6990 O.3    78  THR78      -0.2211
    102  CG2      -28.4580   23.8700    1.5680 C.3    78  THR78       0.0376
    103  N        -28.7250   19.7300    0.0720 N.am   79  GLN79      -0.1965
    104  CA       -29.3430   18.4700   -0.3140 C.3    79  GLN79       0.1733
    105  C        -30.8490   18.6450   -0.4740 C.2    79  GLN79       0.2616
    106  O        -31.4770   19.4700    0.1950 O.2    79  GLN79      -0.2715
    107  CB       -29.0560   17.3900    0.7290 C.3    79  GLN79       0.0408
    108  CG       -29.5880   17.7150    2.1150 C.3    79  GLN79       0.0908
    109  CD       -29.7550   16.4830    2.9830 C.2    79  GLN79       0.2608
    110  OE1      -29.3440   16.4650    4.1430 O.2    79  GLN79      -0.2717
    111  NE2      -30.3720   15.4480    2.4260 N.am   79  GLN79      -0.0878
    112  N        -31.4290   17.8620   -1.3770 N.am   80  TRP80      -0.1960
    113  CA       -32.8700   17.8820   -1.5890 C.3    80  TRP80       0.1771
    114  C        -33.5240   16.8730   -0.6550 C.2    80  TRP80       0.2619
    115  O        -33.1660   15.6900   -0.6590 O.2    80  TRP80      -0.2715
    116  CB       -33.2240   17.5700   -3.0410 C.3    80  TRP80       0.0590
    117  CG       -34.6990   17.4220   -3.2450 C.ar   80  TRP80       0.0006
    118  CD1      -35.3910   16.2580   -3.4120 C.ar   80  TRP80       0.0946
    119  CD2      -35.6700   18.4740   -3.2770 C.ar   80  TRP80       0.0152
    120  NE1      -36.7320   16.5210   -3.5570 N.ar   80  TRP80      -0.2442
    121  CE2      -36.9290   17.8740   -3.4780 C.ar   80  TRP80       0.0810
    122  CE3      -35.5960   19.8660   -3.1610 C.ar   80  TRP80       0.0012
    123  CZ2      -38.1040   18.6180   -3.5650 C.ar   80  TRP80       0.0191
    124  CZ3      -36.7630   20.6020   -3.2480 C.ar   80  TRP80       0.0001
    125  CH2      -38.0000   19.9770   -3.4480 C.ar   80  TRP80       0.0015
    126  N        -34.4770   17.3430    0.1420 N.am   81  CYS81      -0.1968
    127  CA       -35.2070   16.5020    1.0800 C.3    81  CYS81       0.1712
    128  C        -36.5910   16.2040    0.5220 C.2    81  CYS81       0.2296
    129  O        -37.3240   17.1230    0.1410 O.2    81  CYS81      -0.2864
    130  CB       -35.3190   17.1810    2.4450 C.3    81  CYS81       0.0983
    131  SG       -33.7380   17.6060    3.2060 S.3    81  CYS81      -0.0798
    132  N        -42.3910   18.9460    6.4020 N.3    85  SER85      -0.1217
    133  CA       -41.8740   19.3360    7.7020 C.3    85  SER85       0.1889
    134  C        -42.6830   18.6790    8.8190 C.2    85  SER85       0.2288
    135  O        -43.7730   18.1390    8.6070 O.2    85  SER85      -0.2866
    136  CB       -41.8930   20.8570    7.8520 C.3    85  SER85       0.2089
    137  OG       -43.1860   21.3170    8.2020 O.3    85  SER85      -0.2183
    138  N        -25.1740   21.0930   17.1040 N.3   116  LEU116     -0.1245
    139  CA       -25.0540   22.5290   16.8670 C.3   116  LEU116      0.1561
    140  C        -24.4820   23.2410   18.0860 C.2   116  LEU116      0.2260
    141  O        -23.5230   24.0150   17.9760 O.2   116  LEU116     -0.2867
    142  CB       -26.4150   23.1180   16.4920 C.3   116  LEU116      0.0270
    143  CG       -27.0150   22.7150   15.1440 C.3   116  LEU116      0.0019
    144  CD1      -28.2970   23.4900   14.8780 C.3   116  LEU116      0.0001
    145  CD2      -26.0110   22.9390   14.0230 C.3   116  LEU116      0.0001
    146  N        -22.9390   26.8020   18.0480 N.3   121  ILE121     -0.1231
    147  CA       -23.8910   27.3210   17.0750 C.3   121  ILE121      0.1692
    148  C        -25.2630   27.3740   17.7290 C.2   121  ILE121      0.2592
    149  O        -25.7150   26.3860   18.3200 O.2   121  ILE121     -0.2718
    150  CB       -23.9360   26.4460   15.8090 C.3   121  ILE121      0.0266
    151  CG1      -22.5280   26.2090   15.2560 C.3   121  ILE121      0.0019
    152  CG2      -24.8400   27.0740   14.7610 C.3   121  ILE121      0.0020
    153  CD1      -21.8700   27.4450   14.6960 C.3   121  ILE121      0.0001
    154  N        -25.9210   28.5250   17.6250 N.am  122  ILE122     -0.1966
    155  CA       -27.2550   28.7300   18.1760 C.3   122  ILE122      0.1727
    156  C        -28.2390   28.7720   17.0160 C.2   122  ILE122      0.2616
    157  O        -28.0710   29.5650   16.0810 O.2   122  ILE122     -0.2715
    158  CB       -27.3370   30.0180   19.0160 C.3   122  ILE122      0.0290
    159  CG1      -26.2200   30.0640   20.0630 C.3   122  ILE122      0.0022
    160  CG2      -28.6980   30.1310   19.6870 C.3   122  ILE122      0.0023
    161  CD1      -24.9840   30.8290   19.6240 C.3   122  ILE122      0.0001
    162  N        -29.2610   27.9230   17.0750 N.am  123  HIS123     -0.1973
    163  CA       -30.3430   27.9290   16.0920 C.3   123  HIS123      0.1656
    164  C        -31.4630   28.7700   16.6970 C.2   123  HIS123      0.2291
    165  O        -32.3330   28.2630   17.4060 O.2   123  HIS123     -0.2864
    166  CB       -30.7910   26.5110   15.7620 C.3   123  HIS123      0.0771
    167  CG       -31.8830   26.4430   14.7410 C.ar  123  HIS123      0.0820
    168  ND1      -31.6790   26.7440   13.4120 N.ar  123  HIS123     -0.2267
    169  CD2      -33.1880   26.1020   14.8530 C.ar  123  HIS123      0.1154
    170  CE1      -32.8120   26.5960   12.7500 C.ar  123  HIS123      0.1986
    171  NE2      -33.7440   26.2080   13.6020 N.ar  123  HIS123     -0.2212
    172  N        -37.4710   19.1140    9.1820 N.3   132  PHE132     -0.1241
    173  CA       -37.8900   18.4550    7.9550 C.3   132  PHE132      0.1605
    174  C        -37.5990   16.9650    8.0490 C.2   132  PHE132      0.2264
    175  O        -36.5400   16.5580    8.5350 O.2   132  PHE132     -0.2867
    176  CB       -37.1800   19.0420    6.7320 C.3   132  PHE132      0.0534
    177  CG       -37.9260   18.8370    5.4420 C.ar  132  PHE132     -0.0203
    178  CD1      -37.9020   17.6090    4.8000 C.ar  132  PHE132     -0.0042
    179  CD2      -38.6430   19.8730    4.8680 C.ar  132  PHE132     -0.0042
    180  CE1      -38.5870   17.4160    3.6160 C.ar  132  PHE132     -0.0003
    181  CE2      -39.3280   19.6860    3.6810 C.ar  132  PHE132     -0.0003
    182  CZ       -39.2980   18.4560    3.0540 C.ar  132  PHE132     -0.0000
    183  N        -32.5930   19.3450   10.2440 N.3   141  ILE141     -0.1231
    184  CA       -32.8050   20.6310   10.8980 C.3   141  ILE141      0.1692
    185  C        -32.2080   21.7240   10.0250 C.2   141  ILE141      0.2593
    186  O        -31.0550   21.6210    9.5890 O.2   141  ILE141     -0.2718
    187  CB       -32.1790   20.6500   12.3030 C.3   141  ILE141      0.0266
    188  CG1      -32.7860   19.5480   13.1740 C.3   141  ILE141      0.0019
    189  CG2      -32.3680   22.0120   12.9540 C.3   141  ILE141      0.0020
    190  CD1      -32.2440   19.5200   14.5860 C.3   141  ILE141      0.0001
    191  N        -32.9900   22.7690    9.7690 N.am  142  GLY142     -0.1942
    192  CA       -32.5240   23.8640    8.9420 C.3   142  GLY142      0.2014
    193  C        -33.3360   25.1140    9.1990 C.2   142  GLY142      0.2639
    194  O        -34.2530   25.1320   10.0230 O.2   142  GLY142     -0.2714
    195  N        -32.9780   26.1710    8.4740 N.am  143  ASP143     -0.1957
    196  CA       -33.6740   27.4530    8.5630 C.3   143  ASP143      0.1840
    197  C        -34.5820   27.6200    7.3440 C.2   143  ASP143      0.2622
    198  O        -34.3330   28.4170    6.4390 O.2   143  ASP143     -0.2715
    199  CB       -32.6630   28.5930    8.6820 C.3   143  ASP143      0.1450
    200  CG       -33.2950   29.8990    9.1340 C.2   143  ASP143      0.3671
    201  OD1      -34.5220   30.0670    8.9750 O.co2 143  ASP143     -0.2456
    202  OD2      -32.5560   30.7640    9.6510 O.co2 143  ASP143     -0.2456
    203  N        -35.6580   26.8340    7.3400 N.am  144  PHE144     -0.1974
    204  CA       -36.6160   26.8450    6.2410 C.3   144  PHE144      0.1639
    205  C        -37.5130   28.0770    6.2960 C.2   144  PHE144      0.2290
    206  O        -38.7420   27.9570    6.2950 O.2   144  PHE144     -0.2864
    207  CB       -37.4680   25.5730    6.2610 C.3   144  PHE144      0.0560
    208  CG       -36.6660   24.3020    6.2300 C.ar  144  PHE144     -0.0200
    209  CD1      -36.1990   23.7300    7.4020 C.ar  144  PHE144     -0.0042
    210  CD2      -36.3870   23.6740    5.0270 C.ar  144  PHE144     -0.0042
    211  CE1      -35.4630   22.5600    7.3740 C.ar  144  PHE144     -0.0003
    212  CE2      -35.6530   22.5040    4.9930 C.ar  144  PHE144     -0.0003
    213  CZ       -35.1900   21.9470    6.1680 C.ar  144  PHE144     -0.0000
@<TRIPOS>BOND
     1    31    29    1
     2    30    29    1
     3    29    26    1
     4     1     2    1
     5    16    15    2
     6    15    14    1
     7    26    25    1
     8    26    27    1
     9     6     8    1
    10     6     5    1
    11    28    27    2
    12    25    22   am
    13     2     5    1
    14     2     3    1
    15    27    32   am
    16    20    21    1
    17   123   121   ar
    18   123   125   ar
    19   120   121   ar
    20   120   118   ar
    21   121   119   ar
    22    22    21    1
    23    22    23    2
    24   125   124   ar
    25   118   117   ar
    26    21    24    1
    27     5     7    1
    28   119   117   ar
    29   119   122   ar
    30    14    13    1
    31    14    17    1
    32   124   122   ar
    33   117   116    1
    34     3     9   am
    35     3     4    2
    36   116   113    1
    37    34    35    2
    38    34    33    1
    39    12    11    2
    40    32    33    1
    41     9    10    1
    42    33    36    1
    43    88    89    1
    44    11    10    1
    45    91    90    2
    46    90    89    1
    47    17    19    1
    48    17    18    1
    49    99    98    2
    50   113   112    1
    51   113   114    1
    52    89    92    1
    53   112   105   am
    54    96    97    1
    55    36    37    1
    56    98    97    1
    57    98   103   am
    58   115   114    2
    59   114   126   am
    60   105   104    1
    61   105   106    2
    62   104   103    1
    63   104   107    1
    64    37    38    1
    65    97   100    1
    66    92    93    1
    67    92    94    1
    68   129   128    2
    69   126   127    1
    70    93    95    1
    71   128   127    1
    72   101   100    1
    73   107   108    1
    74   100   102    1
    75   127   130    1
    76    38    39    1
    77    39    40    1
    78   108   109    1
    79   111   109   am
    80   130   131    1
    81   109   110    2
    82   182   180   ar
    83   182   181   ar
    84   180   178   ar
    85   181   179   ar
    86    86    85    1
    87    48    47   ar
    88    87    85    1
    89    85    84    1
    90   178   177   ar
    91   179   177   ar
    92    63    62    1
    93   212   210   ar
    94   212   213   ar
    95   210   208   ar
    96   177   176    1
    97    47    49   ar
    98    47    46    1
    99    45    46    1
   100    45    42    1
   101    82    83    2
   102    82    81    1
   103    43    44    2
   104    43    42    1
   105    61    62    1
   106    61    58    1
   107    84    81    1
   108   213   211   ar
   109   208   207    1
   110   208   209   ar
   111   204   207    1
   112   204   205    1
   113   204   203    1
   114    62    64    1
   115   206   205    2
   116   132   133    1
   117   198   197    2
   118    81    80    1
   119    42    41    1
   120   176   173    1
   121    59    60    2
   122    59    58    1
   123   203   197   am
   124   197   196    1
   125    58    57    1
   126   211   209   ar
   127   133   136    1
   128   133   134    1
   129   136   137    1
   130    75    74    2
   131   173   174    1
   132   173   172    1
   133    57    52   am
   134    80    74   am
   135    68    67    2
   136   174   175    2
   137   195   196    1
   138   195   193   am
   139    74    73    1
   140   196   199    1
   141   135   134    2
   142   199   200    1
   143    70    69    1
   144    50    51    1
   145   192   193    1
   146   192   191    1
   147   201   200   ar
   148   200   202   ar
   149    52    53    2
   150    52    51    1
   151   193   194    2
   152    67    66    1
   153   186   185    2
   154    65    66    1
   155   191   185   am
   156    51    54    1
   157   185   184    1
   158    73    72    1
   159    73    76    1
   160    78    76    1
   161    69    66    1
   162    69    71    1
   163   183   184    1
   164    54    56    1
   165    54    55    1
   166    76    77    1
   167   184   187    1
   168    77    79    1
   169   187   189    1
   170   187   188    1
   171   170   168   ar
   172   170   171   ar
   173   188   190    1
   174   168   167   ar
   175   171   169   ar
   176   145   143    1
   177   153   151    1
   178   167   169   ar
   179   167   166    1
   180   152   150    1
   181   144   143    1
   182   143   142    1
   183   151   150    1
   184   166   163    1
   185   150   147    1
   186   157   156    2
   187   163   164    1
   188   163   162    1
   189   142   139    1
   190   164   165    2
   191   139   138    1
   192   139   140    1
   193   156   162   am
   194   156   155    1
   195   147   148    1
   196   147   146    1
   197   154   148   am
   198   154   155    1
   199   148   149    2
   200   141   140    2
   201   155   158    1
   202   158   160    1
   203   158   159    1
   204   161   159    1
