@<TRIPOS>MOLECULE
tmp/6caiB00.pdb
 95 90 0 0 0
SMALL
GASTEIGER

@<TRIPOS>ATOM
      1  N         -4.1960  -11.1600  -16.5850 N.3    10  ILE10      -0.1245
      2  CA        -4.7050  -11.6950  -15.3240 C.3    10  ILE10       0.1561
      3  C         -5.8420  -12.6420  -15.6530 C.2    10  ILE10       0.2260
      4  O         -6.7650  -12.2780  -16.3940 O.2    10  ILE10      -0.2867
      5  CB        -5.1970  -10.5820  -14.3880 C.3    10  ILE10       0.0252
      6  CG1       -4.1150   -9.5240  -14.1500 C.3    10  ILE10       0.0019
      7  CG2       -5.6870  -11.2130  -13.0880 C.3    10  ILE10       0.0019
      8  CD1       -2.9470  -10.0200  -13.3470 C.3    10  ILE10       0.0001
      9  N         -1.0240  -14.4830  -15.0970 N.3    49  TRP49      -0.1241
     10  CA        -1.1120  -14.5560  -13.6400 C.3    49  TRP49       0.1605
     11  C         -2.5080  -15.0560  -13.2690 C.2    49  TRP49       0.2264
     12  O         -3.5030  -14.3610  -13.5100 O.2    49  TRP49      -0.2867
     13  CB        -0.8130  -13.2090  -12.9960 C.3    49  TRP49       0.0550
     14  CG        -0.7870  -13.3350  -11.5110 C.ar   49  TRP49       0.0003
     15  CD1       -1.8260  -13.1170  -10.6540 C.ar   49  TRP49       0.0946
     16  CD2        0.3160  -13.7640  -10.7060 C.ar   49  TRP49       0.0152
     17  NE1       -1.4380  -13.3710   -9.3620 N.ar   49  TRP49      -0.2442
     18  CE2       -0.1240  -13.7660   -9.3650 C.ar   49  TRP49       0.0810
     19  CE3        1.6320  -14.1370  -10.9850 C.ar   49  TRP49       0.0012
     20  CZ2        0.7080  -14.1340   -8.3040 C.ar   49  TRP49       0.0191
     21  CZ3        2.4580  -14.5030   -9.9270 C.ar   49  TRP49       0.0001
     22  CH2        1.9930  -14.4910   -8.6020 C.ar   49  TRP49       0.0015
     23  N         -5.4000  -16.0380  -10.8340 N.3    51  ILE51      -0.1245
     24  CA        -5.8950  -15.7520   -9.4910 C.3    51  ILE51       0.1561
     25  C         -7.0060  -16.7090   -9.0630 C.2    51  ILE51       0.2260
     26  O         -7.5820  -16.5290   -7.9870 O.2    51  ILE51      -0.2867
     27  CB        -6.3560  -14.2910   -9.3520 C.3    51  ILE51       0.0252
     28  CG1       -7.6160  -14.0310  -10.1630 C.3    51  ILE51       0.0019
     29  CG2       -5.2560  -13.3160   -9.7600 C.3    51  ILE51       0.0019
     30  CD1       -8.1580  -12.6370   -9.9420 C.3    51  ILE51       0.0001
     31  N          6.7620  -17.1010  -12.2540 N.3   100  GLU100     -0.1245
     32  CA         6.7410  -15.8500  -11.5130 C.3   100  GLU100      0.1567
     33  C          6.2940  -16.1490  -10.0880 C.2   100  GLU100      0.2260
     34  O          5.2130  -16.7110   -9.8830 O.2   100  GLU100     -0.2867
     35  CB         5.7880  -14.8610  -12.1890 C.3   100  GLU100      0.0388
     36  CG         5.7720  -13.4590  -11.6220 C.3   100  GLU100      0.1160
     37  CD         5.1550  -12.4540  -12.5950 C.2   100  GLU100      0.3649
     38  OE1        4.1160  -12.7730  -13.2190 O.co2 100  GLU100     -0.2457
     39  OE2        5.7140  -11.3450  -12.7420 O.co2 100  GLU100     -0.2457
     40  N          6.2240  -14.5000   -5.9380 N.3   102  ASN102     -0.1240
     41  CA         6.2450  -13.2730   -5.1560 C.3   102  ASN102      0.1653
     42  C          6.1370  -13.6660   -3.6910 C.2   102  ASN102      0.2266
     43  O          7.1590  -13.8650   -3.0260 O.2   102  ASN102     -0.2867
     44  CB         5.0940  -12.3420   -5.5740 C.3   102  ASN102      0.1155
     45  CG         5.0510  -11.0390   -4.7710 C.2   102  ASN102      0.2627
     46  OD1        5.7390  -10.8710   -3.7610 O.2   102  ASN102     -0.2716
     47  ND2        4.2170  -10.1140   -5.2200 N.am  102  ASN102     -0.0877
     48  N          8.7550  -11.4250   -8.5850 N.3   127  TYR127     -0.1241
     49  CA         8.0260  -10.1650   -8.5650 C.3   127  TYR127      0.1605
     50  C          8.1890   -9.5230   -7.1950 C.2   127  TYR127      0.2264
     51  O          7.7910  -10.1050   -6.1720 O.2   127  TYR127     -0.2867
     52  CB         6.5470  -10.3960   -8.8780 C.3   127  TYR127      0.0534
     53  CG         5.7570   -9.1300   -9.1370 C.ar  127  TYR127     -0.0201
     54  CD1        5.5010   -8.2230   -8.1230 C.ar  127  TYR127     -0.0009
     55  CD2        5.2700   -8.8460  -10.4090 C.ar  127  TYR127     -0.0009
     56  CE1        4.7880   -7.0620   -8.3660 C.ar  127  TYR127      0.0417
     57  CE2        4.5470   -7.6940  -10.6590 C.ar  127  TYR127      0.0417
     58  CZ         4.3190   -6.8100   -9.6390 C.ar  127  TYR127      0.1957
     59  OH         3.5980   -5.6770   -9.8900 O.3   127  TYR127     -0.2866
     60  N         -0.7400   -9.5000   -2.5060 N.3   143  SER143     -0.1217
     61  CA        -1.2110   -8.4650   -3.4200 C.3   143  SER143      0.1889
     62  C         -0.9290   -7.0760   -2.8590 C.2   143  SER143      0.2288
     63  O         -1.7900   -6.1960   -2.8400 O.2   143  SER143     -0.2866
     64  CB        -2.6980   -8.6460   -3.7340 C.3   143  SER143      0.2089
     65  OG        -2.9430   -9.9190   -4.3070 O.3   143  SER143     -0.2183
     66  N          6.8440   -2.2660  -13.6910 N.3   200  HIS200     -0.1226
     67  CA         5.4200   -2.5790  -13.6750 C.3   200  HIS200      0.1752
     68  C          4.6650   -1.5870  -12.7970 C.2   200  HIS200      0.2595
     69  O          5.1620   -1.1780  -11.7430 O.2   200  HIS200     -0.2718
     70  CB         5.1580   -4.0140  -13.1850 C.3   200  HIS200      0.0759
     71  CG         3.7580   -4.4770  -13.4350 C.ar  200  HIS200      0.0818
     72  ND1        3.0320   -5.1980  -12.5120 N.ar  200  HIS200     -0.2268
     73  CD2        2.9440   -4.3020  -14.5020 C.ar  200  HIS200      0.1154
     74  CE1        1.8410   -5.4740  -13.0160 C.ar  200  HIS200      0.1986
     75  NE2        1.7560   -4.9260  -14.2130 N.ar  200  HIS200     -0.2212
     76  N          3.4600   -1.2220  -13.2510 N.am  201  ARG201     -0.1980
     77  CA         2.5310   -0.2920  -12.6020 C.3   201  ARG201      0.1597
     78  C          2.8420    1.1580  -12.9570 C.2   201  ARG201      0.2287
     79  O          3.9780    1.6170  -12.7920 O.2   201  ARG201     -0.2864
     80  CB         2.5190   -0.4460  -11.0710 C.3   201  ARG201      0.0334
     81  CG         2.1820   -1.8320  -10.5740 C.3   201  ARG201      0.0492
     82  CD         0.7640   -2.2520  -10.9440 C.3   201  ARG201      0.2205
     83  NE         0.4020   -3.4700  -10.2270 N.pl3 201  ARG201     -0.0865
     84  CZ        -0.4620   -4.3780  -10.6540 C.cat 201  ARG201      0.5346
     85  NH1       -1.0850   -4.2240  -11.8080 N.pl3 201  ARG201      0.1354
     86  NH2       -0.6960   -5.4530   -9.9100 N.pl3 201  ARG201      0.1354
     87  N          6.5050   -3.6970  -18.3860 N.3   221  LYS221     -0.1245
     88  CA         5.3400   -4.5670  -18.4010 C.3   221  LYS221      0.1561
     89  C          4.0900   -3.7260  -18.1820 C.2   221  LYS221      0.2260
     90  O          4.0830   -2.8150  -17.3540 O.2   221  LYS221     -0.2867
     91  CB         5.4370   -5.6610  -17.3320 C.3   221  LYS221      0.0271
     92  CG         4.1530   -6.4110  -17.1170 C.3   221  LYS221      0.0035
     93  CD         4.4100   -7.8460  -16.8820 C.3   221  LYS221      0.0206
     94  CE         5.0060   -8.0790  -15.5240 C.3   221  LYS221      0.1093
     95  NZ         5.4630   -9.4720  -15.5570 N.3   221  LYS221     -0.1314
@<TRIPOS>BOND
     1    88    87    1
     2    88    89    1
     3    88    91    1
     4    89    90    2
     5    91    92    1
     6    92    93    1
     7    93    94    1
     8     1     2    1
     9     4     3    2
    10     3     2    1
    11    95    94    1
    12     2     5    1
    13     9    10    1
    14    73    75   ar
    15    73    71   ar
    16     5     6    1
    17     5     7    1
    18    75    74   ar
    19     6     8    1
    20    66    67    1
    21    67    70    1
    22    67    68    1
    23    10    11    1
    24    10    13    1
    25    12    11    2
    26    71    70    1
    27    71    72   ar
    28    76    68   am
    29    76    77    1
    30    38    37   ar
    31    74    72   ar
    32    13    14    1
    33    78    79    2
    34    78    77    1
    35    68    69    2
    36    39    37   ar
    37    77    80    1
    38    37    36    1
    39    31    32    1
    40    35    36    1
    41    35    32    1
    42    85    84    1
    43    32    33    1
    44    14    16   ar
    45    14    15   ar
    46    80    81    1
    47    19    16   ar
    48    19    21   ar
    49    82    81    1
    50    82    83    1
    51    23    24    1
    52    16    18   ar
    53    57    55   ar
    54    57    58   ar
    55    15    17   ar
    56    84    83    2
    57    84    86    1
    58    55    53   ar
    59    28    30    1
    60    28    27    1
    61    33    34    2
    62    21    22   ar
    63    59    58    1
    64    29    27    1
    65    58    56   ar
    66    24    27    1
    67    24    25    1
    68    18    17   ar
    69    18    20   ar
    70    53    52    1
    71    53    54   ar
    72    25    26    2
    73    52    49    1
    74    22    20   ar
    75    48    49    1
    76    49    50    1
    77    56    54   ar
    78    50    51    2
    79    40    41    1
    80    44    41    1
    81    44    45    1
    82    47    45   am
    83    41    42    1
    84    45    46    2
    85    65    64    1
    86    64    61    1
    87    42    43    2
    88    61    62    1
    89    61    60    1
    90    62    63    2
