@<TRIPOS>MOLECULE
tmp/6camA00.pdb
 123 118 0 0 0
SMALL
GASTEIGER

@<TRIPOS>ATOM
      1  N        245.3120  -31.9430   14.0490 N.3   180  PHE180     -0.1241
      2  CA       243.9050  -31.9820   14.3850 C.3   180  PHE180      0.1605
      3  C        243.9780  -32.2180   15.9110 C.2   180  PHE180      0.2264
      4  O        244.4930  -33.1650   16.3370 O.2   180  PHE180     -0.2867
      5  CB       243.1900  -33.0720   13.6480 C.3   180  PHE180      0.0534
      6  CG       241.7190  -32.8900   13.5970 C.ar  180  PHE180     -0.0203
      7  CD1      241.0530  -32.5350   14.6930 C.ar  180  PHE180     -0.0042
      8  CD2      241.0370  -33.0650   12.4570 C.ar  180  PHE180     -0.0042
      9  CE1      239.6720  -32.3610   14.6760 C.ar  180  PHE180     -0.0003
     10  CE2      239.6740  -32.8910   12.4170 C.ar  180  PHE180     -0.0003
     11  CZ       239.0050  -32.5550   13.5440 C.ar  180  PHE180     -0.0000
     12  N        239.7570  -21.3230    7.6690 N.3   223  SER223     -0.1217
     13  CA       238.8280  -22.0910    8.4610 C.3   223  SER223      0.1889
     14  C        238.8990  -21.6570    9.9160 C.2   223  SER223      0.2288
     15  O        238.9760  -22.4780   10.8210 O.2   223  SER223     -0.2866
     16  CB       239.0500  -23.5950    8.2560 C.3   223  SER223      0.2089
     17  OG       238.2390  -24.3680    9.1250 O.3   223  SER223     -0.2183
     18  N        236.6510  -20.6870   12.1410 N.3   225  ASN225     -0.1240
     19  CA       235.2220  -20.7150   12.4240 C.3   225  ASN225      0.1653
     20  C        234.8790  -19.9630   13.6920 C.2   225  ASN225      0.2266
     21  O        235.5860  -20.0250   14.7030 O.2   225  ASN225     -0.2867
     22  CB       234.7460  -22.1530   12.6340 C.3   225  ASN225      0.1155
     23  CG       235.0850  -23.0420   11.4880 C.2   225  ASN225      0.2627
     24  OD1      236.2420  -23.4270   11.3170 O.2   225  ASN225     -0.2716
     25  ND2      234.0890  -23.4270   10.7360 N.am  225  ASN225     -0.0877
     26  N        231.2720  -19.9780   15.5950 N.3   227  TRP227     -0.1241
     27  CA       229.8460  -20.2410   15.6500 C.3   227  TRP227      0.1605
     28  C        229.3400  -19.9340   17.0290 C.2   227  TRP227      0.2264
     29  O        230.0610  -20.0470   18.0190 O.2   227  TRP227     -0.2867
     30  CB       229.5020  -21.6600   15.1920 C.3   227  TRP227      0.0550
     31  CG       230.2370  -22.8270   15.8040 C.ar  227  TRP227      0.0003
     32  CD1      231.2480  -23.5320   15.2360 C.ar  227  TRP227      0.0946
     33  CD2      229.9380  -23.4830   17.0410 C.ar  227  TRP227      0.0152
     34  NE1      231.6330  -24.5650   16.0590 N.ar  227  TRP227     -0.2442
     35  CE2      230.8390  -24.5640   17.1690 C.ar  227  TRP227      0.0810
     36  CE3      229.0110  -23.2590   18.0530 C.ar  227  TRP227      0.0012
     37  CZ2      230.8500  -25.4000   18.2790 C.ar  227  TRP227      0.0191
     38  CZ3      229.0170  -24.1050   19.1740 C.ar  227  TRP227      0.0001
     39  CH2      229.9330  -25.1520   19.2740 C.ar  227  TRP227      0.0015
     40  N        231.9460  -20.6390   20.0190 N.3   234  HIS234     -0.1241
     41  CA       233.1630  -21.3040   19.5930 C.3   234  HIS234      0.1621
     42  C        233.9110  -20.3740   18.6890 C.2   234  HIS234      0.2264
     43  O        233.3920  -19.9890   17.6760 O.2   234  HIS234     -0.2867
     44  CB       232.7380  -22.5520   18.8110 C.3   234  HIS234      0.0745
     45  CG       233.8670  -23.3290   18.2340 C.ar  234  HIS234      0.0817
     46  ND1      234.3170  -24.5060   18.7980 N.ar  234  HIS234     -0.2268
     47  CD2      234.6050  -23.1360   17.1140 C.ar  234  HIS234      0.1154
     48  CE1      235.3080  -24.9860   18.0630 C.ar  234  HIS234      0.1986
     49  NE2      235.5000  -24.1760   17.0350 N.ar  234  HIS234     -0.2212
     50  N        237.7550  -19.6400   16.7780 N.3   236  GLU236     -0.1245
     51  CA       239.0990  -20.0440   16.4480 C.3   236  GLU236      0.1567
     52  C        239.8710  -18.8100   16.1790 C.2   236  GLU236      0.2260
     53  O        239.4230  -17.9420   15.4190 O.2   236  GLU236     -0.2867
     54  CB       239.0430  -20.9810   15.2310 C.3   236  GLU236      0.0388
     55  CG       238.2850  -22.2110   15.6920 C.3   236  GLU236      0.1160
     56  CD       237.9670  -23.2580   14.6920 C.2   236  GLU236      0.3649
     57  OE1      238.4350  -23.2120   13.5380 O.co2 236  GLU236     -0.2457
     58  OE2      237.2510  -24.2160   15.1260 O.co2 236  GLU236     -0.2457
     59  N        229.5140  -18.9700   10.7120 N.3   267  GLN267     -0.1245
     60  CA       229.1770  -20.3500   10.4410 C.3   267  GLN267      0.1566
     61  C        227.7370  -20.5210    9.9390 C.2   267  GLN267      0.2260
     62  O        227.4820  -21.3940    9.1130 O.2   267  GLN267     -0.2867
     63  CB       229.3170  -21.1540   11.7150 C.3   267  GLN267      0.0367
     64  CG       229.2720  -22.6530   11.5160 C.3   267  GLN267      0.0905
     65  CD       230.5570  -23.1740   10.9480 C.2   267  GLN267      0.2608
     66  OE1      231.6320  -22.6400   11.2480 O.2   267  GLN267     -0.2717
     67  NE2      230.4690  -24.2000   10.1090 N.am  267  GLN267     -0.0878
     68  N        228.7020  -22.4320    6.8120 N.3   277  GLY277     -0.1210
     69  CA       229.9310  -23.1760    6.8870 C.3   277  GLY277      0.1956
     70  C        229.7370  -24.6530    6.6870 C.2   277  GLY277      0.2611
     71  O        230.6350  -25.3140    6.1540 O.2   277  GLY277     -0.2717
     72  N        228.5940  -25.1560    7.1530 N.am  278  ASP278     -0.1973
     73  CA       228.3090  -26.5950    7.2350 C.3   278  ASP278      0.1709
     74  C        227.8790  -27.1620    5.9060 C.2   278  ASP278      0.2293
     75  O        227.3920  -26.4430    5.0270 O.2   278  ASP278     -0.2864
     76  CB       227.1410  -26.8960    8.2030 C.3   278  ASP278      0.1436
     77  CG       227.4740  -26.6460    9.6760 C.2   278  ASP278      0.3671
     78  OD1      228.6270  -26.3170   10.0180 O.co2 278  ASP278     -0.2456
     79  OD2      226.5510  -26.8110   10.5180 O.co2 278  ASP278     -0.2456
     80  N        233.1540  -23.9950    4.6470 N.3   284  ASP284     -0.1239
     81  CA       234.1770  -24.7130    5.3760 C.3   284  ASP284      0.1674
     82  C        234.3380  -26.1710    4.9460 C.2   284  ASP284      0.2266
     83  O        235.0960  -26.9000    5.5790 O.2   284  ASP284     -0.2867
     84  CB       233.9050  -24.6270    6.8780 C.3   284  ASP284      0.1410
     85  CG       235.1230  -24.8990    7.6990 C.2   284  ASP284      0.3668
     86  OD1      236.2700  -24.6500    7.2420 O.co2 284  ASP284     -0.2456
     87  OD2      234.9320  -25.4080    8.8170 O.co2 284  ASP284     -0.2456
     88  N        235.7110  -29.4060    3.3680 N.3   286  VAL286     -0.1245
     89  CA       237.0490  -29.8240    2.9620 C.3   286  VAL286      0.1561
     90  C        237.0450  -31.2710    2.5060 C.2   286  VAL286      0.2260
     91  O        236.1970  -32.0720    2.9280 O.2   286  VAL286     -0.2867
     92  CB       238.0850  -29.6070    4.0980 C.3   286  VAL286      0.0252
     93  CG1      238.2230  -28.1200    4.3760 C.3   286  VAL286      0.0019
     94  CG2      237.6980  -30.3420    5.3710 C.3   286  VAL286      0.0019
     95  N        237.4970  -28.9430   19.3940 N.3   325  THR325     -0.1203
     96  CA       238.3770  -29.5100   18.3860 C.3   325  THR325      0.1994
     97  C        238.7190  -28.4430   17.3610 C.2   325  THR325      0.2618
     98  O        237.9550  -27.5040   17.1160 O.2   325  THR325     -0.2717
     99  CB       237.7130  -30.7050   17.6680 C.3   325  THR325      0.1784
    100  OG1      236.5040  -30.2820   17.0170 O.3   325  THR325     -0.2211
    101  CG2      237.3870  -31.8280   18.6520 C.3   325  THR325      0.0376
    102  N        239.8880  -28.5740   16.7670 N.am  326  ILE326     -0.1965
    103  CA       240.2230  -27.7490   15.6380 C.3   326  ILE326      0.1727
    104  C        241.1590  -28.5570   14.7720 C.2   326  ILE326      0.2616
    105  O        242.0500  -29.2370   15.2740 O.2   326  ILE326     -0.2715
    106  CB       240.8830  -26.4130   16.0630 C.3   326  ILE326      0.0290
    107  CG1      241.1920  -25.5350   14.8480 C.3   326  ILE326      0.0022
    108  CG2      242.1710  -26.6330   16.8360 C.3   326  ILE326      0.0023
    109  CD1      241.4740  -24.0780   15.1700 C.3   326  ILE326      0.0001
    110  N        240.9160  -28.5120   13.4760 N.am  327  TRP327     -0.1974
    111  CA       241.9090  -28.9240   12.5190 C.3   327  TRP327      0.1640
    112  C        242.5820  -27.6470   12.1030 C.2   327  TRP327      0.2290
    113  O        241.9880  -26.8180   11.4690 O.2   327  TRP327     -0.2864
    114  CB       241.2630  -29.5910   11.3380 C.3   327  TRP327      0.0576
    115  CG       242.2170  -30.1240   10.3730 C.ar  327  TRP327      0.0006
    116  CD1      243.5920  -29.9380   10.3270 C.ar  327  TRP327      0.0946
    117  CD2      241.8940  -30.9510    9.2970 C.ar  327  TRP327      0.0152
    118  NE1      244.1200  -30.6080    9.2580 N.ar  327  TRP327     -0.2442
    119  CE2      243.0990  -31.2480    8.6150 C.ar  327  TRP327      0.0810
    120  CE3      240.6900  -31.5090    8.8350 C.ar  327  TRP327      0.0012
    121  CZ2      243.1300  -32.0600    7.4880 C.ar  327  TRP327      0.0191
    122  CZ3      240.7240  -32.3180    7.7020 C.ar  327  TRP327      0.0001
    123  CH2      241.9380  -32.5850    7.0490 C.ar  327  TRP327      0.0015
@<TRIPOS>BOND
     1    90    91    2
     2    90    89    1
     3    89    88    1
     4    89    92    1
     5    92    93    1
     6    92    94    1
     7    80    81    1
     8    82    81    1
     9    82    83    2
    10    75    74    2
    11    81    84    1
    12    74    73    1
    13    71    70    2
    14    70    69    1
    15    70    72   am
    16    68    69    1
    17    84    85    1
    18   123   121   ar
    19   123   122   ar
    20    72    73    1
    21    73    76    1
    22    86    85   ar
    23   121   119   ar
    24    12    13    1
    25    85    87   ar
    26   122   120   ar
    27    76    77    1
    28    16    13    1
    29    16    17    1
    30    13    14    1
    31   119   118   ar
    32   119   117   ar
    33   120   117   ar
    34    62    61    2
    35   118   116   ar
    36   117   115   ar
    37    77    78   ar
    38    77    79   ar
    39    14    15    2
    40    61    60    1
    41    67    65   am
    42   116   115   ar
    43   115   114    1
    44    60    59    1
    45    60    63    1
    46    25    23   am
    47    65    66    2
    48    65    64    1
    49    24    23    2
    50   114   111    1
    51   113   112    2
    52    23    22    1
    53    64    63    1
    54   112   111    1
    55    18    19    1
    56    10     8   ar
    57    10    11   ar
    58    19    22    1
    59    19    20    1
    60     8     6   ar
    61   111   110    1
    62   110   104   am
    63    57    56   ar
    64    11     9   ar
    65     6     5    1
    66     6     7   ar
    67     5     2    1
    68    20    21    2
    69     1     2    1
    70     2     3    1
    71     9     7   ar
    72    56    58   ar
    73    56    55    1
    74   104   105    2
    75   104   103    1
    76   107   109    1
    77   107   106    1
    78    30    27    1
    79    30    31    1
    80    54    55    1
    81    54    51    1
    82    32    31   ar
    83    32    34   ar
    84    53    52    2
    85    26    27    1
    86   103   106    1
    87   103   102    1
    88    27    28    1
    89    31    33   ar
    90     3     4    2
    91    34    35   ar
    92   106   108    1
    93    52    51    1
    94    51    50    1
    95   102    97   am
    96   100    99    1
    97    28    29    2
    98    49    47   ar
    99    49    48   ar
   100    33    35   ar
   101    33    36   ar
   102    47    45   ar
   103    98    97    2
   104    35    37   ar
   105    97    96    1
   106    99    96    1
   107    99   101    1
   108    43    42    2
   109    36    38   ar
   110    48    46   ar
   111    45    46   ar
   112    45    44    1
   113    37    39   ar
   114    96    95    1
   115    42    41    1
   116    44    41    1
   117    38    39   ar
   118    41    40    1
