@<TRIPOS>MOLECULE
tmp/6camA01.pdb
 112 106 0 0 0
SMALL
GASTEIGER

@<TRIPOS>ATOM
      1  N        249.0130  -30.5010    6.3000 N.3   177  LYS177     -0.1245
      2  CA       247.7320  -30.7850    6.9270 C.3   177  LYS177      0.1561
      3  C        247.7780  -30.4890    8.4250 C.2   177  LYS177      0.2260
      4  O        246.7490  -30.3880    9.0550 O.2   177  LYS177     -0.2867
      5  CB       247.3560  -32.2430    6.7220 C.3   177  LYS177      0.0271
      6  CG       247.1450  -32.6470    5.2820 C.3   177  LYS177      0.0035
      7  CD       246.9660  -34.1460    5.1610 C.3   177  LYS177      0.0206
      8  CE       245.6330  -34.6010    5.6960 C.3   177  LYS177      0.1093
      9  NZ       245.4300  -36.0500    5.5400 N.3   177  LYS177     -0.1314
     10  N        248.4800  -19.7140    4.6850 N.3   220  SER220     -0.1217
     11  CA       247.0610  -19.6940    4.9310 C.3   220  SER220      0.1889
     12  C        246.7890  -19.8090    6.4280 C.2   220  SER220      0.2288
     13  O        247.4630  -20.5340    7.1400 O.2   220  SER220     -0.2866
     14  CB       246.4230  -20.8730    4.2090 C.3   220  SER220      0.2089
     15  OG       246.8700  -22.1020    4.7670 O.3   220  SER220     -0.2183
     16  N        243.3060  -20.5560    7.2920 N.3   222  SER222     -0.1202
     17  CA       241.9260  -20.7570    6.8220 C.3   222  SER222      0.2020
     18  C        241.0650  -21.3200    7.9140 C.2   222  SER222      0.2619
     19  O        241.5500  -21.7340    8.9440 O.2   222  SER222     -0.2717
     20  CB       241.8940  -21.6870    5.5900 C.3   222  SER222      0.2103
     21  OG       242.6190  -21.1170    4.5220 O.3   222  SER222     -0.2182
     22  N        239.7570  -21.3230    7.6690 N.am  223  SER223     -0.1937
     23  CA       238.8280  -22.0910    8.4610 C.3   223  SER223      0.2055
     24  C        238.8990  -21.6570    9.9160 C.2   223  SER223      0.2642
     25  O        238.9760  -22.4780   10.8210 O.2   223  SER223     -0.2714
     26  CB       239.0500  -23.5950    8.2560 C.3   223  SER223      0.2130
     27  OG       238.2390  -24.3680    9.1250 O.3   223  SER223     -0.2179
     28  N        238.8540  -20.3540   10.1170 N.am  224  LEU224     -0.1977
     29  CA       238.7650  -19.7790   11.4360 C.3   224  LEU224      0.1596
     30  C        237.2700  -19.6060   11.7310 C.2   224  LEU224      0.2287
     31  O        236.7490  -18.5340   11.6280 O.2   224  LEU224     -0.2864
     32  CB       239.4820  -18.4590   11.4720 C.3   224  LEU224      0.0297
     33  CG       241.0100  -18.6380   11.3000 C.3   224  LEU224      0.0022
     34  CD1      241.6600  -17.2980   11.4390 C.3   224  LEU224      0.0001
     35  CD2      241.5830  -19.6500   12.2980 C.3   224  LEU224      0.0001
     36  N        233.1540  -23.9950    4.6470 N.3   284  ASP284     -0.1239
     37  CA       234.1770  -24.7130    5.3760 C.3   284  ASP284      0.1674
     38  C        234.3380  -26.1710    4.9460 C.2   284  ASP284      0.2266
     39  O        235.0960  -26.9000    5.5790 O.2   284  ASP284     -0.2867
     40  CB       233.9050  -24.6270    6.8780 C.3   284  ASP284      0.1410
     41  CG       235.1230  -24.8990    7.6990 C.2   284  ASP284      0.3668
     42  OD1      236.2700  -24.6500    7.2420 O.co2 284  ASP284     -0.2456
     43  OD2      234.9320  -25.4080    8.8170 O.co2 284  ASP284     -0.2456
     44  N        235.7110  -29.4060    3.3680 N.3   286  VAL286     -0.1245
     45  CA       237.0490  -29.8240    2.9620 C.3   286  VAL286      0.1561
     46  C        237.0450  -31.2710    2.5060 C.2   286  VAL286      0.2260
     47  O        236.1970  -32.0720    2.9280 O.2   286  VAL286     -0.2867
     48  CB       238.0850  -29.6070    4.0980 C.3   286  VAL286      0.0252
     49  CG1      238.2230  -28.1200    4.3760 C.3   286  VAL286      0.0019
     50  CG2      237.6980  -30.3420    5.3710 C.3   286  VAL286      0.0019
     51  N        242.2920  -32.1100    3.4880 N.3   290  GLY290     -0.1225
     52  CA       242.2020  -30.7850    4.0990 C.3   290  GLY290      0.1811
     53  C        241.9800  -29.6530    3.1130 C.2   290  GLY290      0.2280
     54  O        241.8340  -28.5000    3.5120 O.2   290  GLY290     -0.2866
     55  N        240.0580  -27.1800    0.8090 N.3   292  PRO292     -0.2116
     56  CA       238.6580  -26.6980    0.7340 C.3   292  PRO292      0.1372
     57  C        237.9030  -27.1920   -0.5030 C.2   292  PRO292      0.2244
     58  O        238.4630  -27.1950   -1.5900 O.2   292  PRO292     -0.2868
     59  CB       238.8020  -25.1720    0.6670 C.3   292  PRO292      0.0268
     60  CG       240.1540  -24.8700    1.1940 C.3   292  PRO292      0.0207
     61  CD       241.0190  -26.0620    0.9100 C.3   292  PRO292      0.0892
     62  N        235.6000  -20.5450    0.6500 N.3   297  ALA297     -0.1245
     63  CA       236.4870  -20.7860    1.7840 C.3   297  ALA297      0.1562
     64  C        237.1500  -19.4750    2.3120 C.2   297  ALA297      0.2260
     65  O        237.3820  -19.3410    3.5020 O.2   297  ALA297     -0.2867
     66  CB       237.5490  -21.8050    1.4020 C.3   297  ALA297      0.0290
     67  N        239.8880  -28.5740   16.7670 N.3   326  ILE326     -0.1231
     68  CA       240.2230  -27.7490   15.6380 C.3   326  ILE326      0.1692
     69  C        241.1590  -28.5570   14.7720 C.2   326  ILE326      0.2592
     70  O        242.0500  -29.2370   15.2740 O.2   326  ILE326     -0.2718
     71  CB       240.8830  -26.4130   16.0630 C.3   326  ILE326      0.0266
     72  CG1      241.1920  -25.5350   14.8480 C.3   326  ILE326      0.0019
     73  CG2      242.1710  -26.6330   16.8360 C.3   326  ILE326      0.0020
     74  CD1      241.4740  -24.0780   15.1700 C.3   326  ILE326      0.0001
     75  N        240.9160  -28.5120   13.4760 N.am  327  TRP327     -0.1962
     76  CA       241.9090  -28.9240   12.5190 C.3   327  TRP327      0.1771
     77  C        242.5820  -27.6470   12.1030 C.2   327  TRP327      0.2620
     78  O        241.9880  -26.8180   11.4690 O.2   327  TRP327     -0.2715
     79  CB       241.2630  -29.5910   11.3380 C.3   327  TRP327      0.0590
     80  CG       242.2170  -30.1240   10.3730 C.ar  327  TRP327      0.0006
     81  CD1      243.5920  -29.9380   10.3270 C.ar  327  TRP327      0.0946
     82  CD2      241.8940  -30.9510    9.2970 C.ar  327  TRP327      0.0152
     83  NE1      244.1200  -30.6080    9.2580 N.ar  327  TRP327     -0.2442
     84  CE2      243.0990  -31.2480    8.6150 C.ar  327  TRP327      0.0810
     85  CE3      240.6900  -31.5090    8.8350 C.ar  327  TRP327      0.0012
     86  CZ2      243.1300  -32.0600    7.4880 C.ar  327  TRP327      0.0191
     87  CZ3      240.7240  -32.3180    7.7020 C.ar  327  TRP327      0.0001
     88  CH2      241.9380  -32.5850    7.0490 C.ar  327  TRP327      0.0015
     89  N        243.8170  -27.4680   12.4980 N.am  328  PHE328     -0.1960
     90  CA       244.5020  -26.2600   12.1840 C.3   328  PHE328      0.1771
     91  C        245.5610  -26.6890   11.2210 C.2   328  PHE328      0.2619
     92  O        246.3830  -27.5030   11.5580 O.2   328  PHE328     -0.2715
     93  CB       245.1680  -25.5990   13.4050 C.3   328  PHE328      0.0574
     94  CG       245.9710  -24.3960   13.0150 C.ar  328  PHE328     -0.0200
     95  CD1      245.3360  -23.1910   12.8260 C.ar  328  PHE328     -0.0042
     96  CD2      247.3110  -24.4990   12.7260 C.ar  328  PHE328     -0.0042
     97  CE1      246.0440  -22.0830   12.3980 C.ar  328  PHE328     -0.0003
     98  CE2      248.0340  -23.3970   12.3260 C.ar  328  PHE328     -0.0003
     99  CZ       247.4010  -22.1930   12.1430 C.ar  328  PHE328     -0.0000
    100  N        245.6020  -26.0510   10.0640 N.am  329  ALA329     -0.1977
    101  CA       246.4960  -26.3980    8.9890 C.3   329  ALA329      0.1597
    102  C        246.9600  -25.0530    8.4790 C.2   329  ALA329      0.2287
    103  O        246.1960  -24.0920    8.4430 O.2   329  ALA329     -0.2864
    104  CB       245.8130  -27.2060    7.8960 C.3   329  ALA329      0.0319
    105  N        249.6180  -23.6210    5.3430 N.3   331  ASN331     -0.1240
    106  CA       250.3230  -24.0760    4.1540 C.3   331  ASN331      0.1653
    107  C        250.2670  -22.9150    3.1870 C.2   331  ASN331      0.2266
    108  O        249.7820  -21.8460    3.5670 O.2   331  ASN331     -0.2867
    109  CB       249.6720  -25.3420    3.6210 C.3   331  ASN331      0.1155
    110  CG       248.1760  -25.2080    3.4930 C.2   331  ASN331      0.2627
    111  OD1      247.6880  -24.2590    2.8740 O.2   331  ASN331     -0.2716
    112  ND2      247.4370  -26.1540    4.0840 N.am  331  ASN331     -0.0877
@<TRIPOS>BOND
     1    58    57    2
     2    57    56    1
     3    62    63    1
     4    59    56    1
     5    59    60    1
     6    56    55    1
     7    55    61    1
     8    61    60    1
     9    66    63    1
    10    63    64    1
    11    64    65    2
    12    46    47    2
    13    46    45    1
    14   111   110    2
    15    45    44    1
    16    45    48    1
    17    53    54    2
    18    53    52    1
    19   107   108    2
    20   107   106    1
    21    51    52    1
    22   110   109    1
    23   110   112   am
    24   109   106    1
    25    48    49    1
    26    48    50    1
    27   106   105    1
    28    14    15    1
    29    14    11    1
    30    21    20    1
    31    36    37    1
    32    10    11    1
    33    11    12    1
    34    38    37    1
    35    38    39    2
    36     7     6    1
    37     7     8    1
    38     6     5    1
    39    37    40    1
    40     9     8    1
    41    20    17    1
    42     1     2    1
    43    12    13    2
    44     5     2    1
    45    17    16    1
    46    17    18    1
    47    40    41    1
    48     2     3    1
    49    88    86   ar
    50    88    87   ar
    51    42    41   ar
    52    86    84   ar
    53    22    18   am
    54    22    23    1
    55    41    43   ar
    56    87    85   ar
    57   104   101    1
    58    18    19    2
    59    26    23    1
    60    26    27    1
    61     3     4    2
    62   103   102    2
    63    23    24    1
    64   102   101    1
    65    84    83   ar
    66    84    82   ar
    67    85    82   ar
    68   101   100    1
    69    83    81   ar
    70    82    80   ar
    71    24    28   am
    72    24    25    2
    73   100    91   am
    74    28    29    1
    75    81    80   ar
    76    80    79    1
    77    91    92    2
    78    91    90    1
    79    33    34    1
    80    33    32    1
    81    33    35    1
    82    79    76    1
    83    29    32    1
    84    29    30    1
    85    78    77    2
    86    31    30    2
    87    77    89   am
    88    77    76    1
    89    99    98   ar
    90    99    97   ar
    91    90    89    1
    92    90    93    1
    93    98    96   ar
    94    97    95   ar
    95    76    75    1
    96    96    94   ar
    97    95    94   ar
    98    94    93    1
    99    75    69   am
   100    69    70    2
   101    69    68    1
   102    72    74    1
   103    72    71    1
   104    68    71    1
   105    68    67    1
   106    71    73    1
