@<TRIPOS>MOLECULE
tmp/6cauA00.pdb
 123 118 0 0 0
SMALL
GASTEIGER

@<TRIPOS>ATOM
      1  N         -3.9630   27.6850  -25.3520 N.3   115  THR115     -0.1203
      2  CA        -3.6200   29.0110  -25.8470 C.3   115  THR115      0.1994
      3  C         -2.1320   29.3060  -25.6640 C.2   115  THR115      0.2618
      4  O         -1.5060   29.9240  -26.5330 O.2   115  THR115     -0.2717
      5  CB        -4.4650   30.0670  -25.1350 C.3   115  THR115      0.1784
      6  OG1       -5.8500   29.6850  -25.1770 O.3   115  THR115     -0.2211
      7  CG2       -4.2730   31.4260  -25.8100 C.3   115  THR115      0.0376
      8  N         -1.5520   28.8710  -24.5420 N.am  116  HIS116     -0.1961
      9  CA        -0.1760   29.1840  -24.1860 C.3   116  HIS116      0.1787
     10  C          0.5300   27.9270  -23.7000 C.2   116  HIS116      0.2621
     11  O         -0.0740   27.0920  -23.0190 O.2   116  HIS116     -0.2715
     12  CB        -0.0740   30.2410  -23.0760 C.3   116  HIS116      0.0785
     13  CG        -0.8930   31.4750  -23.2970 C.ar  116  HIS116      0.0821
     14  ND1       -0.6250   32.3800  -24.3030 N.ar  116  HIS116     -0.2267
     15  CD2       -1.9410   31.9850  -22.6040 C.ar  116  HIS116      0.1154
     16  CE1       -1.4930   33.3750  -24.2420 C.ar  116  HIS116      0.1986
     17  NE2       -2.3010   33.1590  -23.2190 N.ar  116  HIS116     -0.2212
     18  N          1.8200   27.8160  -24.0300 N.am  117  GLY117     -0.1940
     19  CA         2.6210   26.7010  -23.5650 C.3   117  GLY117      0.2014
     20  C          2.5740   25.4420  -24.4090 C.2   117  GLY117      0.2639
     21  O          3.0460   24.3940  -23.9470 O.2   117  GLY117     -0.2714
     22  N          2.0350   25.5090  -25.6360 N.am  118  LYS118     -0.1963
     23  CA         2.0280   24.3440  -26.5270 C.3   118  LYS118      0.1728
     24  C          3.4490   23.9220  -26.9170 C.2   118  LYS118      0.2617
     25  O          3.8240   22.7560  -26.7570 O.2   118  LYS118     -0.2715
     26  CB         1.2020   24.6390  -27.7850 C.3   118  LYS118      0.0311
     27  CG        -0.3160   24.6630  -27.5980 C.3   118  LYS118      0.0038
     28  CD        -1.0310   24.9060  -28.9550 C.3   118  LYS118      0.0206
     29  CE        -0.5850   26.2190  -29.6100 C.3   118  LYS118      0.1093
     30  NZ        -0.9410   27.4530  -28.8110 N.3   118  LYS118     -0.1314
     31  N          4.2540   24.8550  -27.4350 N.am  119  THR119     -0.1937
     32  CA         5.6080   24.5120  -27.8580 C.3   119  THR119      0.2028
     33  C          6.4230   23.9220  -26.7030 C.2   119  THR119      0.2642
     34  O          7.0720   22.8760  -26.8530 O.2   119  THR119     -0.2714
     35  CB         6.3020   25.7490  -28.4420 C.3   119  THR119      0.1808
     36  OG1        5.6230   26.1600  -29.6280 O.3   119  THR119     -0.2208
     37  CG2        7.7790   25.4570  -28.7820 C.3   119  THR119      0.0379
     38  N          6.3960   24.5760  -25.5390 N.am  120  THR120     -0.1950
     39  CA         7.1550   24.0760  -24.3920 C.3   120  THR120      0.1897
     40  C          6.6890   22.6750  -23.9970 C.2   120  THR120      0.2313
     41  O          7.5010   21.7660  -23.8020 O.2   120  THR120     -0.2863
     42  CB         7.0150   25.0440  -23.2160 C.3   120  THR120      0.1794
     43  OG1        7.4770   26.3390  -23.6050 O.3   120  THR120     -0.2208
     44  CG2        7.8080   24.5720  -22.0160 C.3   120  THR120      0.0378
     45  N          6.5560   23.8240  -32.9640 N.3   141  GLY141     -0.1225
     46  CA         6.5850   25.1590  -33.5320 C.3   141  GLY141      0.1811
     47  C          7.7350   25.9700  -32.9730 C.2   141  GLY141      0.2280
     48  O          7.5460   27.0950  -32.5020 O.2   141  GLY141     -0.2866
     49  N          2.3370   20.0280  -32.0430 N.3   162  GLU162     -0.1245
     50  CA         1.5620   21.1810  -31.6080 C.3   162  GLU162      0.1567
     51  C          0.2340   21.2430  -32.3530 C.2   162  GLU162      0.2260
     52  O          0.1930   21.1220  -33.5820 O.2   162  GLU162     -0.2867
     53  CB         2.3480   22.4600  -31.8580 C.3   162  GLU162      0.0388
     54  CG         2.8680   23.0920  -30.6340 C.3   162  GLU162      0.1160
     55  CD         3.5740   24.3970  -30.9220 C.2   162  GLU162      0.3649
     56  OE1        4.8300   24.3870  -30.9260 O.co2 162  GLU162     -0.2457
     57  OE2        2.8690   25.4160  -31.1270 O.co2 162  GLU162     -0.2457
     58  N         -2.7050   23.6910  -33.2360 N.3   164  ASP164     -0.1225
     59  CA        -3.0360   25.1120  -33.3070 C.3   164  ASP164      0.1805
     60  C         -4.5530   25.3220  -33.3290 C.2   164  ASP164      0.2597
     61  O         -5.2500   24.8100  -34.2160 O.2   164  ASP164     -0.2718
     62  CB        -2.4020   25.7190  -34.5560 C.3   164  ASP164      0.1424
     63  CG        -2.4660   27.2570  -34.5730 C.2   164  ASP164      0.3668
     64  OD1       -2.8230   27.8770  -33.5390 O.co2 164  ASP164     -0.2456
     65  OD2       -2.1410   27.8420  -35.6290 O.co2 164  ASP164     -0.2456
     66  N         -5.0660   26.0890  -32.3610 N.am  165  GLU165     -0.1979
     67  CA        -6.4970   26.3910  -32.3170 C.3   165  GLU165      0.1602
     68  C         -6.8850   27.5190  -33.2540 C.2   165  GLU165      0.2287
     69  O         -8.0740   27.6630  -33.5690 O.2   165  GLU165     -0.2864
     70  CB        -6.9430   26.7610  -30.8870 C.3   165  GLU165      0.0415
     71  CG        -6.5880   28.1980  -30.4320 C.3   165  GLU165      0.1163
     72  CD        -5.1100   28.3940  -30.0250 C.2   165  GLU165      0.3649
     73  OE1       -4.7770   29.5270  -29.6180 O.co2 165  GLU165     -0.2457
     74  OE2       -4.2800   27.4430  -30.1090 O.co2 165  GLU165     -0.2457
     75  N         -3.6110   22.7840  -22.4530 N.3   181  THR181     -0.1203
     76  CA        -2.8820   23.4510  -21.3700 C.3   181  THR181      0.1994
     77  C         -3.7290   24.5250  -20.6830 C.2   181  THR181      0.2617
     78  O         -3.6600   24.6760  -19.4600 O.2   181  THR181     -0.2717
     79  CB        -1.5970   24.0770  -21.9070 C.3   181  THR181      0.1784
     80  OG1       -1.9080   24.8710  -23.0630 O.3   181  THR181     -0.2211
     81  CG2       -0.5440   22.9890  -22.2690 C.3   181  THR181      0.0376
     82  N         -4.5180   25.2830  -21.4470 N.am  182  ASN182     -0.1974
     83  CA        -5.3310   26.3890  -20.9400 C.3   182  ASN182      0.1688
     84  C         -6.1750   26.9190  -22.0910 C.2   182  ASN182      0.2292
     85  O         -5.8770   26.6720  -23.2640 O.2   182  ASN182     -0.2864
     86  CB        -4.4780   27.5330  -20.3470 C.3   182  ASN182      0.1181
     87  CG        -3.2740   27.8910  -21.2270 C.2   182  ASN182      0.2629
     88  OD1       -3.4310   28.3510  -22.3670 O.2   182  ASN182     -0.2716
     89  ND2       -2.0640   27.6800  -20.6950 N.am  182  ASN182     -0.0877
     90  N          4.2840   28.4380  -14.5920 N.3   274  HIS274     -0.1226
     91  CA         3.6070   27.9150  -15.7840 C.3   274  HIS274      0.1752
     92  C          4.3340   26.7090  -16.3650 C.2   274  HIS274      0.2596
     93  O          3.6960   25.8190  -16.9450 O.2   274  HIS274     -0.2718
     94  CB         3.4800   29.0020  -16.8640 C.3   274  HIS274      0.0759
     95  CG         2.4170   30.0170  -16.5800 C.ar  274  HIS274      0.0818
     96  ND1        2.4970   31.3220  -17.0230 N.ar  274  HIS274     -0.2268
     97  CD2        1.2480   29.9200  -15.8990 C.ar  274  HIS274      0.1154
     98  CE1        1.4300   31.9880  -16.6170 C.ar  274  HIS274      0.1986
     99  NE2        0.6550   31.1590  -15.9390 N.ar  274  HIS274     -0.2212
    100  N          5.6670   26.6670  -16.2360 N.am  275  ASN275     -0.1974
    101  CA         6.4160   25.5420  -16.7840 C.3   275  ASN275      0.1688
    102  C          6.3440   24.3130  -15.8830 C.2   275  ASN275      0.2292
    103  O          6.4420   23.1850  -16.3860 O.2   275  ASN275     -0.2864
    104  CB         7.8610   25.9520  -17.0480 C.3   275  ASN275      0.1181
    105  CG         7.9740   26.8690  -18.2490 C.2   275  ASN275      0.2629
    106  OD1        7.3010   26.6560  -19.2810 O.2   275  ASN275     -0.2716
    107  ND2        8.7930   27.9190  -18.1240 N.am  275  ASN275     -0.0877
    108  N          3.4650   23.6340  -14.5850 N.3   277  LEU277     -0.1231
    109  CA         2.1850   23.1390  -15.0890 C.3   277  LEU277      0.1693
    110  C          2.3680   22.4370  -16.4280 C.2   277  LEU277      0.2592
    111  O          1.8290   21.3470  -16.6450 O.2   277  LEU277     -0.2718
    112  CB         1.1750   24.2880  -15.2110 C.3   277  LEU277      0.0284
    113  CG         0.6110   24.9050  -13.9240 C.3   277  LEU277      0.0019
    114  CD1       -0.3360   26.0820  -14.2190 C.3   277  LEU277      0.0001
    115  CD2       -0.1090   23.8430  -13.0870 C.3   277  LEU277      0.0001
    116  N          3.1470   23.0380  -17.3310 N.am  278  ASN278     -0.1974
    117  CA         3.4340   22.3900  -18.6100 C.3   278  ASN278      0.1688
    118  C          4.0550   21.0100  -18.4060 C.2   278  ASN278      0.2292
    119  O          3.7050   20.0560  -19.1060 O.2   278  ASN278     -0.2864
    120  CB         4.3550   23.2780  -19.4530 C.3   278  ASN278      0.1181
    121  CG         3.7140   24.6010  -19.8300 C.2   278  ASN278      0.2629
    122  OD1        2.4900   24.7120  -19.9560 O.2   278  ASN278     -0.2716
    123  ND2        4.5430   25.6180  -20.0190 N.am  278  ASN278     -0.0877
@<TRIPOS>BOND
     1    65    63   ar
     2    63    62    1
     3    63    64   ar
     4    62    59    1
     5    61    60    2
     6    52    51    2
     7    69    68    2
     8    46    47    1
     9    46    45    1
    10    60    59    1
    11    60    66   am
    12    59    58    1
    13    68    67    1
    14    47    48    2
    15    66    67    1
    16    51    50    1
    17    67    70    1
    18    49    50    1
    19    53    50    1
    20    53    54    1
    21    57    55   ar
    22    56    55   ar
    23    55    54    1
    24    70    71    1
    25    71    72    1
    26    74    72   ar
    27    72    73   ar
    28    36    35    1
    29    29    28    1
    30    29    30    1
    31    28    27    1
    32    37    35    1
    33    35    32    1
    34    32    31    1
    35    32    33    1
    36    26    27    1
    37    26    23    1
    38    31    24   am
    39    24    25    2
    40    24    23    1
    41    34    33    2
    42    33    38   am
    43     4     3    2
    44    23    22    1
    45     2     3    1
    46     2     1    1
    47     2     5    1
    48     7     5    1
    49     3     8   am
    50    22    20   am
    51    38    39    1
    52     6     5    1
    53     8     9    1
    54    20    21    2
    55    20    19    1
    56    39    40    1
    57    39    42    1
    58    14    16   ar
    59    14    13   ar
    60    16    17   ar
    61     9    10    1
    62     9    12    1
    63    18    10   am
    64    18    19    1
    65    40    41    2
    66    10    11    2
    67    43    42    1
    68    13    12    1
    69    13    15   ar
    70    85    84    2
    71    17    15   ar
    72    42    44    1
    73    80    79    1
    74    75    76    1
    75    88    87    2
    76    81    79    1
    77    84    83    1
    78    79    76    1
    79    82    83    1
    80    82    77   am
    81    76    77    1
    82    87    89   am
    83    87    86    1
    84    83    86    1
    85    77    78    2
    86   123   121   am
    87   122   121    2
    88   121   120    1
    89   120   117    1
    90   106   105    2
    91   119   118    2
    92   117   118    1
    93   117   116    1
    94   105   107   am
    95   105   104    1
    96   116   110   am
    97   104   101    1
    98    96    98   ar
    99    96    95   ar
   100    93    92    2
   101    94    95    1
   102    94    91    1
   103   101   100    1
   104   101   102    1
   105   111   110    2
   106    98    99   ar
   107    95    97   ar
   108   110   109    1
   109   103   102    2
   110    92   100   am
   111    92    91    1
   112    99    97   ar
   113    91    90    1
   114   112   109    1
   115   112   113    1
   116   109   108    1
   117   114   113    1
   118   113   115    1
