@<TRIPOS>MOLECULE
tmp/6cavB01.pdb
 141 131 0 0 0
SMALL
GASTEIGER

@<TRIPOS>ATOM
      1  N         41.2350    0.3030   10.1540 N.3   189  ASP189     -0.1239
      2  CA        40.4030   -0.4310   11.1110 C.3   189  ASP189      0.1674
      3  C         38.9730    0.0250   10.9420 C.2   189  ASP189      0.2266
      4  O         38.2660    0.4010   11.8760 O.2   189  ASP189     -0.2867
      5  CB        40.9120   -0.1170   12.4810 C.3   189  ASP189      0.1410
      6  CG        40.4480   -1.0800   13.5330 C.2   189  ASP189      0.3668
      7  OD1       39.9420   -2.1590   13.2640 O.co2 189  ASP189     -0.2456
      8  OD2       40.6540   -0.7240   14.6810 O.co2 189  ASP189     -0.2456
      9  N         35.6970   -0.4070   10.5930 N.3   191  SER191     -0.1217
     10  CA        34.6020   -1.2700   10.9510 C.3   191  SER191      0.1889
     11  C         33.4740   -0.4310   11.4150 C.2   191  SER191      0.2288
     12  O         33.6840    0.7470   11.7530 O.2   191  SER191     -0.2866
     13  CB        35.0580   -2.1710   12.0810 C.3   191  SER191      0.2089
     14  OG        35.7980   -1.4440   13.0430 O.3   191  SER191     -0.2183
     15  N         31.7610   -0.2240   14.1580 N.3   193  ASN193     -0.1225
     16  CA        31.8900    0.3840   15.5130 C.3   193  ASN193      0.1785
     17  C         32.7850    1.6760   15.5570 C.2   193  ASN193      0.2597
     18  O         32.9710    2.2680   16.6260 O.2   193  ASN193     -0.2718
     19  CB        32.4030   -0.6550   16.5120 C.3   193  ASN193      0.1169
     20  CG        33.8180   -1.0120   16.2780 C.2   193  ASN193      0.2627
     21  OD1       34.1670   -1.4710   15.2080 O.2   193  ASN193     -0.2716
     22  ND2       34.6580   -0.7430   17.2090 N.am  193  ASN193     -0.0877
     23  N         33.3740    2.0590   14.4270 N.am  194  HIS194     -0.1975
     24  CA        34.1020    3.3250   14.3240 C.3   194  HIS194      0.1656
     25  C         33.3820    4.3760   13.4670 C.2   194  HIS194      0.2291
     26  O         33.9130    5.4290   13.2190 O.2   194  HIS194     -0.2864
     27  CB        35.5000    3.0660   13.8140 C.3   194  HIS194      0.0771
     28  CG        36.3540    2.2650   14.7740 C.ar  194  HIS194      0.0820
     29  ND1       37.2750    1.3190   14.3610 N.ar  194  HIS194     -0.2267
     30  CD2       36.4060    2.2600   16.1280 C.ar  194  HIS194      0.1154
     31  CE1       37.8910    0.8180   15.4010 C.ar  194  HIS194      0.1986
     32  NE2       37.3790    1.3720   16.4930 N.ar  194  HIS194     -0.2212
     33  N         38.9840    6.5480   15.6770 N.3   208  ASP208     -0.1239
     34  CA        39.9810    5.4790   15.8460 C.3   208  ASP208      0.1674
     35  C         40.8260    5.3010   14.5970 C.2   208  ASP208      0.2266
     36  O         40.7290    4.2870   13.8800 O.2   208  ASP208     -0.2867
     37  CB        39.3470    4.1340   16.2910 C.3   208  ASP208      0.1410
     38  CG        40.3940    3.0960   16.9210 C.2   208  ASP208      0.3668
     39  OD1       41.6140    3.3330   16.9350 O.co2 208  ASP208     -0.2456
     40  OD2       39.9670    1.9900   17.4350 O.co2 208  ASP208     -0.2456
     41  N         45.2170    2.6500   13.9530 N.3   211  ASP211     -0.1239
     42  CA        45.9870    1.7240   13.1790 C.3   211  ASP211      0.1674
     43  C         46.3800    2.3220   11.8250 C.2   211  ASP211      0.2266
     44  O         46.9660    1.6450   11.0050 O.2   211  ASP211     -0.2867
     45  CB        45.1900    0.4320   13.0160 C.3   211  ASP211      0.1410
     46  CG        45.0420   -0.3360   14.3300 C.2   211  ASP211      0.3668
     47  OD1       45.5890    0.0580   15.3880 O.co2 211  ASP211     -0.2456
     48  OD2       44.3040   -1.3440   14.2950 O.co2 211  ASP211     -0.2456
     49  N         36.7380   -4.8350    6.6490 N.3   223  TYR223     -0.1241
     50  CA        35.6220   -5.0010    7.5800 C.3   223  TYR223      0.1605
     51  C         34.2790   -4.7710    6.8850 C.2   223  TYR223      0.2264
     52  O         33.3090   -5.4300    7.1920 O.2   223  TYR223     -0.2867
     53  CB        35.8420   -4.2230    8.8610 C.3   223  TYR223      0.0534
     54  CG        37.0490   -4.7210    9.5780 C.ar  223  TYR223     -0.0201
     55  CD1       37.1160   -6.0430   10.0240 C.ar  223  TYR223     -0.0009
     56  CD2       38.1530   -3.9070    9.7880 C.ar  223  TYR223     -0.0009
     57  CE1       38.2240   -6.5370   10.6630 C.ar  223  TYR223      0.0417
     58  CE2       39.2730   -4.3790   10.4340 C.ar  223  TYR223      0.0417
     59  CZ        39.2910   -5.7040   10.8600 C.ar  223  TYR223      0.1957
     60  OH        40.3780   -6.1600   11.5210 O.3   223  TYR223     -0.2866
     61  N         33.3270   -8.0630    5.6300 N.3   226  GLU226     -0.1245
     62  CA        33.3060   -9.1470    6.6040 C.3   226  GLU226      0.1567
     63  C         31.9180   -9.6810    6.8340 C.2   226  GLU226      0.2260
     64  O         30.9530   -8.9120    6.9420 O.2   226  GLU226     -0.2867
     65  CB        33.9500   -8.7150    7.9030 C.3   226  GLU226      0.0388
     66  CG        33.8720   -9.7490    9.0190 C.3   226  GLU226      0.1160
     67  CD        34.5740   -9.2660   10.2910 C.2   226  GLU226      0.3649
     68  OE1       33.9350   -9.1510   11.3590 O.co2 226  GLU226     -0.2457
     69  OE2       35.7770   -8.9870   10.2440 O.co2 226  GLU226     -0.2457
     70  N         29.9700  -11.3900    9.5450 N.3   228  SER228     -0.1217
     71  CA        30.0180  -11.7050   10.9880 C.3   228  SER228      0.1889
     72  C         28.9100  -10.9650   11.6880 C.2   228  SER228      0.2288
     73  O         28.2380  -10.1460   11.0930 O.2   228  SER228     -0.2866
     74  CB        31.3980  -11.2950   11.6170 C.3   228  SER228      0.2089
     75  OG        31.5240   -9.8730   11.7890 O.3   228  SER228     -0.2183
     76  N         29.2410   -8.6780   13.9480 N.3   230  GLU230     -0.1231
     77  CA        29.6100   -7.3060   14.2190 C.3   230  GLU230      0.1699
     78  C         29.4670   -6.4020   12.9970 C.2   230  GLU230      0.2592
     79  O         29.3310   -5.1750   13.1280 O.2   230  GLU230     -0.2718
     80  CB        31.0480   -7.2520   14.7000 C.3   230  GLU230      0.0402
     81  CG        31.2210   -7.9060   16.0700 C.3   230  GLU230      0.1161
     82  CD        32.6640   -7.9980   16.5150 C.2   230  GLU230      0.3649
     83  OE1       32.9010   -8.9000   17.3260 O.co2 230  GLU230     -0.2457
     84  OE2       33.5390   -7.1920   16.0770 O.co2 230  GLU230     -0.2457
     85  N         29.5550   -6.9830   11.8150 N.am  231  GLU231     -0.1979
     86  CA        29.5700   -6.1820   10.5940 C.3   231  GLU231      0.1602
     87  C         28.3480   -6.4120    9.7380 C.2   231  GLU231      0.2287
     88  O         27.6290   -7.3320    9.9630 O.2   231  GLU231     -0.2864
     89  CB        30.8220   -6.4840    9.7610 C.3   231  GLU231      0.0415
     90  CG        32.1390   -6.3040   10.4920 C.3   231  GLU231      0.1163
     91  CD        32.3670   -4.8860   11.0100 C.2   231  GLU231      0.3649
     92  OE1       31.9890   -3.8710   10.3340 O.co2 231  GLU231     -0.2457
     93  OE2       32.9520   -4.8140   12.1260 O.co2 231  GLU231     -0.2457
     94  N         43.1830  -12.0410    5.8740 N.3   259  VAL259     -0.1231
     95  CA        43.1710  -11.4100    7.1800 C.3   259  VAL259      0.1692
     96  C         42.3090  -12.2230    8.1280 C.2   259  VAL259      0.2591
     97  O         42.6550  -12.4030    9.2950 O.2   259  VAL259     -0.2718
     98  CB        42.7460   -9.9200    7.1030 C.3   259  VAL259      0.0266
     99  CG1       42.5080   -9.3460    8.4590 C.3   259  VAL259      0.0020
    100  CG2       43.8200   -9.1140    6.4080 C.3   259  VAL259      0.0020
    101  N         41.1880  -12.7180    7.6360 N.am  260  GLU260     -0.1979
    102  CA        40.2840  -13.4890    8.4640 C.3   260  GLU260      0.1602
    103  C         40.9520  -14.7990    8.8680 C.2   260  GLU260      0.2287
    104  O         40.8220  -15.2420    9.9990 O.2   260  GLU260     -0.2864
    105  CB        38.9520  -13.7520    7.7430 C.3   260  GLU260      0.0415
    106  CG        37.8820  -14.4080    8.5840 C.3   260  GLU260      0.1163
    107  CD        37.4900  -13.5940    9.8340 C.2   260  GLU260      0.3649
    108  OE1       37.7210  -14.1760   10.9590 O.co2 260  GLU260     -0.2457
    109  OE2       36.9770  -12.4240    9.6680 O.co2 260  GLU260     -0.2457
    110  N         43.2550  -14.2870   11.8630 N.3   263  TYR263     -0.1241
    111  CA        42.6940  -13.8490   13.1490 C.3   263  TYR263      0.1605
    112  C         43.0320  -14.6840   14.4200 C.2   263  TYR263      0.2264
    113  O         43.4610  -14.1410   15.4190 O.2   263  TYR263     -0.2867
    114  CB        41.1990  -13.6320   13.0160 C.3   263  TYR263      0.0534
    115  CG        40.5010  -13.2140   14.2690 C.ar  263  TYR263     -0.0201
    116  CD1       40.6950  -11.9400   14.8050 C.ar  263  TYR263     -0.0009
    117  CD2       39.5940  -14.0820   14.9190 C.ar  263  TYR263     -0.0009
    118  CE1       40.0290  -11.5640   15.9660 C.ar  263  TYR263      0.0417
    119  CE2       38.9350  -13.6930   16.0700 C.ar  263  TYR263      0.0417
    120  CZ        39.1720  -12.4510   16.5860 C.ar  263  TYR263      0.1957
    121  OH        38.5450  -12.0660   17.7110 O.3   263  TYR263     -0.2866
    122  N         46.6780  -14.1490   15.1690 N.3   266  GLU266     -0.1245
    123  CA        46.8520  -12.8210   15.7080 C.3   266  GLU266      0.1567
    124  C         46.4840  -12.7950   17.1930 C.2   266  GLU266      0.2260
    125  O         47.1180  -12.1120   17.9820 O.2   266  GLU266     -0.2867
    126  CB        45.9780  -11.8230   14.9400 C.3   266  GLU266      0.0388
    127  CG        46.2800  -10.3660   15.2660 C.3   266  GLU266      0.1160
    128  CD        45.6930   -9.3580   14.3200 C.2   266  GLU266      0.3649
    129  OE1       44.5110   -9.5620   13.9180 O.co2 266  GLU266     -0.2457
    130  OE2       46.4400   -8.3570   14.0240 O.co2 266  GLU266     -0.2457
    131  N         37.4200  -23.8190   13.7620 N.3   290  ARG290     -0.1245
    132  CA        37.5150  -23.6870   12.3080 C.3   290  ARG290      0.1563
    133  C         37.8830  -25.0130   11.6220 C.2   290  ARG290      0.2260
    134  O         37.3900  -25.3360   10.5860 O.2   290  ARG290     -0.2867
    135  CB        38.4720  -22.5780   11.9530 C.3   290  ARG290      0.0307
    136  CG        37.9480  -21.1710   12.1190 C.3   290  ARG290      0.0489
    137  CD        39.1060  -20.2080   12.3250 C.3   290  ARG290      0.2205
    138  NE        38.5740  -18.8960   12.5350 N.pl3 290  ARG290     -0.0865
    139  CZ        38.7920  -17.8260   11.7570 C.cat 290  ARG290      0.5346
    140  NH1       39.5510  -17.9020   10.6640 N.pl3 290  ARG290      0.1354
    141  NH2       38.2840  -16.6450   12.1010 N.pl3 290  ARG290      0.1354
@<TRIPOS>BOND
     1    61    62    1
     2    94    95    1
     3   100    98    1
     4    62    63    1
     5    62    65    1
     6    49    50    1
     7    63    64    2
     8    51    52    2
     9    51    50    1
    10    98    95    1
    11    98    99    1
    12    95    96    1
    13    50    53    1
    14   101    96   am
    15   101   102    1
    16   105   102    1
    17   105   106    1
    18    65    66    1
    19    96    97    2
    20   102   103    1
    21   106   107    1
    22    53    54    1
    23   103   104    2
    24    66    67    1
    25    70    71    1
    26    54    56   ar
    27    54    55   ar
    28   109   107   ar
    29    87    88    2
    30    87    86    1
    31    89    90    1
    32    89    86    1
    33    56    58   ar
    34   107   108   ar
    35    55    57   ar
    36     1     2    1
    37    69    67   ar
    38    67    68   ar
    39    92    91   ar
    40    58    59   ar
    41    90    91    1
    42   134   133    2
    43     9    10    1
    44    86    85    1
    45    57    59   ar
    46   140   139    1
    47    59    60    1
    48     3     2    1
    49     3     4    2
    50    10    11    1
    51    10    13    1
    52    71    74    1
    53    71    72    1
    54    44    43    2
    55    91    93   ar
    56    73    72    2
    57     2     5    1
    58    11    12    2
    59    74    75    1
    60   133   132    1
    61   139   141    1
    62   139   138    2
    63    85    78   am
    64    43    42    1
    65   110   111    1
    66   135   136    1
    67   135   132    1
    68    13    14    1
    69   136   137    1
    70   132   131    1
    71   137   138    1
    72     5     6    1
    73    78    79    2
    74    78    77    1
    75    45    42    1
    76    45    46    1
    77   114   111    1
    78   114   115    1
    79   111   112    1
    80    42    41    1
    81    26    25    2
    82     7     6   ar
    83    25    24    1
    84     6     8   ar
    85    27    24    1
    86    27    28    1
    87    36    35    2
    88   129   128   ar
    89    76    77    1
    90   130   128   ar
    91    15    16    1
    92    77    80    1
    93   115   116   ar
    94   115   117   ar
    95    48    46   ar
    96   128   127    1
    97    24    23    1
    98    46    47   ar
    99    29    28   ar
   100    29    31   ar
   101   112   113    2
   102    23    17   am
   103    35    34    1
   104    80    81    1
   105    28    30   ar
   106   116   118   ar
   107   117   119   ar
   108   126   127    1
   109   126   123    1
   110   122   123    1
   111    21    20    2
   112    31    32   ar
   113    16    17    1
   114    16    19    1
   115    17    18    2
   116    33    34    1
   117   123   124    1
   118    34    37    1
   119   118   120   ar
   120   119   120   ar
   121    81    82    1
   122    84    82   ar
   123    30    32   ar
   124    20    19    1
   125    20    22   am
   126    37    38    1
   127    82    83   ar
   128   120   121    1
   129    38    39   ar
   130    38    40   ar
   131   124   125    2
