@<TRIPOS>MOLECULE
tmp/6caxA00.pdb
 210 201 0 0 0
SMALL
GASTEIGER

@<TRIPOS>ATOM
      1  N         -5.9820   14.0400    4.1710 N.3    19  LEU19      -0.1231
      2  CA        -5.9100   13.9830    5.6270 C.3    19  LEU19       0.1693
      3  C         -4.9600   15.0360    6.1580 C.2    19  LEU19       0.2592
      4  O         -5.2820   15.7710    7.0980 O.2    19  LEU19      -0.2718
      5  CB        -5.3940   12.6130    6.0510 C.3    19  LEU19       0.0284
      6  CG        -5.0120   12.4670    7.5270 C.3    19  LEU19       0.0019
      7  CD1       -6.2040   12.7050    8.4320 C.3    19  LEU19       0.0001
      8  CD2       -4.3990   11.0880    7.7790 C.3    19  LEU19       0.0001
      9  N         -3.7600   15.0940    5.5920 N.am   20  HIS20      -0.1976
     10  CA        -2.7420   15.9680    6.1540 C.3    20  HIS20       0.1656
     11  C         -2.8140   17.3930    5.6220 C.2    20  HIS20       0.2291
     12  O         -2.6420   18.3470    6.3910 O.2    20  HIS20      -0.2864
     13  CB        -1.3580   15.3430    5.9710 C.3    20  HIS20       0.0771
     14  CG        -1.1550   14.1360    6.8200 C.ar   20  HIS20       0.0820
     15  ND1       -1.3540   14.1600    8.1830 N.ar   20  HIS20      -0.2267
     16  CD2       -0.8150   12.8630    6.5090 C.ar   20  HIS20       0.1154
     17  CE1       -1.1280   12.9580    8.6780 C.ar   20  HIS20       0.1986
     18  NE2       -0.8000   12.1520    7.6850 N.ar   20  HIS20      -0.2212
     19  N          4.3430   10.1630    8.9780 N.3    63  MET63      -0.1245
     20  CA         2.8980   10.2710    9.1220 C.3    63  MET63       0.1570
     21  C          2.1180    9.7410    7.9280 C.2    63  MET63       0.2261
     22  O          0.8840    9.7030    7.9890 O.2    63  MET63      -0.2867
     23  CB         2.4190   11.6570    9.5800 C.3    63  MET63       0.0387
     24  CG         2.9400   12.0510   10.9730 C.3    63  MET63       0.0595
     25  SD         2.2730   11.0220   12.3060 S.3    63  MET63      -0.1393
     26  CE         3.5300    9.7560   12.5090 C.3    63  MET63       0.0692
     27  N          0.3370   10.2060    1.0820 N.3    76  THR76      -0.1218
     28  CA        -0.6680    9.3320    1.6790 C.3    76  THR76       0.1862
     29  C         -1.2330    8.3450    0.6590 C.2    76  THR76       0.2287
     30  O         -2.4390    8.2530    0.4290 O.2    76  THR76      -0.2866
     31  CB        -1.7640   10.1370    2.3830 C.3    76  THR76       0.1770
     32  OG1       -1.1520   11.2140    3.1000 O.3    76  THR76      -0.2211
     33  CG2       -2.4820    9.2610    3.3850 C.3    76  THR76       0.0375
     34  N         -0.9580    5.0200    0.9780 N.3    78  GLU78      -0.1231
     35  CA        -1.0080    3.6720    1.5400 C.3    78  GLU78       0.1699
     36  C         -2.4120    3.0740    1.5460 C.2    78  GLU78       0.2592
     37  O         -2.5510    1.8620    1.3680 O.2    78  GLU78      -0.2718
     38  CB        -0.4140    3.6450    2.9480 C.3    78  GLU78       0.0402
     39  CG        -1.0350    4.6470    3.9190 C.3    78  GLU78       0.1161
     40  CD        -0.2800    5.9730    4.0050 C.2    78  GLU78       0.3649
     41  OE1        0.3900    6.3900    3.0170 O.co2  78  GLU78      -0.2457
     42  OE2       -0.3520    6.5940    5.0940 O.co2  78  GLU78      -0.2457
     43  N         -3.4550    3.8700    1.8160 N.am   79  HIS79      -0.1976
     44  CA        -4.7890    3.2700    1.9320 C.3    79  HIS79       0.1656
     45  C         -5.3440    2.9030    0.5660 C.2    79  HIS79       0.2291
     46  O         -5.9730    1.8490    0.4120 O.2    79  HIS79      -0.2864
     47  CB        -5.7550    4.1860    2.6850 C.3    79  HIS79       0.0771
     48  CG        -5.2660    4.5980    4.0350 C.ar   79  HIS79       0.0820
     49  ND1       -5.8150    5.6490    4.7370 N.ar   79  HIS79      -0.2267
     50  CD2       -4.3070    4.0760    4.8350 C.ar   79  HIS79       0.1154
     51  CE1       -5.1740    5.7920    5.8860 C.ar   79  HIS79       0.1986
     52  NE2       -4.2370    4.8640    5.9590 N.ar   79  HIS79      -0.2212
     53  N          0.9660    0.5320   22.5100 N.3   161  PHE161     -0.1241
     54  CA         0.7240    1.9210   22.8760 C.3   161  PHE161      0.1605
     55  C          0.5880    2.0200   24.3850 C.2   161  PHE161      0.2264
     56  O         -0.2530    1.3420   24.9880 O.2   161  PHE161     -0.2867
     57  CB        -0.5490    2.4580   22.2120 C.3   161  PHE161      0.0534
     58  CG        -0.3540    2.8920   20.7870 C.ar  161  PHE161     -0.0203
     59  CD1       -0.4900    1.9860   19.7510 C.ar  161  PHE161     -0.0042
     60  CD2       -0.0220    4.2040   20.4800 C.ar  161  PHE161     -0.0042
     61  CE1       -0.2930    2.3800   18.4270 C.ar  161  PHE161     -0.0003
     62  CE2        0.1690    4.6000   19.1560 C.ar  161  PHE161     -0.0003
     63  CZ         0.0320    3.6850   18.1320 C.ar  161  PHE161     -0.0000
     64  N         -7.8920    4.6560    9.9240 N.3   191  THR191     -0.1203
     65  CA        -6.7550    5.3010   10.5440 C.3   191  THR191      0.1994
     66  C         -7.1680    5.9330   11.8730 C.2   191  THR191      0.2618
     67  O         -8.3480    6.0990   12.1890 O.2   191  THR191     -0.2717
     68  CB        -6.1640    6.3340    9.5900 C.3   191  THR191      0.1784
     69  OG1       -4.8840    6.7560   10.0810 O.3   191  THR191     -0.2211
     70  CG2       -7.0610    7.5400    9.4510 C.3   191  THR191      0.0376
     71  N         -6.1650    6.2780   12.6670 N.am  192  PHE192     -0.1961
     72  CA        -6.4110    6.7730   14.0100 C.3   192  PHE192      0.1771
     73  C         -5.3200    7.7500   14.4010 C.2   192  PHE192      0.2620
     74  O         -4.1930    7.6890   13.9010 O.2   192  PHE192     -0.2715
     75  CB        -6.5350    5.6360   15.0350 C.3   192  PHE192      0.0574
     76  CG        -5.3130    4.7600   15.1670 C.ar  192  PHE192     -0.0200
     77  CD1       -5.1590    3.6190   14.3840 C.ar  192  PHE192     -0.0042
     78  CD2       -4.3480    5.0420   16.1140 C.ar  192  PHE192     -0.0042
     79  CE1       -4.0490    2.8010   14.5340 C.ar  192  PHE192     -0.0003
     80  CE2       -3.2310    4.2270   16.2650 C.ar  192  PHE192     -0.0003
     81  CZ        -3.0810    3.1050   15.4700 C.ar  192  PHE192     -0.0000
     82  N         -5.6850    8.6600   15.2930 N.am  193  GLY193     -0.1940
     83  CA        -4.7520    9.6150   15.8560 C.3   193  GLY193      0.2014
     84  C         -5.3010   10.1160   17.1730 C.2   193  GLY193      0.2639
     85  O         -6.3520    9.6710   17.6430 O.2   193  GLY193     -0.2714
     86  N         -4.5860   11.0710   17.7580 N.am  194  PHE194     -0.1959
     87  CA        -4.8090   11.4700   19.1390 C.3   194  PHE194      0.1771
     88  C         -5.1850   12.9380   19.2420 C.2   194  PHE194      0.2619
     89  O         -4.4740   13.8100   18.7210 O.2   194  PHE194     -0.2715
     90  CB        -3.5840   11.1340   19.9940 C.3   194  PHE194      0.0574
     91  CG        -3.3260    9.6590   20.0710 C.ar  194  PHE194     -0.0200
     92  CD1       -2.5910    9.0220   19.0880 C.ar  194  PHE194     -0.0042
     93  CD2       -3.8790    8.8970   21.0850 C.ar  194  PHE194     -0.0042
     94  CE1       -2.3870    7.6420   19.1370 C.ar  194  PHE194     -0.0003
     95  CE2       -3.6830    7.5260   21.1450 C.ar  194  PHE194     -0.0003
     96  CZ        -2.9320    6.8990   20.1790 C.ar  194  PHE194     -0.0000
     97  N         -6.2910   13.1990   19.9510 N.am  195  MET195     -0.1977
     98  CA        -6.7240   14.5650   20.2410 C.3   195  MET195      0.1605
     99  C         -5.6070   15.3900   20.8660 C.2   195  MET195      0.2287
    100  O         -5.4390   16.5710   20.5380 O.2   195  MET195     -0.2864
    101  CB        -7.9440   14.5180   21.1640 C.3   195  MET195      0.0413
    102  CG        -8.3730   15.8560   21.7480 C.3   195  MET195      0.0598
    103  SD        -8.8960   17.0760   20.5280 S.3   195  MET195     -0.1393
    104  CE       -10.6210   16.6730   20.3270 C.3   195  MET195      0.0692
    105  N         -3.4580   17.2040   18.1560 N.3   198  ILE198     -0.1245
    106  CA        -4.0200   17.8280   16.9550 C.3   198  ILE198      0.1561
    107  C         -3.4960   19.2480   16.7470 C.2   198  ILE198      0.2260
    108  O         -3.1900   19.6430   15.6130 O.2   198  ILE198     -0.2867
    109  CB        -5.5560   17.7390   16.8940 C.3   198  ILE198      0.0252
    110  CG1       -6.0450   18.1500   15.4990 C.3   198  ILE198      0.0019
    111  CG2       -6.2020   18.5960   17.9650 C.3   198  ILE198      0.0019
    112  CD1       -5.4510   17.3210   14.3600 C.3   198  ILE198      0.0001
    113  N          0.0990   18.7930   15.4400 N.3   201  LEU201     -0.1231
    114  CA         0.0830   18.3160   14.0620 C.3   201  LEU201      0.1693
    115  C         -0.2720   19.4440   13.1100 C.2   201  LEU201      0.2591
    116  O          0.4180   19.6700   12.1100 O.2   201  LEU201     -0.2718
    117  CB        -0.9100   17.1550   13.9160 C.3   201  LEU201      0.0284
    118  CG        -0.5100   15.8470   14.6040 C.3   201  LEU201      0.0019
    119  CD1       -1.6730   14.8680   14.6490 C.3   201  LEU201      0.0001
    120  CD2        0.6840   15.2340   13.8890 C.3   201  LEU201      0.0001
    121  N         -1.3350   20.1820   13.4160 N.am  202  ARG202     -0.1980
    122  CA        -1.7600   21.2280   12.4970 C.3   202  ARG202      0.1597
    123  C         -0.7300   22.3460   12.3930 C.2   202  ARG202      0.2287
    124  O         -0.5560   22.9260   11.3120 O.2   202  ARG202     -0.2864
    125  CB        -3.1600   21.7150   12.8610 C.3   202  ARG202      0.0334
    126  CG        -4.2110   20.6540   12.5460 C.3   202  ARG202      0.0492
    127  CD        -5.6210   21.0810   12.8820 C.3   202  ARG202      0.2205
    128  NE        -6.5890   20.0970   12.4010 N.pl3 202  ARG202     -0.0865
    129  CZ        -7.8180   19.9600   12.8870 C.cat 202  ARG202      0.5346
    130  NH1       -8.2340   20.7380   13.8780 N.pl3 202  ARG202      0.1354
    131  NH2       -8.6300   19.0390   12.3890 N.pl3 202  ARG202      0.1354
    132  N         -2.4680   16.5290    9.5280 N.3   207  ALA207     -0.1245
    133  CA        -3.8380   16.3070   10.0010 C.3   207  ALA207      0.1562
    134  C         -4.7380   17.5270    9.7980 C.2   207  ALA207      0.2260
    135  O         -5.7210   17.7040   10.5230 O.2   207  ALA207     -0.2867
    136  CB        -3.8730   15.8060   11.4510 C.3   207  ALA207      0.0290
    137  N         -8.0720   16.2770    9.2010 N.3   210  GLY210     -0.1210
    138  CA        -8.4910   15.1740   10.0670 C.3   210  GLY210      0.1956
    139  C         -9.6580   15.5430   10.9730 C.2   210  GLY210      0.2613
    140  O         -9.7660   16.6650   11.4700 O.2   210  GLY210     -0.2717
    141  N        -10.5480   14.5760   11.1760 N.am  211  SER211     -0.1938
    142  CA       -11.6970   14.7500   12.0590 C.3   211  SER211      0.2055
    143  C        -12.2590   13.3700   12.3590 C.2   211  SER211      0.2642
    144  O        -11.8090   12.3670   11.8040 O.2   211  SER211     -0.2714
    145  CB       -12.7780   15.6150   11.4050 C.3   211  SER211      0.2130
    146  OG       -13.4390   14.8790   10.3950 O.3   211  SER211     -0.2179
    147  N        -13.2780   13.3210   13.2160 N.am  212  VAL212     -0.1977
    148  CA       -13.9670   12.0540   13.4280 C.3   212  VAL212      0.1596
    149  C        -14.6350   11.5310   12.1710 C.2   212  VAL212      0.2287
    150  O        -15.0120   10.3550   12.1270 O.2   212  VAL212     -0.2864
    151  CB       -15.0000   12.1400   14.5720 C.3   212  VAL212      0.0276
    152  CG1      -14.3060   12.3950   15.9000 C.3   212  VAL212      0.0022
    153  CG2      -16.0540   13.2120   14.2760 C.3   212  VAL212      0.0022
    154  N        -11.2630    9.5400   10.7510 N.3   215  ALA215     -0.1245
    155  CA       -10.2800    8.8940   11.6080 C.3   215  ALA215      0.1562
    156  C        -10.9590    8.5330   12.9160 C.2   215  ALA215      0.2260
    157  O        -11.9280    9.1770   13.3260 O.2   215  ALA215     -0.2867
    158  CB        -9.1190    9.8420   11.9250 C.3   215  ALA215      0.0290
    159  N        -10.5400    9.1800   16.4720 N.3   217  VAL217     -0.1245
    160  CA        -9.8400   10.2020   17.2430 C.3   217  VAL217      0.1561
    161  C         -9.8580    9.7760   18.7000 C.2   217  VAL217      0.2260
    162  O        -10.9270    9.6500   19.3080 O.2   217  VAL217     -0.2867
    163  CB       -10.4730   11.5860   17.0430 C.3   217  VAL217      0.0252
    164  CG1       -9.7180   12.6390   17.8460 C.3   217  VAL217      0.0019
    165  CG2      -10.5170   11.9400   15.5550 C.3   217  VAL217      0.0019
    166  N        -13.3390    9.3020   20.7850 N.3   224  LEU224     -0.1245
    167  CA       -14.2770   10.4110   20.6330 C.3   224  LEU224      0.1561
    168  C        -15.4070   10.1110   19.6580 C.2   224  LEU224      0.2260
    169  O        -16.4900   10.7050   19.7790 O.2   224  LEU224     -0.2867
    170  CB       -13.5390   11.6730   20.1990 C.3   224  LEU224      0.0270
    171  CG       -12.5920   12.2400   21.2470 C.3   224  LEU224      0.0019
    172  CD1      -11.9950   13.5270   20.7310 C.3   224  LEU224      0.0001
    173  CD2      -13.3310   12.4710   22.5610 C.3   224  LEU224      0.0001
    174  N         -5.9090   -1.6770   11.2910 N.3   238  HIS238     -0.1226
    175  CA        -5.5000   -0.6060   10.3930 C.3   238  HIS238      0.1752
    176  C         -4.0060   -0.6690   10.0920 C.2   238  HIS238      0.2595
    177  O         -3.5800   -0.3720    8.9670 O.2   238  HIS238     -0.2718
    178  CB        -5.8620    0.7730   10.9370 C.3   238  HIS238      0.0759
    179  CG        -5.5330    1.8430    9.9580 C.ar  238  HIS238      0.0818
    180  ND1       -6.3390    2.1130    8.8750 N.ar  238  HIS238     -0.2268
    181  CD2       -4.4130    2.5820    9.7890 C.ar  238  HIS238      0.1154
    182  CE1       -5.7570    3.0210    8.1120 C.ar  238  HIS238      0.1986
    183  NE2       -4.5850    3.3230    8.6440 N.ar  238  HIS238     -0.2212
    184  N         -3.1950   -1.0500   11.0800 N.am  239  LYS239     -0.1980
    185  CA        -1.7630   -1.1960   10.8250 C.3   239  LYS239      0.1596
    186  C         -1.4980   -2.2920    9.7970 C.2   239  LYS239      0.2287
    187  O         -0.5710   -2.1810    8.9820 O.2   239  LYS239     -0.2864
    188  CB        -1.0120   -1.4740   12.1270 C.3   239  LYS239      0.0298
    189  CG        -1.1210   -0.3570   13.1620 C.3   239  LYS239      0.0038
    190  CD        -0.4080    0.9150   12.7160 C.3   239  LYS239      0.0206
    191  CE         1.1110    0.7830   12.7330 C.3   239  LYS239      0.1093
    192  NZ         1.7740    2.0960   12.4590 N.3   239  LYS239     -0.1314
    193  N         -2.3150   -0.7410    6.4500 N.3   242  ASP242     -0.1239
    194  CA        -1.1810    0.0990    6.0610 C.3   242  ASP242      0.1674
    195  C         -0.0440   -0.7520    5.5090 C.2   242  ASP242      0.2266
    196  O          0.5780   -0.4080    4.4930 O.2   242  ASP242     -0.2867
    197  CB        -0.6560    0.8860    7.2760 C.3   242  ASP242      0.1410
    198  CG        -1.4370    2.1590    7.5740 C.2   242  ASP242      0.3668
    199  OD1       -2.1880    2.6410    6.7100 O.co2 242  ASP242     -0.2456
    200  OD2       -1.2650    2.6940    8.6920 O.co2 242  ASP242     -0.2456
    201  N          5.5180    3.2670    8.3390 N.3   265  HIS265     -0.1241
    202  CA         5.8180    3.4230    6.9200 C.3   265  HIS265      0.1621
    203  C          7.3140    3.4380    6.6500 C.2   265  HIS265      0.2264
    204  O          7.7690    2.8760    5.6500 O.2   265  HIS265     -0.2867
    205  CB         5.1760    4.6870    6.3870 C.3   265  HIS265      0.0745
    206  CG         3.7120    4.7640    6.6570 C.ar  265  HIS265      0.0817
    207  ND1        2.8180    3.8200    6.1910 N.ar  265  HIS265     -0.2268
    208  CD2        2.9850    5.6680    7.3460 C.ar  265  HIS265      0.1154
    209  CE1        1.6010    4.1450    6.5870 C.ar  265  HIS265      0.1986
    210  NE2        1.6750    5.2610    7.2890 N.ar  265  HIS265     -0.2212
@<TRIPOS>BOND
     1    46    45    2
     2    30    29    2
     3    45    44    1
     4    29    28    1
     5    34    35    1
     6    27    28    1
     7    37    36    2
     8    35    36    1
     9    35    38    1
    10    36    43   am
    11    28    31    1
    12    43    44    1
    13    44    47    1
    14    31    32    1
    15    31    33    1
    16    47    48    1
    17    38    39    1
    18    41    40   ar
    19    39    40    1
    20    40    42   ar
    21    48    49   ar
    22    48    50   ar
    23     1     2    1
    24   196   195    2
    25    49    51   ar
    26    50    52   ar
    27   195   194    1
    28     9    10    1
    29     9     3   am
    30    11    10    1
    31    11    12    2
    32     2     5    1
    33     2     3    1
    34   204   203    2
    35    51    52   ar
    36    13    10    1
    37    13    14    1
    38     5     6    1
    39   194   193    1
    40   194   197    1
    41     3     4    2
    42   207   209   ar
    43   207   206   ar
    44   205   206    1
    45   205   202    1
    46    16    14   ar
    47    16    18   ar
    48   209   210   ar
    49   203   202    1
    50   206   208   ar
    51   199   198   ar
    52    14    15   ar
    53   202   201    1
    54   197   198    1
    55   210   208   ar
    56     6     8    1
    57     6     7    1
    58   198   200   ar
    59    18    17   ar
    60    21    22    2
    61    21    20    1
    62   182   183   ar
    63   182   180   ar
    64    15    17   ar
    65   183   181   ar
    66   180   179   ar
    67   177   176    2
    68    19    20    1
    69   187   186    2
    70    20    23    1
    71   137   138    1
    72    70    68    1
    73   132   133    1
    74    23    24    1
    75    68    69    1
    76    68    65    1
    77   181   179   ar
    78   186   185    1
    79   134   133    1
    80   134   135    2
    81    64    65    1
    82   179   178    1
    83   133   136    1
    84   138   139    1
    85   176   175    1
    86   176   184   am
    87   175   178    1
    88   175   174    1
    89   146   145    1
    90    65    66    1
    91   154   155    1
    92   185   184    1
    93   185   188    1
    94   139   141   am
    95   139   140    2
    96    24    25    1
    97   141   142    1
    98   124   123    2
    99   145   142    1
   100   155   158    1
   101   155   156    1
   102   144   143    2
   103    66    67    2
   104    66    71   am
   105   142   143    1
   106   116   115    2
   107   188   189    1
   108   150   149    2
   109   149   148    1
   110    25    26    1
   111   143   147   am
   112   131   129    1
   113   123   122    1
   114   128   127    1
   115   128   129    2
   116   192   191    1
   117   122   125    1
   118   122   121    1
   119   126   125    1
   120   126   127    1
   121    71    72    1
   122   190   191    1
   123   190   189    1
   124   129   130    1
   125   156   157    2
   126   115   121   am
   127   115   114    1
   128   147   148    1
   129   148   151    1
   130   120   118    1
   131    74    73    2
   132   117   114    1
   133   117   118    1
   134    72    73    1
   135    72    75    1
   136   114   113    1
   137   153   151    1
   138   112   110    1
   139    77    79   ar
   140    77    76   ar
   141    73    82   am
   142    79    81   ar
   143   151   152    1
   144   118   119    1
   145    75    76    1
   146    76    78   ar
   147    82    83    1
   148    81    80   ar
   149   110   109    1
   150   165   163    1
   151   108   107    2
   152    83    84    1
   153    78    80   ar
   154   159   160    1
   155   107   106    1
   156   109   106    1
   157   109   111    1
   158   106   105    1
   159   163   160    1
   160   163   164    1
   161    84    85    2
   162    84    86   am
   163   160   161    1
   164    86    87    1
   165    63    61   ar
   166    63    62   ar
   167    61    59   ar
   168   161   162    2
   169    89    88    2
   170    92    94   ar
   171    92    91   ar
   172    94    96   ar
   173    87    88    1
   174    87    90    1
   175    62    60   ar
   176    88    97   am
   177   168   169    2
   178   168   167    1
   179    59    58   ar
   180    97    98    1
   181    90    91    1
   182    91    93   ar
   183    96    95   ar
   184   170   167    1
   185   170   171    1
   186    98    99    1
   187    98   101    1
   188   104   103    1
   189    60    58   ar
   190   103   102    1
   191   100    99    2
   192   167   166    1
   193   172   171    1
   194    58    57    1
   195    93    95   ar
   196   101   102    1
   197   171   173    1
   198    57    54    1
   199    53    54    1
   200    54    55    1
   201    55    56    2
