@<TRIPOS>MOLECULE
tmp/6caxA01.pdb
 167 165 0 0 0
SMALL
GASTEIGER

@<TRIPOS>ATOM
      1  N         -4.0890   -3.5490   -3.7780 N.3    85  ALA85      -0.1231
      2  CA        -3.4460   -4.8230   -3.4790 C.3    85  ALA85       0.1694
      3  C         -4.4760   -5.8640   -3.0700 C.2    85  ALA85       0.2592
      4  O         -4.4390   -7.0110   -3.5340 O.2    85  ALA85      -0.2718
      5  CB        -2.4240   -4.6230   -2.3590 C.3    85  ALA85       0.0304
      6  N         -5.4090   -5.4790   -2.1900 N.am   86  GLY86      -0.1957
      7  CA        -6.4010   -6.4200   -1.6950 C.3    86  GLY86       0.1869
      8  C         -7.3060   -6.9610   -2.7790 C.2    86  GLY86       0.2309
      9  O         -7.8150   -8.0770   -2.6590 O.2    86  GLY86      -0.2863
     10  N         -0.5040  -15.7250    1.3740 N.3   153  PHE153     -0.1241
     11  CA        -0.2110  -14.3640    1.8050 C.3   153  PHE153      0.1605
     12  C         -0.7950  -14.1550    3.1910 C.2   153  PHE153      0.2264
     13  O         -1.9920  -14.3790    3.4130 O.2   153  PHE153     -0.2867
     14  CB        -0.7410  -13.3230    0.8160 C.3   153  PHE153      0.0534
     15  CG        -0.4110  -11.9070    1.2080 C.ar  153  PHE153     -0.0203
     16  CD1        0.9060  -11.5160    1.3920 C.ar  153  PHE153     -0.0042
     17  CD2       -1.4070  -10.9730    1.4180 C.ar  153  PHE153     -0.0042
     18  CE1        1.2210  -10.2090    1.7610 C.ar  153  PHE153     -0.0003
     19  CE2       -1.0980   -9.6670    1.7850 C.ar  153  PHE153     -0.0003
     20  CZ         0.2140   -9.2900    1.9580 C.ar  153  PHE153     -0.0000
     21  N         -4.8130  -14.7790    4.3180 N.3   177  PHE177     -0.1227
     22  CA        -5.8170  -14.4970    3.3010 C.3   177  PHE177      0.1736
     23  C         -6.3190  -15.7340    2.5650 C.2   177  PHE177      0.2596
     24  O         -7.1480  -15.6010    1.6600 O.2   177  PHE177     -0.2718
     25  CB        -5.3370  -13.3840    2.3690 C.3   177  PHE177      0.0547
     26  CG        -5.2380  -12.0710    3.0600 C.ar  177  PHE177     -0.0202
     27  CD1       -6.3920  -11.3480    3.3430 C.ar  177  PHE177     -0.0042
     28  CD2       -4.0170  -11.5830    3.5020 C.ar  177  PHE177     -0.0042
     29  CE1       -6.3300  -10.1530    4.0010 C.ar  177  PHE177     -0.0003
     30  CE2       -3.9490  -10.3840    4.1690 C.ar  177  PHE177     -0.0003
     31  CZ        -5.1130   -9.6610    4.4220 C.ar  177  PHE177     -0.0000
     32  N         -5.8660  -16.9310    2.9330 N.am  178  SER178     -0.1938
     33  CA        -6.5370  -18.1230    2.4420 C.3   178  SER178      0.2055
     34  C         -7.8490  -18.3570    3.1670 C.2   178  SER178      0.2644
     35  O         -8.7210  -19.0630    2.6450 O.2   178  SER178     -0.2714
     36  CB        -5.6280  -19.3440    2.5940 C.3   178  SER178      0.2130
     37  OG        -5.5180  -19.7260    3.9520 O.3   178  SER178     -0.2179
     38  N         -8.0150  -17.7660    4.3480 N.am  179  SER179     -0.1935
     39  CA        -9.2080  -17.9910    5.1490 C.3   179  SER179      0.2055
     40  C         -9.8980  -16.7180    5.6050 C.2   179  SER179      0.2644
     41  O        -11.0380  -16.8000    6.0770 O.2   179  SER179     -0.2714
     42  CB        -8.8830  -18.8480    6.3820 C.3   179  SER179      0.2130
     43  OG        -7.8560  -18.2500    7.1540 O.3   179  SER179     -0.2179
     44  N         -9.2610  -15.5590    5.4910 N.am  180  THR180     -0.1936
     45  CA        -9.8420  -14.3010    5.9290 C.3   180  THR180      0.2028
     46  C         -9.9980  -13.3670    4.7380 C.2   180  THR180      0.2643
     47  O         -9.1160  -13.2890    3.8770 O.2   180  THR180     -0.2714
     48  CB        -8.9690  -13.6570    7.0010 C.3   180  THR180      0.1808
     49  OG1       -8.7180  -14.6120    8.0420 O.3   180  THR180     -0.2208
     50  CG2       -9.6630  -12.4490    7.6000 C.3   180  THR180      0.0379
     51  N        -11.1320  -12.6700    4.6960 N.am  181  SER181     -0.1935
     52  CA       -11.4630  -11.7610    3.6080 C.3   181  SER181      0.2055
     53  C        -10.8300  -10.3990    3.8590 C.2   181  SER181      0.2643
     54  O        -11.1160   -9.7630    4.8770 O.2   181  SER181     -0.2714
     55  CB       -12.9820  -11.6060    3.5710 C.3   181  SER181      0.2130
     56  OG       -13.3700  -10.5460    2.7040 O.3   181  SER181     -0.2179
     57  N         -9.9920   -9.9340    2.9240 N.am  182  PHE182     -0.1959
     58  CA        -9.5120   -8.5510    2.9790 C.3   182  PHE182      0.1771
     59  C        -10.6790   -7.5750    3.0320 C.2   182  PHE182      0.2619
     60  O        -10.6920   -6.6480    3.8410 O.2   182  PHE182     -0.2715
     61  CB        -8.6370   -8.2290    1.7600 C.3   182  PHE182      0.0574
     62  CG        -8.2200   -6.7850    1.6970 C.ar  182  PHE182     -0.0200
     63  CD1       -7.1260   -6.3480    2.4220 C.ar  182  PHE182     -0.0042
     64  CD2       -8.9170   -5.8620    0.9250 C.ar  182  PHE182     -0.0042
     65  CE1       -6.7270   -5.0130    2.3960 C.ar  182  PHE182     -0.0003
     66  CE2       -8.5280   -4.5210    0.8950 C.ar  182  PHE182     -0.0003
     67  CZ        -7.4290   -4.1020    1.6290 C.ar  182  PHE182     -0.0000
     68  N        -11.6560   -7.7600    2.1540 N.am  183  VAL183     -0.1963
     69  CA       -12.7880   -6.8320    2.0730 C.3   183  VAL183      0.1727
     70  C        -13.5110   -6.7290    3.4050 C.2   183  VAL183      0.2616
     71  O        -13.7680   -5.6290    3.9070 O.2   183  VAL183     -0.2715
     72  CB       -13.7490   -7.2450    0.9500 C.3   183  VAL183      0.0290
     73  CG1      -15.0960   -6.5350    1.1120 C.3   183  VAL183      0.0023
     74  CG2      -13.1260   -6.9270   -0.3950 C.3   183  VAL183      0.0023
     75  N        -13.8510   -7.8680    3.9980 N.am  184  LYS184     -0.1977
     76  CA       -14.7080   -7.8310    5.1760 C.3   184  LYS184      0.1596
     77  C        -13.9360   -7.5530    6.4550 C.2   184  LYS184      0.2287
     78  O        -14.4680   -6.8960    7.3620 O.2   184  LYS184     -0.2864
     79  CB       -15.4850   -9.1380    5.3110 C.3   184  LYS184      0.0298
     80  CG       -16.6400   -9.2690    4.3440 C.3   184  LYS184      0.0038
     81  CD       -17.5650  -10.3900    4.7710 C.3   184  LYS184      0.0206
     82  CE       -16.8070  -11.7000    4.8940 C.3   184  LYS184      0.1093
     83  NZ       -16.2060  -12.0860    3.5930 N.3   184  LYS184     -0.1314
     84  N         -0.1640   -3.7120    4.1190 N.3   244  ILE244     -0.1245
     85  CA        -0.5080   -4.2420    2.8010 C.3   244  ILE244      0.1561
     86  C         -0.2790   -3.1970    1.7170 C.2   244  ILE244      0.2260
     87  O          0.2890   -3.4970    0.6570 O.2   244  ILE244     -0.2867
     88  CB        -1.9500   -4.7720    2.8200 C.3   244  ILE244      0.0252
     89  CG1       -1.9910   -6.0390    3.6820 C.3   244  ILE244      0.0019
     90  CG2       -2.4760   -5.0250    1.4030 C.3   244  ILE244      0.0019
     91  CD1       -3.3980   -6.4930    4.0310 C.3   244  ILE244      0.0001
     92  N          3.4850   -2.6110    1.3270 N.3   247  LEU247     -0.1231
     93  CA         4.1090   -3.7470    0.6520 C.3   247  LEU247      0.1693
     94  C          3.8130   -3.7400   -0.8390 C.2   247  LEU247      0.2592
     95  O          4.6080   -4.2640   -1.6250 O.2   247  LEU247     -0.2718
     96  CB         3.6450   -5.0720    1.2620 C.3   247  LEU247      0.0284
     97  CG         3.9160   -5.3540    2.7440 C.3   247  LEU247      0.0019
     98  CD1        3.6890   -6.8230    3.0920 C.3   247  LEU247      0.0001
     99  CD2        5.2760   -4.8550    3.2040 C.3   247  LEU247      0.0001
    100  N          2.6870   -3.1540   -1.2510 N.am  248  TYR248     -0.1976
    101  CA         2.3710   -3.1560   -2.6750 C.3   248  TYR248      0.1639
    102  C          3.2820   -2.2420   -3.4810 C.2   248  TYR248      0.2290
    103  O          3.2880   -2.3120   -4.7140 O.2   248  TYR248     -0.2864
    104  CB         0.8830   -2.8470   -2.8930 C.3   248  TYR248      0.0560
    105  CG         0.3440   -3.4910   -4.1500 C.ar  248  TYR248     -0.0198
    106  CD1        0.4640   -4.8680   -4.3600 C.ar  248  TYR248     -0.0009
    107  CD2       -0.2680   -2.7290   -5.1270 C.ar  248  TYR248     -0.0009
    108  CE1       -0.0240   -5.4640   -5.5210 C.ar  248  TYR248      0.0417
    109  CE2       -0.7560   -3.3160   -6.2940 C.ar  248  TYR248      0.0417
    110  CZ        -0.6310   -4.6730   -6.4830 C.ar  248  TYR248      0.1957
    111  OH        -1.1100   -5.2460   -7.6440 O.3   248  TYR248     -0.2866
    112  N          4.0550   -5.8530   -7.2090 N.3   252  ASN252     -0.1225
    113  CA         3.4180   -7.1280   -7.5090 C.3   252  ASN252      0.1785
    114  C          2.8980   -7.7250   -6.2150 C.2   252  ASN252      0.2598
    115  O          3.3850   -7.4180   -5.1220 O.2   252  ASN252     -0.2718
    116  CB         4.4100   -8.1270   -8.1240 C.3   252  ASN252      0.1169
    117  CG         5.0100   -7.6350   -9.4090 C.2   252  ASN252      0.2627
    118  OD1        6.1050   -7.0710   -9.4180 O.2   252  ASN252     -0.2716
    119  ND2        4.2930   -7.8250  -10.5060 N.am  252  ASN252     -0.0877
    120  N          1.8990   -8.5820   -6.3500 N.am  253  SER253     -0.1938
    121  CA         1.3890   -9.2930   -5.1910 C.3   253  SER253      0.2055
    122  C          2.4530  -10.2310   -4.6270 C.2   253  SER253      0.2642
    123  O          3.3060  -10.7570   -5.3450 O.2   253  SER253     -0.2714
    124  CB         0.1280  -10.0620   -5.5660 C.3   253  SER253      0.2130
    125  OG        -0.8960   -9.1640   -5.9680 O.3   253  SER253     -0.2179
    126  N          2.3990  -10.4270   -3.3180 N.am  254  LEU254     -0.1977
    127  CA         3.3810  -11.2240   -2.6000 C.3   254  LEU254      0.1596
    128  C          2.8730  -12.6330   -2.3310 C.2   254  LEU254      0.2287
    129  O          1.6970  -12.8350   -2.0170 O.2   254  LEU254     -0.2864
    130  CB         3.6860  -10.5670   -1.2570 C.3   254  LEU254      0.0297
    131  CG         4.8140   -9.5430   -1.2010 C.3   254  LEU254      0.0022
    132  CD1        4.6620   -8.6930    0.0500 C.3   254  LEU254      0.0001
    133  CD2        6.1640  -10.2440   -1.1970 C.3   254  LEU254      0.0001
    134  N         -2.6250  -18.6520   -3.9050 N.3   295  ILE295     -0.1231
    135  CA        -3.4810  -17.4950   -3.6950 C.3   295  ILE295      0.1692
    136  C         -4.5650  -17.5410   -4.7560 C.2   295  ILE295      0.2593
    137  O         -4.3060  -17.9220   -5.9020 O.2   295  ILE295     -0.2718
    138  CB        -2.6880  -16.1710   -3.7850 C.3   295  ILE295      0.0266
    139  CG1       -1.5910  -16.1150   -2.7170 C.3   295  ILE295      0.0019
    140  CG2       -3.6170  -14.9650   -3.6370 C.3   295  ILE295      0.0020
    141  CD1       -0.7520  -14.8500   -2.7770 C.3   295  ILE295      0.0001
    142  N         -5.7780  -17.1670   -4.3760 N.am  296  SER296     -0.1938
    143  CA        -6.8820  -17.1120   -5.3160 C.3   296  SER296      0.2055
    144  C         -7.5890  -15.7790   -5.1550 C.2   296  SER296      0.2643
    145  O         -7.6200  -15.2010   -4.0670 O.2   296  SER296     -0.2714
    146  CB        -7.8770  -18.2620   -5.1070 C.3   296  SER296      0.2130
    147  OG        -8.4780  -18.1770   -3.8290 O.3   296  SER296     -0.2179
    148  N         -8.1530  -15.2930   -6.2510 N.am  297  TYR297     -0.1959
    149  CA        -8.7990  -13.9930   -6.2610 C.3   297  TYR297      0.1771
    150  C        -10.2720  -14.1520   -6.5800 C.2   297  TYR297      0.2619
    151  O        -10.6850  -15.1050   -7.2490 O.2   297  TYR297     -0.2715
    152  CB        -8.1430  -13.0640   -7.2870 C.3   297  TYR297      0.0574
    153  CG        -6.7520  -12.6540   -6.8800 C.ar  297  TYR297     -0.0198
    154  CD1       -6.5460  -11.5410   -6.0780 C.ar  297  TYR297     -0.0009
    155  CD2       -5.6430  -13.3920   -7.2750 C.ar  297  TYR297     -0.0009
    156  CE1       -5.2840  -11.1630   -5.6920 C.ar  297  TYR297      0.0417
    157  CE2       -4.3710  -13.0190   -6.8900 C.ar  297  TYR297      0.0417
    158  CZ        -4.2000  -11.9030   -6.0970 C.ar  297  TYR297      0.1957
    159  OH        -2.9430  -11.5100   -5.7010 O.3   297  TYR297     -0.2866
    160  N        -11.0650  -13.2140   -6.0650 N.am  298  MET298     -0.1977
    161  CA       -12.4740  -13.2250   -6.3970 C.3   298  MET298      0.1605
    162  C        -12.6560  -12.9530   -7.8880 C.2   298  MET298      0.2287
    163  O        -11.7620  -12.4490   -8.5780 O.2   298  MET298     -0.2864
    164  CB       -13.2200  -12.1810   -5.5730 C.3   298  MET298      0.0413
    165  CG       -12.8610  -12.1810   -4.0950 C.3   298  MET298      0.0598
    166  SD       -13.7730  -10.9010   -3.2220 S.3   298  MET298     -0.1393
    167  CE       -13.9640   -9.7700   -4.5810 C.3   298  MET298      0.0692
@<TRIPOS>BOND
     1   119   117   am
     2   118   117    2
     3   117   116    1
     4   163   162    2
     5   116   113    1
     6   162   161    1
     7   111   110    1
     8   113   112    1
     9   113   114    1
    10   152   153    1
    11   152   149    1
    12   155   157   ar
    13   155   153   ar
    14   151   150    2
    15   157   158   ar
    16   153   154   ar
    17   150   149    1
    18   150   160   am
    19   110   109   ar
    20   110   108   ar
    21   161   160    1
    22   161   164    1
    23   120   114   am
    24   120   121    1
    25   109   107   ar
    26   149   148    1
    27   148   144   am
    28   114   115    2
    29   158   159    1
    30   158   156   ar
    31   154   156   ar
    32   125   124    1
    33   137   136    2
    34   164   165    1
    35   124   121    1
    36   108   106   ar
    37   123   122    2
    38   143   144    1
    39   143   146    1
    40   143   142    1
    41   121   122    1
    42   144   145    2
    43   107   105   ar
    44   146   147    1
    45   136   142   am
    46   136   135    1
    47   103   102    2
    48   122   126   am
    49   167   166    1
    50   106   105   ar
    51   105   104    1
    52   165   166    1
    53   134   135    1
    54   138   135    1
    55   138   140    1
    56   138   139    1
    57     1     2    1
    58     4     3    2
    59   102   101    1
    60     2     3    1
    61     2     5    1
    62   126   127    1
    63     3     6   am
    64   104   101    1
    65     8     9    2
    66     8     7    1
    67   141   139    1
    68   101   100    1
    69   127   128    1
    70   127   130    1
    71   128   129    2
    72     6     7    1
    73    95    94    2
    74   130   131    1
    75   100    94   am
    76   131   133    1
    77   131   132    1
    78    94    93    1
    79    74    72    1
    80    93    96    1
    81    93    92    1
    82    87    86    2
    83    14    15    1
    84    14    11    1
    85    66    64   ar
    86    66    67   ar
    87    64    62   ar
    88    72    73    1
    89    72    69    1
    90    15    16   ar
    91    15    17   ar
    92    96    97    1
    93    10    11    1
    94    16    18   ar
    95    90    88    1
    96    17    19   ar
    97    67    65   ar
    98    24    23    2
    99    62    61    1
   100    62    63   ar
   101    86    85    1
   102    61    58    1
   103    18    20   ar
   104    19    20   ar
   105    11    12    1
   106    69    68    1
   107    69    70    1
   108    68    59   am
   109    25    26    1
   110    25    22    1
   111    65    63   ar
   112    33    36    1
   113    33    32    1
   114    33    34    1
   115    23    32   am
   116    23    22    1
   117    36    37    1
   118    35    34    2
   119    56    55    1
   120    97    98    1
   121    97    99    1
   122    85    88    1
   123    85    84    1
   124    88    89    1
   125    57    58    1
   126    57    53   am
   127    58    59    1
   128    59    60    2
   129    26    27   ar
   130    26    28   ar
   131    34    38   am
   132    12    13    2
   133    22    21    1
   134    27    29   ar
   135    70    71    2
   136    70    75   am
   137    28    30   ar
   138    55    52    1
   139    83    82    1
   140    52    53    1
   141    52    51    1
   142    89    91    1
   143    53    54    2
   144    47    46    2
   145    75    76    1
   146    29    31   ar
   147    30    31   ar
   148    80    81    1
   149    80    79    1
   150    38    39    1
   151    51    46   am
   152    46    45    1
   153    81    82    1
   154    39    40    1
   155    39    42    1
   156    76    79    1
   157    76    77    1
   158    44    40   am
   159    44    45    1
   160    40    41    2
   161    45    48    1
   162    42    43    1
   163    77    78    2
   164    48    50    1
   165    48    49    1
