@<TRIPOS>MOLECULE
tmp/6cazA00.pdb
 95 91 0 0 0
SMALL
GASTEIGER

@<TRIPOS>ATOM
      1  N        -13.0200    8.6480   10.3490 N.3    42  ARG42      -0.1231
      2  CA       -13.2260    7.9070    9.1060 C.3    42  ARG42       0.1694
      3  C        -11.9350    7.2430    8.6180 C.2    42  ARG42       0.2593
      4  O        -11.6260    7.2350    7.4230 O.2    42  ARG42      -0.2718
      5  CB       -13.8860    8.7770    8.0320 C.3    42  ARG42       0.0321
      6  CG       -15.1950    9.4040    8.5160 C.3    42  ARG42       0.0489
      7  CD       -15.6590   10.4980    7.5740 C.3    42  ARG42       0.2205
      8  NE       -15.5580   10.0270    6.2030 N.pl3  42  ARG42      -0.0865
      9  CZ       -15.2280   10.7870    5.1670 C.cat  42  ARG42       0.5346
     10  NH1      -14.9730   12.0830    5.3300 N.pl3  42  ARG42       0.1354
     11  NH2      -15.1530   10.2410    3.9660 N.pl3  42  ARG42       0.1354
     12  N        -11.1710    6.6780    9.5560 N.am   43  GLY43      -0.1942
     13  CA        -9.9680    5.9450    9.2310 C.3    43  GLY43       0.2014
     14  C        -10.1810    4.4300    9.2360 C.2    43  GLY43       0.2639
     15  O        -11.2520    3.9230    9.5550 O.2    43  GLY43      -0.2714
     16  N         -9.1240    3.7200    8.8420 N.am   44  VAL44      -0.1963
     17  CA        -9.0820    2.2590    8.8830 C.3    44  VAL44       0.1727
     18  C         -8.0580    1.7330    9.8700 C.2    44  VAL44       0.2616
     19  O         -8.0230    0.5150   10.1130 O.2    44  VAL44      -0.2715
     20  CB        -8.8430    1.6430    7.4860 C.3    44  VAL44       0.0290
     21  CG1       -9.9610    2.0160    6.5120 C.3    44  VAL44       0.0023
     22  CG2       -7.5010    2.0910    6.9370 C.3    44  VAL44       0.0023
     23  N         -7.2190    2.5900   10.4280 N.am   45  GLY45      -0.1955
     24  CA        -6.2800    2.1750   11.4520 C.3    45  GLY45       0.1869
     25  C         -5.9190    3.3430   12.3430 C.2    45  GLY45       0.2309
     26  O         -5.9740    4.5090   11.9290 O.2    45  GLY45      -0.2863
     27  N         -0.5200    7.4160   -0.0820 N.3    88  GLU88      -0.1231
     28  CA        -0.7640    7.2630    1.3450 C.3    88  GLU88       0.1699
     29  C         -1.0640    8.5980    2.0230 C.2    88  GLU88       0.2593
     30  O         -0.5660    9.6500    1.6190 O.2    88  GLU88      -0.2718
     31  CB         0.4670    6.6310    1.9930 C.3    88  GLU88       0.0402
     32  CG         0.2600    6.2300    3.4410 C.3    88  GLU88       0.1161
     33  CD         1.2820    5.2230    3.9400 C.2    88  GLU88       0.3649
     34  OE1        1.4040    4.1210    3.3620 O.co2  88  GLU88      -0.2457
     35  OE2        1.9670    5.5490    4.9220 O.co2  88  GLU88      -0.2457
     36  N         -1.8920    8.5290    3.0700 N.am   89  GLY89      -0.1942
     37  CA        -2.0690    9.6270    3.9990 C.3    89  GLY89       0.2014
     38  C         -1.9040    9.1450    5.4300 C.2    89  GLY89       0.2639
     39  O         -1.5790    7.9810    5.6790 O.2    89  GLY89      -0.2714
     40  N         -2.1470   10.0620    6.3650 N.am   90  CYS90      -0.1953
     41  CA        -2.0080    9.7440    7.7820 C.3    90  CYS90       0.1843
     42  C         -2.8790   10.6920    8.5830 C.2    90  CYS90       0.2625
     43  O         -2.8240   11.9090    8.3600 O.2    90  CYS90      -0.2714
     44  CB        -0.5520    9.9370    8.2220 C.3    90  CYS90       0.0997
     45  SG        -0.2250    9.5740    9.9880 S.3    90  CYS90      -0.0797
     46  N         -3.6390   10.1450    9.5410 N.am   91  LEU91      -0.1977
     47  CA        -4.4910   10.9650   10.4010 C.3    91  LEU91       0.1596
     48  C         -3.6920   11.9600   11.2300 C.2    91  LEU91       0.2287
     49  O         -4.2510   12.9790   11.6640 O.2    91  LEU91      -0.2864
     50  CB        -5.3230   10.0730   11.3340 C.3    91  LEU91       0.0297
     51  CG        -6.3050    9.1420   10.6320 C.3    91  LEU91       0.0022
     52  CD1       -6.9460    8.2200   11.6410 C.3    91  LEU91       0.0001
     53  CD2       -7.3500    9.9610    9.8960 C.3    91  LEU91       0.0001
     54  N         -4.4320   -2.8120    0.9600 N.3   125  LEU125     -0.1245
     55  CA        -4.6250   -1.8110    2.0060 C.3   125  LEU125      0.1561
     56  C         -4.2500   -2.3510    3.3830 C.2   125  LEU125      0.2260
     57  O         -3.6690   -1.6280    4.1980 O.2   125  LEU125     -0.2867
     58  CB        -6.0730   -1.3110    1.9950 C.3   125  LEU125      0.0270
     59  CG        -6.3560   -0.0410    2.8020 C.3   125  LEU125      0.0019
     60  CD1       -5.6720    1.1630    2.1700 C.3   125  LEU125      0.0001
     61  CD2       -7.8550    0.2020    2.8900 C.3   125  LEU125      0.0001
     62  N         -0.5060   -2.3470    3.6990 N.3   128  GLU128     -0.1231
     63  CA        -0.0710   -0.9680    3.8730 C.3   128  GLU128      0.1699
     64  C         -0.3640   -0.4930    5.2870 C.2   128  GLU128      0.2592
     65  O          0.4810    0.1340    5.9390 O.2   128  GLU128     -0.2718
     66  CB        -0.7870   -0.0660    2.8590 C.3   128  GLU128      0.0402
     67  CG        -0.1940    1.3460    2.7960 C.3   128  GLU128      0.1161
     68  CD        -1.0320    2.3470    2.0130 C.2   128  GLU128      0.3649
     69  OE1       -0.6190    3.5270    1.9260 O.co2 128  GLU128     -0.2457
     70  OE2       -2.0940    1.9830    1.4840 O.co2 128  GLU128     -0.2457
     71  N         -1.5610   -0.7920    5.7790 N.am  129  CYS129     -0.1970
     72  CA        -1.9680   -0.3190    7.0960 C.3   129  CYS129      0.1712
     73  C         -1.1200   -0.9410    8.2040 C.2   129  CYS129      0.2296
     74  O         -0.6670   -0.2380    9.1060 O.2   129  CYS129     -0.2864
     75  CB        -3.4500   -0.6200    7.3100 C.3   129  CYS129      0.0983
     76  SG        -4.0950    0.0050    8.8690 S.3   129  CYS129     -0.0798
     77  N          2.2190    0.7420    8.2290 N.3   132  HIS132     -0.1226
     78  CA         2.0410    2.1140    8.6840 C.3   132  HIS132      0.1752
     79  C          1.8330    2.1670   10.1940 C.2   132  HIS132      0.2595
     80  O          2.3790    3.0440   10.8790 O.2   132  HIS132     -0.2718
     81  CB         0.8320    2.6720    7.9260 C.3   132  HIS132      0.0759
     82  CG         0.5170    4.1010    8.2190 C.ar  132  HIS132      0.0818
     83  ND1        0.8580    5.1330    7.3710 N.ar  132  HIS132     -0.2268
     84  CD2       -0.1430    4.6610    9.2570 C.ar  132  HIS132      0.1154
     85  CE1        0.4350    6.2770    7.8900 C.ar  132  HIS132      0.1986
     86  NE2       -0.1650    6.0180    9.0380 N.ar  132  HIS132     -0.2212
     87  N          1.0820    1.2060   10.7370 N.am  133  GLU133     -0.1979
     88  CA         0.8250    1.1450   12.1780 C.3   133  GLU133      0.1602
     89  C          2.1000    0.8490   12.9530 C.2   133  GLU133      0.2287
     90  O          2.3920    1.4860   13.9710 O.2   133  GLU133     -0.2864
     91  CB        -0.1930    0.0410   12.4900 C.3   133  GLU133      0.0415
     92  CG        -1.5910    0.2830   11.9700 C.3   133  GLU133      0.1163
     93  CD        -2.0990    1.6460   12.3260 C.2   133  GLU133      0.3649
     94  OE1       -1.9340    2.0500   13.4980 O.co2 133  GLU133     -0.2457
     95  OE2       -2.6480    2.3240   11.4360 O.co2 133  GLU133     -0.2457
@<TRIPOS>BOND
     1    27    28    1
     2    54    55    1
     3    28    31    1
     4    28    29    1
     5    70    68   ar
     6    30    29    2
     7    69    68   ar
     8    31    32    1
     9    58    55    1
    10    58    59    1
    11    55    56    1
    12    68    67    1
    13    29    36   am
    14    60    59    1
    15    67    66    1
    16    59    61    1
    17    66    63    1
    18    36    37    1
    19    34    33   ar
    20    56    57    2
    21    32    33    1
    22    62    63    1
    23    63    64    1
    24    33    35   ar
    25    11     9    1
    26    37    38    1
    27     9    10    1
    28     9     8    2
    29    64    71   am
    30    64    65    2
    31    38    39    2
    32    38    40   am
    33    71    72    1
    34     8     7    1
    35    40    41    1
    36    21    20    1
    37    22    20    1
    38    72    75    1
    39    72    73    1
    40    75    76    1
    41    83    85   ar
    42    83    82   ar
    43     4     3    2
    44    20    17    1
    45     7     6    1
    46    41    44    1
    47    41    42    1
    48    85    86   ar
    49    81    82    1
    50    81    78    1
    51     5     6    1
    52     5     2    1
    53    73    74    2
    54    82    84   ar
    55    44    45    1
    56    77    78    1
    57    43    42    2
    58    42    46   am
    59     3     2    1
    60     3    12   am
    61    78    79    1
    62    16    17    1
    63    16    14   am
    64    17    18    1
    65    86    84   ar
    66     2     1    1
    67    13    14    1
    68    13    12    1
    69    14    15    2
    70    46    47    1
    71    18    19    2
    72    18    23   am
    73    53    51    1
    74    79    87   am
    75    79    80    2
    76    47    48    1
    77    47    50    1
    78    23    24    1
    79    51    50    1
    80    51    52    1
    81    87    88    1
    82    48    49    2
    83    95    93   ar
    84    24    25    1
    85    26    25    2
    86    92    93    1
    87    92    91    1
    88    88    91    1
    89    88    89    1
    90    93    94   ar
    91    89    90    2
