@<TRIPOS>MOLECULE
tmp/6cb2A04.pdb
 195 187 0 0 0
SMALL
GASTEIGER

@<TRIPOS>ATOM
      1  N         28.6560   23.6090   23.9510 N.3    17  THR17      -0.1203
      2  CA        28.5230   22.1880   24.2640 C.3    17  THR17       0.1994
      3  C         28.5800   21.2660   23.0490 C.2    17  THR17       0.2617
      4  O         28.6820   20.0470   23.2300 O.2    17  THR17      -0.2717
      5  CB        27.2080   21.9140   25.0020 C.3    17  THR17       0.1784
      6  OG1       26.1090   22.2170   24.1370 O.3    17  THR17      -0.2211
      7  CG2       27.0990   22.7470   26.2610 C.3    17  THR17       0.0376
      8  N         28.4950   21.7970   21.8280 N.am   18  GLU18      -0.1979
      9  CA        28.4530   20.9280   20.6540 C.3    18  GLU18       0.1602
     10  C         29.7490   20.1460   20.4900 C.2    18  GLU18       0.2287
     11  O         29.7240   18.9610   20.1390 O.2    18  GLU18      -0.2864
     12  CB        28.1620   21.7480   19.3980 C.3    18  GLU18       0.0415
     13  CG        27.9910   20.9300   18.1220 C.3    18  GLU18       0.1163
     14  CD        26.9530   19.8240   18.2550 C.2    18  GLU18       0.3649
     15  OE1       27.3510   18.6440   18.3650 O.co2  18  GLU18      -0.2457
     16  OE2       25.7400   20.1290   18.2500 O.co2  18  GLU18      -0.2457
     17  N         32.4630   20.2570   22.9140 N.3    20  LEU20      -0.1245
     18  CA        32.9580   19.7530   24.1800 C.3    20  LEU20       0.1561
     19  C         32.2490   18.4380   24.5030 C.2    20  LEU20       0.2260
     20  O         31.1010   18.2290   24.0980 O.2    20  LEU20      -0.2867
     21  CB        32.7260   20.7740   25.2910 C.3    20  LEU20       0.0270
     22  CG        33.8070   21.8400   25.5370 C.3    20  LEU20       0.0019
     23  CD1       34.1190   22.6500   24.2870 C.3    20  LEU20       0.0001
     24  CD2       33.4120   22.7720   26.6840 C.3    20  LEU20       0.0001
     25  N         27.7240   16.8580   25.9010 N.3    23  SER23      -0.1202
     26  CA        26.4140   16.5840   25.3090 C.3    23  SER23       0.2020
     27  C         25.5760   17.8360   25.0970 C.2    23  SER23       0.2619
     28  O         25.0310   18.3970   26.0540 O.2    23  SER23      -0.2717
     29  CB        25.6150   15.5910   26.1530 C.3    23  SER23       0.2103
     30  OG        24.3090   15.4250   25.6230 O.3    23  SER23      -0.2182
     31  N         25.4370   18.2670   23.8420 N.am   24  SER24      -0.1937
     32  CA        24.6020   19.4340   23.5830 C.3    24  SER24       0.2055
     33  C         23.1240   19.0920   23.7160 C.2    24  SER24       0.2643
     34  O         22.3350   19.9250   24.1780 O.2    24  SER24      -0.2714
     35  CB        24.9110   20.0170   22.1990 C.3    24  SER24       0.2130
     36  OG        24.6630   19.0790   21.1700 O.3    24  SER24      -0.2179
     37  N         22.7400   17.8650   23.3500 N.am   25  THR25      -0.1950
     38  CA        21.3440   17.4560   23.4700 C.3    25  THR25       0.1897
     39  C         20.8700   17.5280   24.9160 C.2    25  THR25       0.2313
     40  O         19.8050   18.0870   25.2010 O.2    25  THR25      -0.2863
     41  CB        21.1680   16.0490   22.9000 C.3    25  THR25       0.1794
     42  OG1       21.3980   16.0870   21.4860 O.3    25  THR25      -0.2208
     43  CG2       19.7670   15.5170   23.1740 C.3    25  THR25       0.0378
     44  N         33.8160    7.5930    9.5550 N.3    96  MET96      -0.1245
     45  CA        32.3870    7.7360    9.2880 C.3    96  MET96       0.1570
     46  C         31.6760    6.4000    9.1310 C.2    96  MET96       0.2261
     47  O         30.5340    6.2590    9.5750 O.2    96  MET96      -0.2867
     48  CB        32.1470    8.5370    8.0030 C.3    96  MET96       0.0387
     49  CG        32.5880    9.9980    8.0180 C.3    96  MET96       0.0595
     50  SD        32.5340   10.6610    6.3460 S.3    96  MET96      -0.1393
     51  CE        30.7690   10.7460    6.0990 C.3    96  MET96       0.0692
     52  N         29.3740    4.4190   12.0760 N.3    99  ALA99      -0.1231
     53  CA        28.1740    5.1250   12.5220 C.3    99  ALA99       0.1694
     54  C         27.1840    5.3510   11.3850 C.2    99  ALA99       0.2591
     55  O         25.9740    5.4210   11.6280 O.2    99  ALA99      -0.2718
     56  CB        28.5460    6.4650   13.1660 C.3    99  ALA99       0.0304
     57  N         27.6630    5.4770   10.1460 N.am  100  VAL100     -0.1980
     58  CA        26.7390    5.6320    9.0270 C.3   100  VAL100      0.1595
     59  C         25.9710    4.3370    8.7890 C.2   100  VAL100      0.2287
     60  O         24.7530    4.3510    8.5710 O.2   100  VAL100     -0.2864
     61  CB        27.4850    6.0950    7.7610 C.3   100  VAL100      0.0276
     62  CG1       26.5640    6.0540    6.5650 C.3   100  VAL100      0.0022
     63  CG2       28.0140    7.5200    7.9450 C.3   100  VAL100      0.0022
     64  N         23.6360    3.8190   11.8780 N.3   103  GLY103     -0.1210
     65  CA        22.6540    4.8840   12.0080 C.3   103  GLY103      0.1956
     66  C         21.4850    4.7300   11.0540 C.2   103  GLY103      0.2611
     67  O         20.3360    5.0080   11.4140 O.2   103  GLY103     -0.2717
     68  N         21.7560    4.2800    9.8270 N.am  104  LEU104     -0.1979
     69  CA        20.6840    4.0810    8.8610 C.3   104  LEU104      0.1596
     70  C         19.8730    2.8280    9.1660 C.2   104  LEU104      0.2287
     71  O         18.6590    2.8090    8.9330 O.2   104  LEU104     -0.2864
     72  CB        21.2620    4.0150    7.4450 C.3   104  LEU104      0.0297
     73  CG        22.0240    5.2650    6.9910 C.3   104  LEU104      0.0022
     74  CD1       22.6310    5.0460    5.6150 C.3   104  LEU104      0.0001
     75  CD2       21.1270    6.5090    7.0060 C.3   104  LEU104      0.0001
     76  N         16.5700    4.7170   17.2100 N.3   110  ILE110     -0.1245
     77  CA        17.2120    5.9260   17.7190 C.3   110  ILE110      0.1561
     78  C         16.1910    7.0370   17.9400 C.2   110  ILE110      0.2260
     79  O         16.3050    7.8100   18.9000 O.2   110  ILE110     -0.2867
     80  CB        18.3360    6.3620   16.7580 C.3   110  ILE110      0.0252
     81  CG1       19.4760    5.3420   16.7790 C.3   110  ILE110      0.0019
     82  CG2       18.8700    7.7480   17.1190 C.3   110  ILE110      0.0019
     83  CD1       20.5190    5.5760   15.7160 C.3   110  ILE110      0.0001
     84  N         14.9280    9.6490   22.6700 N.3   114  PHE114     -0.1241
     85  CA        15.0610   11.0290   23.1180 C.3   114  PHE114      0.1605
     86  C         14.2480   11.3210   24.3760 C.2   114  PHE114      0.2264
     87  O         13.9830   12.4900   24.6740 O.2   114  PHE114     -0.2867
     88  CB        14.6730   11.9950   21.9960 C.3   114  PHE114      0.0534
     89  CG        15.7520   12.1900   20.9670 C.ar  114  PHE114     -0.0203
     90  CD1       16.7430   13.1400   21.1550 C.ar  114  PHE114     -0.0042
     91  CD2       15.7770   11.4230   19.8140 C.ar  114  PHE114     -0.0042
     92  CE1       17.7410   13.3230   20.2080 C.ar  114  PHE114     -0.0003
     93  CE2       16.7710   11.5990   18.8650 C.ar  114  PHE114     -0.0003
     94  CZ        17.7540   12.5510   19.0630 C.ar  114  PHE114     -0.0000
     95  N         27.5440    7.3250   19.9680 N.3   164  ALA164     -0.1231
     96  CA        26.8720    8.6150   19.8570 C.3   164  ALA164      0.1694
     97  C         25.4690    8.4980   19.2860 C.2   164  ALA164      0.2592
     98  O         24.6990    9.4610   19.3660 O.2   164  ALA164     -0.2718
     99  CB        27.6820    9.5710   18.9830 C.3   164  ALA164      0.0304
    100  N         25.1270    7.3610   18.6820 N.am  165  LEU165     -0.1966
    101  CA        23.7570    7.1680   18.2310 C.3   165  LEU165      0.1728
    102  C         22.7850    7.1390   19.4010 C.2   165  LEU165      0.2616
    103  O         21.5730    7.2460   19.1920 O.2   165  LEU165     -0.2715
    104  CB        23.6550    5.8820   17.4100 C.3   165  LEU165      0.0311
    105  CG        24.5020    5.8440   16.1330 C.3   165  LEU165      0.0022
    106  CD1       24.3020    4.5220   15.4100 C.3   165  LEU165      0.0001
    107  CD2       24.1810    7.0120   15.2090 C.3   165  LEU165      0.0001
    108  N         23.2950    6.9990   20.6210 N.am  166  TRP166     -0.1960
    109  CA        22.5200    7.0780   21.8470 C.3   166  TRP166      0.1756
    110  C         22.4080    8.5440   22.2530 C.2   166  TRP166      0.2462
    111  O         23.4050    9.1520   22.6660 O.2   166  TRP166     -0.2730
    112  CB        23.1870    6.2440   22.9430 C.3   166  TRP166      0.0590
    113  CG        22.3990    6.1170   24.1960 C.ar  166  TRP166      0.0006
    114  CD1       21.1090    6.5070   24.4000 C.ar  166  TRP166      0.0946
    115  CD2       22.8500    5.5540   25.4350 C.ar  166  TRP166      0.0152
    116  NE1       20.7270    6.2230   25.6930 N.ar  166  TRP166     -0.2442
    117  CE2       21.7790    5.6370   26.3470 C.ar  166  TRP166      0.0810
    118  CE3       24.0560    4.9850   25.8610 C.ar  166  TRP166      0.0012
    119  CZ2       21.8770    5.1740   27.6580 C.ar  166  TRP166      0.0191
    120  CZ3       24.1480    4.5270   27.1630 C.ar  166  TRP166      0.0001
    121  CH2       23.0660    4.6240   28.0440 C.ar  166  TRP166      0.0015
    122  N         21.2260    9.1440   22.1320 N.am  167  PRO167     -0.2716
    123  CA        21.0750   10.5690   22.4630 C.3   167  PRO167      0.1536
    124  C         21.5060   10.8620   23.8930 C.2   167  PRO167      0.2599
    125  O         21.0650   10.2080   24.8410 O.2   167  PRO167     -0.2715
    126  CB        19.5760   10.8220   22.2600 C.3   167  PRO167      0.0310
    127  CG        19.1270    9.7340   21.3190 C.3   167  PRO167      0.0237
    128  CD        19.9730    8.5410   21.6440 C.3   167  PRO167      0.0939
    129  N         22.3920   11.8480   24.0370 N.am  168  GLY168     -0.1955
    130  CA        22.9420   12.2430   25.3150 C.3   168  GLY168      0.1869
    131  C         24.3540   11.7620   25.5580 C.2   168  GLY168      0.2309
    132  O         25.0380   12.2940   26.4450 O.2   168  GLY168     -0.2863
    133  N         26.9400   12.0510   23.6170 N.3   170  SER170     -0.1202
    134  CA        27.8550   13.0590   23.0860 C.3   170  SER170      0.2020
    135  C         28.7820   12.4480   22.0430 C.2   170  SER170      0.2619
    136  O         29.5820   11.5570   22.3520 O.2   170  SER170     -0.2717
    137  CB        28.6580   13.7340   24.2010 C.3   170  SER170      0.2103
    138  OG        29.8370   14.3410   23.6960 O.3   170  SER170     -0.2182
    139  N         28.6720   12.9250   20.7980 N.am  171  ARG171     -0.1965
    140  CA        29.5560   12.4470   19.7420 C.3   171  ARG171      0.1729
    141  C         31.0090   12.7760   20.0430 C.2   171  ARG171      0.2616
    142  O         31.9010   11.9670   19.7670 O.2   171  ARG171     -0.2715
    143  CB        29.1580   13.0470   18.3950 C.3   171  ARG171      0.0348
    144  CG        30.1390   12.6880   17.2720 C.3   171  ARG171      0.0492
    145  CD        29.9820   13.5770   16.0420 C.3   171  ARG171      0.2205
    146  NE        28.6900   13.3590   15.4150 N.pl3 171  ARG171     -0.0865
    147  CZ        27.6480   14.1690   15.5580 C.cat 171  ARG171      0.5346
    148  NH1       26.5060   13.8790   14.9510 N.pl3 171  ARG171      0.1354
    149  NH2       27.7480   15.2690   16.3010 N.pl3 171  ARG171      0.1354
    150  N         31.2720   13.9620   20.5980 N.am  172  SER172     -0.1950
    151  CA        32.6520   14.3160   20.9060 C.3   172  SER172      0.1924
    152  C         33.2010   13.4370   22.0190 C.2   172  SER172      0.2314
    153  O         34.3680   13.0320   21.9830 O.2   172  SER172     -0.2863
    154  CB        32.7480   15.7930   21.2890 C.3   172  SER172      0.2116
    155  OG        31.8460   16.0850   22.3310 O.3   172  SER172     -0.2180
    156  N         31.4340   16.1980    8.1580 N.3   199  PRO199     -0.2102
    157  CA        30.5830   15.3750    7.2860 C.3   199  PRO199      0.1504
    158  C         29.4600   14.6740    8.0320 C.2   199  PRO199      0.2575
    159  O         28.3680   14.5300    7.4700 O.2   199  PRO199     -0.2718
    160  CB        31.5710   14.3740    6.6710 C.3   199  PRO199      0.0282
    161  CG        32.6540   14.2620    7.6700 C.3   199  PRO199      0.0208
    162  CD        32.7950   15.6330    8.2600 C.3   199  PRO199      0.0893
    163  N         29.6740   14.2550    9.2840 N.am  200  MET200     -0.1980
    164  CA        28.6120   13.5600   10.0070 C.3   200  MET200      0.1605
    165  C         27.4410   14.4960   10.2980 C.2   200  MET200      0.2287
    166  O         26.2810   14.1530   10.0420 O.2   200  MET200     -0.2864
    167  CB        29.1500   12.9510   11.3060 C.3   200  MET200      0.0413
    168  CG        30.1710   11.8330   11.1160 C.3   200  MET200      0.0598
    169  SD        29.5120   10.4280   10.2000 S.3   200  MET200     -0.1393
    170  CE        28.2670    9.8490   11.3520 C.3   200  MET200      0.0692
    171  N         25.4800   15.9260    7.0220 N.3   203  GLY203     -0.1210
    172  CA        24.5340   14.9460    6.5180 C.3   203  GLY203      0.1956
    173  C         23.3670   14.7370    7.4620 C.2   203  GLY203      0.2611
    174  O         22.2180   14.6170    7.0270 O.2   203  GLY203     -0.2717
    175  N         23.6390   14.7000    8.7670 N.am  204  ALA204     -0.1979
    176  CA        22.5580   14.5080    9.7290 C.3   204  ALA204      0.1597
    177  C         21.6320   15.7200    9.7720 C.2   204  ALA204      0.2287
    178  O         20.4060   15.5670    9.8400 O.2   204  ALA204     -0.2864
    179  CB        23.1310   14.2080   11.1160 C.3   204  ALA204      0.0319
    180  N         19.3950   15.7840    6.7420 N.3   207  LEU207     -0.1231
    181  CA        18.2990   14.8280    6.8830 C.3   207  LEU207      0.1693
    182  C         17.2340   15.3370    7.8510 C.2   207  LEU207      0.2592
    183  O         16.0370   15.1010    7.6440 O.2   207  LEU207     -0.2718
    184  CB        18.8370   13.4690    7.3410 C.3   207  LEU207      0.0284
    185  CG        19.5020   12.5910    6.2780 C.3   207  LEU207      0.0019
    186  CD1       20.2060   11.3960    6.9110 C.3   207  LEU207      0.0001
    187  CD2       18.4740   12.1280    5.2620 C.3   207  LEU207      0.0001
    188  N         17.6460   16.0300    8.9170 N.am  208  ASP208     -0.1974
    189  CA        16.6750   16.5860    9.8560 C.3   208  ASP208      0.1709
    190  C         15.9460   17.7840    9.2570 C.2   208  ASP208      0.2293
    191  O         14.7290   17.9170    9.4190 O.2   208  ASP208     -0.2864
    192  CB        17.3640   16.9740   11.1670 C.3   208  ASP208      0.1436
    193  CG        17.8130   15.7650   11.9820 C.2   208  ASP208      0.3671
    194  OD1       17.1440   14.7110   11.9170 O.co2 208  ASP208     -0.2456
    195  OD2       18.8360   15.8720   12.6940 O.co2 208  ASP208     -0.2456
@<TRIPOS>BOND
     1   187   185    1
     2    74    73    1
     3    51    50    1
     4   185   186    1
     5   185   184    1
     6    50    49    1
     7   172   171    1
     8   172   173    1
     9    62    61    1
    10   160   157    1
    11   160   161    1
    12   180   181    1
    13   181   184    1
    14   181   182    1
    15    73    75    1
    16    73    72    1
    17   174   173    2
    18   157   158    1
    19   157   156    1
    20    72    69    1
    21   173   175   am
    22   159   158    2
    23   183   182    2
    24   161   162    1
    25    61    63    1
    26    61    58    1
    27   182   188   am
    28    48    49    1
    29    48    45    1
    30   158   163   am
    31   156   162    1
    32    60    59    2
    33   175   176    1
    34    59    58    1
    35    69    70    1
    36    69    68    1
    37   188   189    1
    38    71    70    2
    39    58    57    1
    40    46    45    1
    41    46    47    2
    42   190   191    2
    43   190   189    1
    44   163   164    1
    45    45    44    1
    46   176   177    1
    47   176   179    1
    48   177   178    2
    49    68    66   am
    50   189   192    1
    51   164   165    1
    52   164   167    1
    53   166   165    2
    54    57    54   am
    55   169   168    1
    56   169   170    1
    57    66    67    2
    58    66    65    1
    59   168   167    1
    60   192   193    1
    61    54    55    2
    62    54    53    1
    63    64    65    1
    64   194   193   ar
    65   193   195   ar
    66    52    53    1
    67    53    56    1
    68   148   147    1
    69   107   105    1
    70   106   105    1
    71   146   147    2
    72   146   145    1
    73   147   149    1
    74    83    81    1
    75   145   144    1
    76   105   104    1
    77    80    81    1
    78    80    82    1
    79    80    77    1
    80    76    77    1
    81   144   143    1
    82   104   101    1
    83    77    78    1
    84    78    79    2
    85    13    14    1
    86    13    12    1
    87   101   100    1
    88   101   102    1
    89    16    14   ar
    90    14    15   ar
    91   143   140    1
    92   100    97   am
    93    93    94   ar
    94    93    91   ar
    95    99    96    1
    96    94    92   ar
    97   103   102    2
    98    97    98    2
    99    97    96    1
   100    12     9    1
   101   102   108   am
   102   140   141    1
   103   140   139    1
   104   142   141    2
   105    91    89   ar
   106    96    95    1
   107   141   150   am
   108    11    10    2
   109    92    90   ar
   110    10     9    1
   111   150   151    1
   112   108   109    1
   113     9     8    1
   114   139   135   am
   115   151   154    1
   116   151   152    1
   117    89    90   ar
   118    89    88    1
   119    36    35    1
   120   154   155    1
   121   127   128    1
   122   127   126    1
   123    42    41    1
   124   128   122    1
   125     8     3   am
   126   109   110    1
   127   109   112    1
   128   153   152    2
   129    88    85    1
   130   135   136    2
   131   135   134    1
   132   122   110   am
   133   122   123    1
   134    35    32    1
   135   110   111    2
   136   126   123    1
   137   123   124    1
   138    84    85    1
   139    41    43    1
   140    41    38    1
   141    17    18    1
   142   112   113    1
   143     3     4    2
   144     3     2    1
   145   134   133    1
   146   134   137    1
   147    85    86    1
   148    37    38    1
   149    37    33   am
   150    38    39    1
   151    32    33    1
   152    32    31    1
   153   138   137    1
   154    33    34    2
   155    31    27   am
   156   124   129   am
   157   124   125    2
   158     1     2    1
   159   129   130    1
   160    20    19    2
   161     6     5    1
   162    18    19    1
   163    18    21    1
   164   113   114   ar
   165   113   115   ar
   166     2     5    1
   167    23    22    1
   168    86    87    2
   169   114   116   ar
   170    39    40    2
   171     5     7    1
   172    27    26    1
   173    27    28    2
   174    21    22    1
   175    26    25    1
   176    26    29    1
   177   130   131    1
   178   115   118   ar
   179   115   117   ar
   180    22    24    1
   181   131   132    2
   182    30    29    1
   183   116   117   ar
   184   118   120   ar
   185   117   119   ar
   186   120   121   ar
   187   119   121   ar
