@<TRIPOS>MOLECULE
tmp/6cb2A01.pdb
 94 87 0 0 0
SMALL
GASTEIGER

@<TRIPOS>ATOM
      1  N         40.5270   21.0700    5.8930 N.3    65  LEU65      -0.1245
      2  CA        39.3140   20.4350    5.3820 C.3    65  LEU65       0.1561
      3  C         39.3010   20.4100    3.8610 C.2    65  LEU65       0.2260
      4  O         39.0000   19.3790    3.2480 O.2    65  LEU65      -0.2867
      5  CB        38.0780   21.1570    5.9130 C.3    65  LEU65       0.0270
      6  CG        37.5900   20.7080    7.2880 C.3    65  LEU65       0.0019
      7  CD1       36.5400   21.6750    7.8210 C.3    65  LEU65       0.0001
      8  CD2       37.0230   19.3000    7.2090 C.3    65  LEU65       0.0001
      9  N         41.8720   17.9610    2.6600 N.3    68  LEU68      -0.1231
     10  CA        41.4260   16.5710    2.7220 C.3    68  LEU68       0.1693
     11  C         40.6870   16.1580    1.4550 C.2    68  LEU68       0.2591
     12  O         40.8290   15.0220    0.9880 O.2    68  LEU68      -0.2718
     13  CB        40.5460   16.3890    3.9580 C.3    68  LEU68       0.0284
     14  CG        41.3430   16.2890    5.2570 C.3    68  LEU68       0.0019
     15  CD1       40.3860   16.4760    6.4040 C.3    68  LEU68       0.0001
     16  CD2       42.0480   14.9350    5.3420 C.3    68  LEU68       0.0001
     17  N         39.8970   17.0640    0.8810 N.am   69  ILE69      -0.1980
     18  CA        39.1640   16.7710   -0.3450 C.3    69  ILE69       0.1595
     19  C         39.9560   17.1460   -1.5910 C.2    69  ILE69       0.2287
     20  O         39.4010   17.1320   -2.6920 O.2    69  ILE69      -0.2864
     21  CB        37.7780   17.4430   -0.3590 C.3    69  ILE69       0.0276
     22  CG1       37.9250   18.9680   -0.4050 C.3    69  ILE69       0.0022
     23  CG2       36.9810   17.0570    0.8830 C.3    69  ILE69       0.0022
     24  CD1       36.6450   19.7070   -0.5110 C.3    69  ILE69       0.0001
     25  N         41.7670   11.7100    3.4750 N.3    89  LEU89      -0.1231
     26  CA        40.3400   11.4520    3.3870 C.3    89  LEU89       0.1693
     27  C         39.9760   10.0160    3.7520 C.2    89  LEU89       0.2591
     28  O         38.8370    9.7740    4.1620 O.2    89  LEU89      -0.2718
     29  CB        39.8480   11.7740    1.9810 C.3    89  LEU89       0.0284
     30  CG        38.3420   11.9470    1.8240 C.3    89  LEU89       0.0019
     31  CD1       37.8490   13.0640    2.7240 C.3    89  LEU89       0.0001
     32  CD2       38.0450   12.2340    0.3630 C.3    89  LEU89       0.0001
     33  N         40.9090    9.0630    3.6210 N.am   90  ILE90      -0.1980
     34  CA        40.6200    7.6940    4.0490 C.3    90  ILE90       0.1595
     35  C         40.4110    7.6400    5.5620 C.2    90  ILE90       0.2287
     36  O         39.5040    6.9470    6.0440 O.2    90  ILE90      -0.2864
     37  CB        41.7260    6.7200    3.5910 C.3    90  ILE90       0.0276
     38  CG1       41.8840    6.7580    2.0760 C.3    90  ILE90       0.0022
     39  CG2       41.3840    5.2770    3.9910 C.3    90  ILE90       0.0022
     40  CD1       40.5950    6.5000    1.3460 C.3    90  ILE90       0.0001
     41  N         39.1250    9.9470    7.3790 N.3    92  ILE92      -0.1231
     42  CA        37.7800   10.4690    7.6100 C.3    92  ILE92       0.1692
     43  C         36.7330    9.4170    7.2600 C.2    92  ILE92       0.2591
     44  O         35.7560    9.2160    7.9960 O.2    92  ILE92      -0.2718
     45  CB        37.5690   11.7670    6.8040 C.3    92  ILE92       0.0266
     46  CG1       38.5720   12.8490    7.2370 C.3    92  ILE92       0.0019
     47  CG2       36.1350   12.2470    6.9320 C.3    92  ILE92       0.0020
     48  CD1       38.3950   13.3280    8.6670 C.3    92  ILE92       0.0001
     49  N         36.9070    8.7460    6.1200 N.am   93  LEU93      -0.1980
     50  CA        35.9190    7.7680    5.6750 C.3    93  LEU93       0.1596
     51  C         35.8230    6.6060    6.6630 C.2    93  LEU93       0.2287
     52  O         34.7230    6.1610    7.0150 O.2    93  LEU93      -0.2864
     53  CB        36.2820    7.2740    4.2700 C.3    93  LEU93       0.0297
     54  CG        35.4980    6.0890    3.6940 C.3    93  LEU93       0.0022
     55  CD1       34.0530    6.4870    3.4450 C.3    93  LEU93       0.0001
     56  CD2       36.1460    5.5540    2.4100 C.3    93  LEU93       0.0001
     57  N         33.8160    7.5930    9.5550 N.3    96  MET96      -0.1245
     58  CA        32.3870    7.7360    9.2880 C.3    96  MET96       0.1570
     59  C         31.6760    6.4000    9.1310 C.2    96  MET96       0.2261
     60  O         30.5340    6.2590    9.5750 O.2    96  MET96      -0.2867
     61  CB        32.1470    8.5370    8.0030 C.3    96  MET96       0.0387
     62  CG        32.5880    9.9980    8.0180 C.3    96  MET96       0.0595
     63  SD        32.5340   10.6610    6.3460 S.3    96  MET96      -0.1393
     64  CE        30.7690   10.7460    6.0990 C.3    96  MET96       0.0692
     65  N         36.9810   17.3700   13.0460 N.3   195  LEU195     -0.1245
     66  CA        36.9740   17.1750   11.6020 C.3   195  LEU195      0.1561
     67  C         35.9340   16.1380   11.2040 C.2   195  LEU195      0.2260
     68  O         35.1810   16.3310   10.2400 O.2   195  LEU195     -0.2867
     69  CB        38.3600   16.7640   11.1200 C.3   195  LEU195      0.0270
     70  CG        39.4510   17.8260   11.2590 C.3   195  LEU195      0.0019
     71  CD1       40.7960   17.2080   10.9440 C.3   195  LEU195      0.0001
     72  CD2       39.1860   19.0420   10.3570 C.3   195  LEU195      0.0001
     73  N         32.1890   17.2690   10.8530 N.3   198  VAL198     -0.1231
     74  CA        31.7010   18.1010    9.7510 C.3   198  VAL198      0.1678
     75  C         30.8890   17.2610    8.7670 C.2   198  VAL198      0.2434
     76  O         29.7060   17.5670    8.5600 O.2   198  VAL198     -0.2733
     77  CB        32.8480   18.8580    9.0580 C.3   198  VAL198      0.0265
     78  CG1       32.3550   19.5080    7.7690 C.3   198  VAL198      0.0020
     79  CG2       33.4190   19.8980    9.9960 C.3   198  VAL198      0.0020
     80  N         31.4340   16.1980    8.1580 N.am  199  PRO199     -0.2729
     81  CA        30.5830   15.3750    7.2860 C.3   199  PRO199      0.1401
     82  C         29.4600   14.6740    8.0320 C.2   199  PRO199      0.2269
     83  O         28.3680   14.5300    7.4700 O.2   199  PRO199     -0.2865
     84  CB        31.5710   14.3740    6.6710 C.3   199  PRO199      0.0296
     85  CG        32.6540   14.2620    7.6700 C.3   199  PRO199      0.0237
     86  CD        32.7950   15.6330    8.2600 C.3   199  PRO199      0.0939
     87  N         26.7370   17.5690    8.9370 N.3   202  MET202     -0.1245
     88  CA        26.1200   18.1660    7.7530 C.3   202  MET202      0.1570
     89  C         25.1260   17.2090    7.1070 C.2   202  MET202      0.2261
     90  O         24.0390   17.6220    6.6830 O.2   202  MET202     -0.2867
     91  CB        27.1830   18.5830    6.7370 C.3   202  MET202      0.0387
     92  CG        27.9720   19.8110    7.1360 C.3   202  MET202      0.0595
     93  SD        29.0380   20.3910    5.8040 S.3   202  MET202     -0.1393
     94  CE        29.7810   18.8680    5.2410 C.3   202  MET202      0.0692
@<TRIPOS>BOND
     1    20    19    2
     2    19    18    1
     3    24    22    1
     4    22    21    1
     5    21    18    1
     6    21    23    1
     7    18    17    1
     8    32    30    1
     9    17    11   am
    10    12    11    2
    11    40    38    1
    12    11    10    1
    13    30    29    1
    14    30    31    1
    15    29    26    1
    16    38    37    1
    17    56    54    1
    18     9    10    1
    19    10    13    1
    20     4     3    2
    21    26    25    1
    22    26    27    1
    23    55    54    1
    24    37    39    1
    25    37    34    1
    26    33    27   am
    27    33    34    1
    28    54    53    1
    29    27    28    2
    30     3     2    1
    31    13    14    1
    32    34    35    1
    33    53    50    1
    34    94    93    1
    35    14    16    1
    36    14    15    1
    37     2     1    1
    38     2     5    1
    39    35    36    2
    40    50    49    1
    41    50    51    1
    42    93    92    1
    43     5     6    1
    44    64    63    1
    45    49    43   am
    46    63    62    1
    47    51    52    2
    48    84    81    1
    49    84    85    1
    50    90    89    2
    51    91    92    1
    52    91    88    1
    53    45    47    1
    54    45    46    1
    55    45    42    1
    56    89    88    1
    57     8     6    1
    58    46    48    1
    59    43    42    1
    60    43    44    2
    61    81    82    1
    62    81    80    1
    63     6     7    1
    64    41    42    1
    65    83    82    2
    66    85    86    1
    67    88    87    1
    68    78    77    1
    69    61    62    1
    70    61    58    1
    71    80    86    1
    72    80    75   am
    73    76    75    2
    74    75    74    1
    75    77    74    1
    76    77    79    1
    77    59    58    1
    78    59    60    2
    79    58    57    1
    80    74    73    1
    81    68    67    2
    82    72    70    1
    83    71    70    1
    84    69    70    1
    85    69    66    1
    86    67    66    1
    87    66    65    1
