@<TRIPOS>MOLECULE
tmp/6cb2A00.pdb
 109 105 0 0 0
SMALL
GASTEIGER

@<TRIPOS>ATOM
      1  N         40.9090    9.0630    3.6210 N.3    90  ILE90      -0.1231
      2  CA        40.6200    7.6940    4.0490 C.3    90  ILE90       0.1692
      3  C         40.4110    7.6400    5.5620 C.2    90  ILE90       0.2592
      4  O         39.5040    6.9470    6.0440 O.2    90  ILE90      -0.2718
      5  CB        41.7260    6.7200    3.5910 C.3    90  ILE90       0.0266
      6  CG1       41.8840    6.7580    2.0760 C.3    90  ILE90       0.0019
      7  CG2       41.3840    5.2770    3.9910 C.3    90  ILE90       0.0020
      8  CD1       40.5950    6.5000    1.3460 C.3    90  ILE90       0.0001
      9  N         41.2330    8.3700    6.3330 N.am   91  HIS91      -0.1976
     10  CA        41.0010    8.4510    7.7760 C.3    91  HIS91       0.1656
     11  C         39.5770    8.8940    8.0650 C.2    91  HIS91       0.2291
     12  O         38.8930    8.3150    8.9150 O.2    91  HIS91      -0.2864
     13  CB        41.9710    9.4230    8.4480 C.3    91  HIS91       0.0771
     14  CG        43.4010    8.9950    8.4080 C.ar   91  HIS91       0.0820
     15  ND1       44.2290    9.2650    7.3370 N.ar   91  HIS91      -0.2267
     16  CD2       44.1580    8.3360    9.3180 C.ar   91  HIS91       0.1154
     17  CE1       45.4320    8.7790    7.5860 C.ar   91  HIS91       0.1986
     18  NE2       45.4150    8.2120    8.7820 N.ar   91  HIS91      -0.2212
     19  N         36.9710    6.0960    7.1160 N.3    94  LEU94      -0.1245
     20  CA        36.9510    5.0280    8.1130 C.3    94  LEU94       0.1561
     21  C         36.3090    5.4940    9.4170 C.2    94  LEU94       0.2260
     22  O         35.6490    4.7010   10.1030 O.2    94  LEU94      -0.2867
     23  CB        38.3700    4.5050    8.3640 C.3    94  LEU94       0.0270
     24  CG        38.9950    3.7600    7.1770 C.3    94  LEU94       0.0019
     25  CD1       40.4900    3.5270    7.3800 C.3    94  LEU94       0.0001
     26  CD2       38.2530    2.4430    6.9250 C.3    94  LEU94       0.0001
     27  N         32.3280    5.4350    8.4750 N.3    97  ILE97      -0.1231
     28  CA        31.6380    4.2260    8.0140 C.3    97  ILE97       0.1678
     29  C         30.8250    3.5430    9.1160 C.2    97  ILE97       0.2434
     30  O         29.6270    3.3060    8.9070 O.2    97  ILE97      -0.2733
     31  CB        32.6330    3.2780    7.3330 C.3    97  ILE97       0.0265
     32  CG1       32.9680    3.7730    5.9180 C.3    97  ILE97       0.0019
     33  CG2       32.0990    1.8460    7.3030 C.3    97  ILE97       0.0020
     34  CD1       34.0950    3.0040    5.2270 C.3    97  ILE97       0.0001
     35  N         31.3850    3.2130   10.2880 N.am   98  PRO98      -0.2729
     36  CA        30.5810    2.4370   11.2570 C.3    98  PRO98       0.1401
     37  C         29.2990    3.1390   11.6860 C.2    98  PRO98       0.2269
     38  O         28.2190    2.5280   11.6320 O.2    98  PRO98      -0.2865
     39  CB        31.5590    2.2190   12.4200 C.3    98  PRO98       0.0296
     40  CG        32.9120    2.3450   11.7960 C.3    98  PRO98       0.0237
     41  CD        32.7410    3.4610   10.8030 C.3    98  PRO98       0.0939
     42  N         26.6650    3.1990    8.8430 N.3   101  VAL101     -0.1231
     43  CA        26.0100    1.9070    8.6560 C.3   101  VAL101      0.1692
     44  C         24.9530    1.6750    9.7340 C.2   101  VAL101      0.2591
     45  O         23.7860    1.4000    9.4310 O.2   101  VAL101     -0.2718
     46  CB        27.0600    0.7830    8.6270 C.3   101  VAL101      0.0266
     47  CG1       26.4030   -0.5940    8.7600 C.3   101  VAL101      0.0020
     48  CG2       27.8670    0.8740    7.3510 C.3   101  VAL101      0.0020
     49  N         25.3360    1.7950   11.0080 N.am  102  LEU102     -0.1980
     50  CA        24.3910    1.5000   12.0800 C.3   102  LEU102      0.1596
     51  C         23.3100    2.5650   12.1990 C.2   102  LEU102      0.2287
     52  O         22.1740    2.2540   12.5770 O.2   102  LEU102     -0.2864
     53  CB        25.1240    1.3550   13.4070 C.3   102  LEU102      0.0297
     54  CG        26.1310    0.2140   13.5110 C.3   102  LEU102      0.0022
     55  CD1       26.5790    0.0690   14.9530 C.3   102  LEU102      0.0001
     56  CD2       25.5160   -1.0800   13.0110 C.3   102  LEU102      0.0001
     57  N         46.7460    6.7130   12.3350 N.3   150  THR150     -0.1203
     58  CA        46.7480    5.5640   11.4370 C.3   150  THR150      0.1994
     59  C         45.3200    5.2400   11.0140 C.2   150  THR150      0.2618
     60  O         44.3510    5.6850   11.6350 O.2   150  THR150     -0.2717
     61  CB        47.3810    4.3470   12.1320 C.3   150  THR150      0.1784
     62  OG1       46.5990    4.0160   13.2830 O.3   150  THR150     -0.2211
     63  CG2       48.8200    4.6510   12.5680 C.3   150  THR150      0.0376
     64  N         45.1960    4.4250    9.9550 N.am  151  TYR151     -0.1961
     65  CA        43.8750    3.9630    9.5340 C.3   151  TYR151      0.1771
     66  C         43.1940    3.1630   10.6370 C.2   151  TYR151      0.2619
     67  O         41.9770    3.2760   10.8370 O.2   151  TYR151     -0.2715
     68  CB        43.9770    3.1280    8.2480 C.3   151  TYR151      0.0574
     69  CG        44.4200    3.9240    7.0410 C.ar  151  TYR151     -0.0198
     70  CD1       44.1950    5.2920    6.9800 C.ar  151  TYR151     -0.0009
     71  CD2       45.0570    3.3150    5.9630 C.ar  151  TYR151     -0.0009
     72  CE1       44.5990    6.0360    5.8790 C.ar  151  TYR151      0.0417
     73  CE2       45.4640    4.0530    4.8600 C.ar  151  TYR151      0.0417
     74  CZ        45.2310    5.4120    4.8250 C.ar  151  TYR151      0.1957
     75  OH        45.6250    6.1600    3.7350 O.3   151  TYR151     -0.2866
     76  N         43.9610    2.3360   11.3570 N.am  152  ARG152     -0.1977
     77  CA        43.3850    1.5380   12.4390 C.3   152  ARG152      0.1597
     78  C         42.7790    2.4340   13.5200 C.2   152  ARG152      0.2287
     79  O         41.6330    2.2260   13.9480 O.2   152  ARG152     -0.2864
     80  CB        44.4440    0.6010   13.0380 C.3   152  ARG152      0.0334
     81  CG        43.9290   -0.2040   14.2430 C.3   152  ARG152      0.0492
     82  CD        44.8380   -1.3920   14.5240 C.3   152  ARG152      0.2205
     83  NE        46.1560   -0.9320   14.9280 N.pl3 152  ARG152     -0.0865
     84  CZ        46.5990   -0.9420   16.1820 C.cat 152  ARG152      0.5346
     85  NH1       45.8370   -1.4270   17.1660 N.pl3 152  ARG152      0.1354
     86  NH2       47.8130   -0.4890   16.4540 N.pl3 152  ARG152      0.1354
     87  N         39.5050    4.0510   12.1920 N.3   155  PHE155     -0.1241
     88  CA        38.3710    3.1350   12.1250 C.3   155  PHE155      0.1605
     89  C         37.8420    2.8240   13.5180 C.2   155  PHE155      0.2264
     90  O         36.6250    2.7920   13.7400 O.2   155  PHE155     -0.2867
     91  CB        38.7700    1.8420   11.4130 C.3   155  PHE155      0.0534
     92  CG        37.6590    0.8350   11.3460 C.ar  155  PHE155     -0.0203
     93  CD1       36.6090    1.0110   10.4630 C.ar  155  PHE155     -0.0042
     94  CD2       37.6550   -0.2800   12.1780 C.ar  155  PHE155     -0.0042
     95  CE1       35.5760    0.0850   10.3990 C.ar  155  PHE155     -0.0003
     96  CE2       36.6250   -1.1980   12.1190 C.ar  155  PHE155     -0.0003
     97  CZ        35.5850   -1.0130   11.2280 C.ar  155  PHE155     -0.0000
     98  N         34.1930    3.2740   15.1210 N.3   159  CYS159     -0.1235
     99  CA        33.4050    2.3030   15.8730 C.3   159  CYS159      0.1677
    100  C         32.8540    2.9200   17.1620 C.2   159  CYS159      0.2270
    101  O         31.6710    2.7550   17.4810 O.2   159  CYS159     -0.2867
    102  CB        34.2450    1.0540   16.1570 C.3   159  CYS159      0.0956
    103  SG        34.5140    0.0580   14.6710 S.3   159  CYS159     -0.0801
    104  N         29.6750    5.0500   17.0160 N.3   162  CYS162     -0.1235
    105  CA        28.3720    4.3930   17.0750 C.3   162  CYS162      0.1677
    106  C         27.6950    4.5910   18.4270 C.2   162  CYS162      0.2270
    107  O         26.4630    4.6000   18.5020 O.2   162  CYS162     -0.2867
    108  CB        28.5140    2.9030   16.7670 C.3   162  CYS162      0.0956
    109  SG        29.0960    2.5790   15.0850 S.3   162  CYS162     -0.0801
@<TRIPOS>BOND
     1     8     6    1
     2     6     5    1
     3     5     7    1
     4     5     2    1
     5     1     2    1
     6    75    74    1
     7     2     3    1
     8    74    73   ar
     9    74    72   ar
    10    73    71   ar
    11    34    32    1
    12     3     4    2
    13     3     9   am
    14    72    70   ar
    15    32    31    1
    16    71    69   ar
    17     9    10    1
    18    26    24    1
    19    70    69   ar
    20    69    68    1
    21    19    20    1
    22    24    25    1
    23    24    23    1
    24    33    31    1
    25    31    28    1
    26    15    17   ar
    27    15    14   ar
    28    48    46    1
    29    17    18   ar
    30    10    11    1
    31    10    13    1
    32    28    27    1
    33    28    29    1
    34    11    12    2
    35    20    23    1
    36    20    21    1
    37    68    65    1
    38    14    13    1
    39    14    16   ar
    40    46    43    1
    41    46    47    1
    42    43    42    1
    43    43    44    1
    44    18    16   ar
    45    30    29    2
    46    29    35   am
    47    21    22    2
    48    45    44    2
    49    65    64    1
    50    65    66    1
    51    44    49   am
    52    64    59   am
    53    35    41    1
    54    35    36    1
    55    95    93   ar
    56    95    97   ar
    57    93    92   ar
    58    66    67    2
    59    66    76   am
    60    41    40    1
    61    49    50    1
    62    59    58    1
    63    59    60    2
    64    97    96   ar
    65    36    37    1
    66    36    39    1
    67    92    91    1
    68    92    94   ar
    69    76    77    1
    70    91    88    1
    71    58    61    1
    72    58    57    1
    73    38    37    2
    74    40    39    1
    75    50    51    1
    76    50    53    1
    77    96    94   ar
    78    88    87    1
    79    88    89    1
    80    61    63    1
    81    61    62    1
    82    51    52    2
    83    77    80    1
    84    77    78    1
    85    56    54    1
    86    80    81    1
    87    53    54    1
    88    54    55    1
    89    89    90    2
    90    78    79    2
    91    81    82    1
    92    82    83    1
    93   103   102    1
    94    83    84    2
    95   109   108    1
    96    98    99    1
    97    99   102    1
    98    99   100    1
    99    84    86    1
   100    84    85    1
   101   108   105    1
   102   104   105    1
   103   105   106    1
   104   100   101    2
   105   106   107    2
