@<TRIPOS>MOLECULE
tmp/6cb2A02.pdb
 97 93 0 0 0
SMALL
GASTEIGER

@<TRIPOS>ATOM
      1  N         29.8440   25.4770   11.0050 N.3    55  LEU55      -0.1245
      2  CA        30.5960   26.4870   10.2610 C.3    55  LEU55       0.1561
      3  C         31.8360   26.9520   11.0140 C.2    55  LEU55       0.2260
      4  O         32.8580   27.2530   10.3900 O.2    55  LEU55      -0.2867
      5  CB        29.7020   27.6890    9.9410 C.3    55  LEU55       0.0270
      6  CG        30.2730   28.6780    8.9140 C.3    55  LEU55       0.0019
      7  CD1       30.3780   28.0070    7.5700 C.3    55  LEU55       0.0001
      8  CD2       29.4300   29.9460    8.8100 C.3    55  LEU55       0.0001
      9  N         34.4430   24.5160   10.2440 N.3    58  VAL58      -0.1231
     10  CA        34.7970   24.7140    8.8410 C.3    58  VAL58       0.1692
     11  C         35.7240   25.9080    8.6910 C.2    58  VAL58       0.2592
     12  O         36.7020   25.8610    7.9390 O.2    58  VAL58      -0.2718
     13  CB        33.5220   24.8770    7.9930 C.3    58  VAL58       0.0266
     14  CG1       33.8630   25.3260    6.5750 C.3    58  VAL58       0.0020
     15  CG2       32.7100   23.5740    7.9910 C.3    58  VAL58       0.0020
     16  N         35.4440   26.9900    9.4170 N.am   59  VAL59      -0.1966
     17  CA        36.2830   28.1800    9.3200 C.3    59  VAL59       0.1727
     18  C         37.6210   27.9520   10.0120 C.2    59  VAL59       0.2616
     19  O         38.6770   28.3440    9.4980 O.2    59  VAL59      -0.2715
     20  CB        35.5410   29.3980    9.8990 C.3    59  VAL59       0.0290
     21  CG1       36.5030   30.5480   10.1320 C.3    59  VAL59       0.0023
     22  CG2       34.4130   29.8130    8.9680 C.3    59  VAL59       0.0023
     23  N         37.6040   27.3060   11.1800 N.am   60  MET60      -0.1977
     24  CA        38.8370   27.1310   11.9380 C.3    60  MET60       0.1605
     25  C         39.7730   26.1370   11.2580 C.2    60  MET60       0.2287
     26  O         40.9980   26.2840   11.3300 O.2    60  MET60      -0.2864
     27  CB        38.5150   26.6880   13.3650 C.3    60  MET60       0.0413
     28  CG        39.7370   26.5660   14.2540 C.3    60  MET60       0.0598
     29  SD        39.3430   26.7800   15.9970 S.3    60  MET60      -0.1393
     30  CE        38.7470   28.4710   15.9850 C.3    60  MET60       0.0692
     31  N         39.6830   25.3750    7.9120 N.3    62  TRP62      -0.1227
     32  CA        39.4610   25.6200    6.4890 C.3    62  TRP62       0.1737
     33  C         40.5190   24.9470    5.6170 C.2    62  TRP62       0.2595
     34  O         40.1910   24.1350    4.7460 O.2    62  TRP62      -0.2718
     35  CB        39.4340   27.1320    6.2500 C.3    62  TRP62       0.0564
     36  CG        39.0760   27.5420    4.8680 C.ar   62  TRP62       0.0003
     37  CD1       39.9370   27.8040    3.8450 C.ar   62  TRP62       0.0946
     38  CD2       37.7560   27.7660    4.3500 C.ar   62  TRP62       0.0152
     39  NE1       39.2380   28.1730    2.7190 N.ar   62  TRP62      -0.2442
     40  CE2       37.8980   28.1580    3.0030 C.ar   62  TRP62       0.0810
     41  CE3       36.4690   27.6760    4.8950 C.ar   62  TRP62       0.0012
     42  CZ2       36.8050   28.4510    2.1910 C.ar   62  TRP62       0.0191
     43  CZ3       35.3830   27.9700    4.0830 C.ar   62  TRP62       0.0001
     44  CH2       35.5600   28.3520    2.7470 C.ar   62  TRP62       0.0015
     45  N         41.7940   25.2820    5.8320 N.am   63  ARG63      -0.1980
     46  CA        42.8550   24.7640    4.9720 C.3    63  ARG63       0.1597
     47  C         42.9360   23.2410    5.0370 C.2    63  ARG63       0.2287
     48  O         43.0830   22.5830    4.0030 O.2    63  ARG63      -0.2864
     49  CB        44.1980   25.3980    5.3460 C.3    63  ARG63       0.0334
     50  CG        44.2860   26.8970    5.0430 C.3    63  ARG63       0.0492
     51  CD        45.4170   27.5890    5.8100 C.3    63  ARG63       0.2205
     52  NE        46.6730   26.8410    5.7770 N.pl3  63  ARG63      -0.0865
     53  CZ        47.5820   26.9380    4.8090 C.cat  63  ARG63       0.5346
     54  NH1       47.3800   27.7490    3.7760 N.pl3  63  ARG63       0.1354
     55  NH2       48.6960   26.2180    4.8720 N.pl3  63  ARG63       0.1354
     56  N         40.5270   21.0700    5.8930 N.3    65  LEU65      -0.1231
     57  CA        39.3140   20.4350    5.3820 C.3    65  LEU65       0.1693
     58  C         39.3010   20.4100    3.8610 C.2    65  LEU65       0.2592
     59  O         39.0000   19.3790    3.2480 O.2    65  LEU65      -0.2718
     60  CB        38.0780   21.1570    5.9130 C.3    65  LEU65       0.0284
     61  CG        37.5900   20.7080    7.2880 C.3    65  LEU65       0.0019
     62  CD1       36.5400   21.6750    7.8210 C.3    65  LEU65       0.0001
     63  CD2       37.0230   19.3000    7.2090 C.3    65  LEU65       0.0001
     64  N         39.6080   21.5470    3.2330 N.am   66  PHE66      -0.1976
     65  CA        39.7440   21.5740    1.7820 C.3    66  PHE66       0.1639
     66  C         40.9370   20.7500    1.3180 C.2    66  PHE66       0.2290
     67  O         40.8880   20.1590    0.2350 O.2    66  PHE66      -0.2864
     68  CB        39.8600   23.0170    1.2910 C.3    66  PHE66       0.0560
     69  CG        38.5420   23.7280    1.1990 C.ar   66  PHE66      -0.0200
     70  CD1       37.9770   24.3190    2.3200 C.ar   66  PHE66      -0.0042
     71  CD2       37.8680   23.8110   -0.0060 C.ar   66  PHE66      -0.0042
     72  CE1       36.7650   24.9770    2.2390 C.ar   66  PHE66      -0.0003
     73  CE2       36.6510   24.4730   -0.0970 C.ar   66  PHE66      -0.0003
     74  CZ        36.1000   25.0560    1.0280 C.ar   66  PHE66      -0.0000
     75  N         39.8970   17.0640    0.8810 N.3    69  ILE69      -0.1245
     76  CA        39.1640   16.7710   -0.3450 C.3    69  ILE69       0.1561
     77  C         39.9560   17.1460   -1.5910 C.2    69  ILE69       0.2260
     78  O         39.4010   17.1320   -2.6920 O.2    69  ILE69      -0.2867
     79  CB        37.7780   17.4430   -0.3590 C.3    69  ILE69       0.0252
     80  CG1       37.9250   18.9680   -0.4050 C.3    69  ILE69       0.0019
     81  CG2       36.9810   17.0570    0.8830 C.3    69  ILE69       0.0019
     82  CD1       36.6450   19.7070   -0.5110 C.3    69  ILE69       0.0001
     83  N         32.1890   17.2690   10.8530 N.3   198  VAL198     -0.1245
     84  CA        31.7010   18.1010    9.7510 C.3   198  VAL198      0.1561
     85  C         30.8890   17.2610    8.7670 C.2   198  VAL198      0.2260
     86  O         29.7060   17.5670    8.5600 O.2   198  VAL198     -0.2867
     87  CB        32.8480   18.8580    9.0580 C.3   198  VAL198      0.0252
     88  CG1       32.3550   19.5080    7.7690 C.3   198  VAL198      0.0019
     89  CG2       33.4190   19.8980    9.9960 C.3   198  VAL198      0.0019
     90  N         26.7370   17.5690    8.9370 N.3   202  MET202     -0.1245
     91  CA        26.1200   18.1660    7.7530 C.3   202  MET202      0.1570
     92  C         25.1260   17.2090    7.1070 C.2   202  MET202      0.2261
     93  O         24.0390   17.6220    6.6830 O.2   202  MET202     -0.2867
     94  CB        27.1830   18.5830    6.7370 C.3   202  MET202      0.0387
     95  CG        27.9720   19.8110    7.1360 C.3   202  MET202      0.0595
     96  SD        29.0380   20.3910    5.8040 S.3   202  MET202     -0.1393
     97  CE        29.7810   18.8680    5.2410 C.3   202  MET202      0.0692
@<TRIPOS>BOND
     1    78    77    2
     2    77    76    1
     3    82    80    1
     4    80    79    1
     5    79    76    1
     6    79    81    1
     7    76    75    1
     8    73    71   ar
     9    73    74   ar
    10    71    69   ar
    11    67    66    2
    12    74    72   ar
    13    69    68    1
    14    69    70   ar
    15    68    65    1
    16    66    65    1
    17    65    64    1
    18    42    44   ar
    19    42    40   ar
    20    72    70   ar
    21    39    40   ar
    22    39    37   ar
    23    44    43   ar
    24    40    38   ar
    25    64    58   am
    26    59    58    2
    27    54    53    1
    28    37    36   ar
    29    58    57    1
    30    48    47    2
    31    43    41   ar
    32    38    36   ar
    33    38    41   ar
    34    34    33    2
    35    53    55    1
    36    53    52    2
    37    36    35    1
    38    46    47    1
    39    46    49    1
    40    46    45    1
    41    50    49    1
    42    50    51    1
    43    97    96    1
    44    57    56    1
    45    57    60    1
    46    33    45   am
    47    33    32    1
    48    52    51    1
    49    96    95    1
    50    60    61    1
    51    35    32    1
    52    32    31    1
    53    14    13    1
    54    93    92    2
    55    94    95    1
    56    94    91    1
    57    92    91    1
    58    63    61    1
    59    61    62    1
    60     7     6    1
    61    91    90    1
    62    88    87    1
    63    12    11    2
    64    15    13    1
    65    13    10    1
    66    86    85    2
    67    11    10    1
    68    11    16   am
    69    85    84    1
    70     8     6    1
    71    10     9    1
    72     6     5    1
    73    22    20    1
    74    87    84    1
    75    87    89    1
    76    17    16    1
    77    17    20    1
    78    17    18    1
    79    19    18    2
    80    84    83    1
    81    20    21    1
    82     5     2    1
    83    18    23   am
    84     2     1    1
    85     2     3    1
    86     4     3    2
    87    23    24    1
    88    25    26    2
    89    25    24    1
    90    24    27    1
    91    27    28    1
    92    28    29    1
    93    30    29    1
