@<TRIPOS>MOLECULE
tmp/6cb4A01.pdb
 82 80 0 0 0
SMALL
GASTEIGER

@<TRIPOS>ATOM
      1  N         35.8080  137.6640   13.0970 N.3   197  ASN197     -0.1225
      2  CA        37.0380  136.8970   13.2580 C.3   197  ASN197      0.1785
      3  C         38.2200  137.6190   12.5820 C.2   197  ASN197      0.2597
      4  O         38.1160  138.8110   12.2910 O.2   197  ASN197     -0.2718
      5  CB        36.8300  135.4400   12.8040 C.3   197  ASN197      0.1169
      6  CG        36.6670  135.2850   11.3160 C.2   197  ASN197      0.2627
      7  OD1       36.9760  136.1630   10.5100 O.2   197  ASN197     -0.2716
      8  ND2       36.1690  134.1230   10.9320 N.am  197  ASN197     -0.0877
      9  N         39.3590  136.9450   12.3910 N.am  198  ASN198     -0.1960
     10  CA        40.5620  137.6240   11.8460 C.3   198  ASN198      0.1819
     11  C         40.4080  137.9990   10.3630 C.2   198  ASN198      0.2621
     12  O         41.2100  138.7540    9.8120 O.2   198  ASN198     -0.2715
     13  CB        41.8380  136.7600   12.0330 C.3   198  ASN198      0.1195
     14  CG        42.2360  136.6020   13.4880 C.2   198  ASN198      0.2630
     15  OD1       41.8650  137.4050   14.3360 O.2   198  ASN198     -0.2716
     16  ND2       42.9940  135.5570   13.7810 N.am  198  ASN198     -0.0877
     17  N         39.3260  137.5350    9.7320 N.am  199  TYR199     -0.1960
     18  CA        39.1390  137.7150    8.2860 C.3   199  TYR199      0.1771
     19  C         38.0980  138.7920    7.9750 C.2   199  TYR199      0.2620
     20  O         38.1990  139.4790    6.9610 O.2   199  TYR199     -0.2715
     21  CB        38.7360  136.3900    7.5990 C.3   199  TYR199      0.0574
     22  CG        39.8270  135.3410    7.7080 C.ar  199  TYR199     -0.0198
     23  CD1       40.9430  135.3960    6.8910 C.ar  199  TYR199     -0.0009
     24  CD2       39.7630  134.3390    8.6740 C.ar  199  TYR199     -0.0009
     25  CE1       41.9750  134.4780    7.0280 C.ar  199  TYR199      0.0417
     26  CE2       40.7920  133.4120    8.8230 C.ar  199  TYR199      0.0417
     27  CZ        41.8850  133.4910    7.9940 C.ar  199  TYR199      0.1957
     28  OH        42.9020  132.5700    8.1180 O.3   199  TYR199     -0.2866
     29  N         37.0910  138.9230    8.8320 N.am  200  GLY200     -0.1940
     30  CA        35.9900  139.8520    8.5650 C.3   200  GLY200      0.2014
     31  C         35.0680  140.0740    9.7410 C.2   200  GLY200      0.2638
     32  O         35.1360  139.3610   10.7670 O.2   200  GLY200     -0.2714
     33  N         34.1800  141.0590    9.5610 N.am  201  LYS201     -0.1977
     34  CA        33.1800  141.4020   10.5520 C.3   201  LYS201      0.1596
     35  C         31.9070  141.7650    9.7940 C.2   201  LYS201      0.2287
     36  O         31.9680  142.3560    8.7150 O.2   201  LYS201     -0.2864
     37  CB        33.5920  142.6490   11.3900 C.3   201  LYS201      0.0298
     38  CG        34.5470  142.4640   12.5430 C.3   201  LYS201      0.0038
     39  CD        34.7600  143.8170   13.2060 C.3   201  LYS201      0.0206
     40  CE        35.8540  143.7370   14.2730 C.3   201  LYS201      0.1093
     41  NZ        37.1490  143.3370   13.6730 N.3   201  LYS201     -0.1314
     42  N         32.8140  144.3640    6.7770 N.3   223  GLN223     -0.1231
     43  CA        34.2180  144.7450    6.6930 C.3   223  GLN223      0.1698
     44  C         35.0190  143.4660    6.5020 C.2   223  GLN223      0.2592
     45  O         34.8610  142.5450    7.3150 O.2   223  GLN223     -0.2718
     46  CB        34.6260  145.4610    7.9830 C.3   223  GLN223      0.0381
     47  CG        34.1950  146.9180    7.9840 C.3   223  GLN223      0.0905
     48  CD        33.9540  147.5360    9.3590 C.2   223  GLN223      0.2608
     49  OE1       33.2980  148.5900    9.4600 O.2   223  GLN223     -0.2717
     50  NE2       34.4790  146.9150   10.4070 N.am  223  GLN223     -0.0878
     51  N         35.8450  143.4080    5.4640 N.am  224  MET224     -0.1965
     52  CA        36.6690  142.2030    5.2080 C.3   224  MET224      0.1736
     53  C         38.0760  142.5890    4.7820 C.2   224  MET224      0.2616
     54  O         38.2890  143.6020    4.0900 O.2   224  MET224     -0.2715
     55  CB        36.0710  141.3160    4.1160 C.3   224  MET224      0.0427
     56  CG        34.7350  140.6840    4.5060 C.3   224  MET224      0.0599
     57  SD        33.9230  139.9180    3.0870 S.3   224  MET224     -0.1393
     58  CE        35.0330  138.6180    2.6870 C.3   224  MET224      0.0692
     59  N         39.0300  141.7740    5.1890 N.am  225  ASN225     -0.1972
     60  CA        40.4030  141.9040    4.7340 C.3   225  ASN225      0.1688
     61  C         40.5650  141.2830    3.3570 C.2   225  ASN225      0.2292
     62  O         39.9320  140.2900    3.0470 O.2   225  ASN225     -0.2864
     63  CB        41.3750  141.2420    5.7220 C.3   225  ASN225      0.1181
     64  CG        41.4190  141.9610    7.0550 C.2   225  ASN225      0.2629
     65  OD1       41.1960  143.1760    7.1290 O.2   225  ASN225     -0.2716
     66  ND2       41.6880  141.2270    8.1120 N.am  225  ASN225     -0.0877
     67  N         40.9060  145.0280    0.6400 N.3   297  ASP297     -0.1225
     68  CA        40.2320  145.3900    1.8830 C.3   297  ASP297      0.1805
     69  C         38.9150  146.0620    1.4820 C.2   297  ASP297      0.2597
     70  O         38.8800  146.8870    0.5860 O.2   297  ASP297     -0.2718
     71  CB        41.0400  146.3580    2.7150 C.3   297  ASP297      0.1424
     72  CG        42.2740  145.7150    3.3730 C.2   297  ASP297      0.3668
     73  OD1       42.4470  144.4660    3.3630 O.co2 297  ASP297     -0.2456
     74  OD2       43.0960  146.4960    3.9150 O.co2 297  ASP297     -0.2456
     75  N         37.8310  145.7010    2.1440 N.am  298  LEU298     -0.1979
     76  CA        36.5570  146.2040    1.6860 C.3   298  LEU298      0.1596
     77  C         35.5700  146.5170    2.7750 C.2   298  LEU298      0.2287
     78  O         35.6630  146.0550    3.9190 O.2   298  LEU298     -0.2864
     79  CB        35.9410  145.2860    0.6360 C.3   298  LEU298      0.0297
     80  CG        35.4600  143.9230    1.1120 C.3   298  LEU298      0.0022
     81  CD1       34.1660  143.9890    1.9240 C.3   298  LEU298      0.0001
     82  CD2       35.2600  143.0740   -0.1210 C.3   298  LEU298      0.0001
@<TRIPOS>BOND
     1    82    80    1
     2    70    69    2
     3    79    80    1
     4    79    76    1
     5    67    68    1
     6    80    81    1
     7    69    68    1
     8    69    75   am
     9    76    75    1
    10    76    77    1
    11    68    71    1
    12    58    57    1
    13    71    72    1
    14    77    78    2
    15    62    61    2
    16    57    56    1
    17    61    60    1
    18    73    72   ar
    19    72    74   ar
    20    54    53    2
    21    55    56    1
    22    55    52    1
    23    60    59    1
    24    60    63    1
    25    53    59   am
    26    53    52    1
    27    52    51    1
    28    51    44   am
    29    63    64    1
    30    44    43    1
    31    44    45    2
    32    43    42    1
    33    43    46    1
    34    23    25   ar
    35    23    22   ar
    36    20    19    2
    37    25    27   ar
    38    64    65    2
    39    64    66   am
    40    21    22    1
    41    21    18    1
    42    22    24   ar
    43    19    18    1
    44    19    29   am
    45    46    47    1
    46    47    48    1
    47    27    28    1
    48    27    26   ar
    49    18    17    1
    50    30    29    1
    51    30    31    1
    52    24    26   ar
    53    36    35    2
    54    48    49    2
    55    48    50   am
    56    33    31   am
    57    33    34    1
    58    17    11   am
    59    31    32    2
    60    35    34    1
    61    12    11    2
    62    11    10    1
    63     7     6    2
    64    34    37    1
    65     8     6   am
    66     6     5    1
    67    37    38    1
    68    10    13    1
    69    10     9    1
    70    13    14    1
    71     4     3    2
    72     9     3   am
    73    38    39    1
    74     3     2    1
    75     5     2    1
    76     1     2    1
    77    39    40    1
    78    14    16   am
    79    14    15    2
    80    41    40    1
