@<TRIPOS>MOLECULE
tmp/6cb4A00.pdb
 107 98 0 0 0
SMALL
GASTEIGER

@<TRIPOS>ATOM
      1  N         30.7650  141.4050   10.3690 N.3   202  LEU202     -0.1245
      2  CA        29.4490  141.8940    9.8970 C.3   202  LEU202      0.1561
      3  C         28.7190  142.4410   11.0970 C.2   202  LEU202      0.2260
      4  O         28.5370  141.7570   12.1120 O.2   202  LEU202     -0.2867
      5  CB        28.6160  140.7820    9.2650 C.3   202  LEU202      0.0270
      6  CG        27.2830  141.2650    8.6540 C.3   202  LEU202      0.0019
      7  CD1       27.5280  142.0280    7.3680 C.3   202  LEU202      0.0001
      8  CD2       26.3500  140.1070    8.3290 C.3   202  LEU202      0.0001
      9  N         22.9760  146.3440    7.4150 N.3   221  ASN221     -0.1240
     10  CA        24.1900  145.6800    7.8190 C.3   221  ASN221      0.1653
     11  C         25.4260  146.3490    7.2370 C.2   221  ASN221      0.2266
     12  O         25.3360  147.1130    6.2650 O.2   221  ASN221     -0.2867
     13  CB        24.1240  144.1450    7.6550 C.3   221  ASN221      0.1155
     14  CG        23.9150  143.6700    6.2830 C.2   221  ASN221      0.2627
     15  OD1       24.4850  144.1710    5.3380 O.2   221  ASN221     -0.2716
     16  ND2       23.2100  142.5290    6.1800 N.am  221  ASN221     -0.0877
     17  N         29.4880  145.3600    6.3750 N.3   222  LEU222     -0.1245
     18  CA        30.4740  144.2970    6.1650 C.3   222  LEU222      0.1561
     19  C         31.8650  144.9130    6.0370 C.2   222  LEU222      0.2260
     20  O         32.0480  145.8600    5.2690 O.2   222  LEU222     -0.2867
     21  CB        30.1620  143.5900    4.8560 C.3   222  LEU222      0.0270
     22  CG        31.1100  142.4850    4.3920 C.3   222  LEU222      0.0019
     23  CD1       31.1060  141.3300    5.3760 C.3   222  LEU222      0.0001
     24  CD2       30.7360  142.0150    2.9920 C.3   222  LEU222      0.0001
     25  N         33.5180  135.4170    2.5690 N.3   230  PHE230     -0.1241
     26  CA        32.2560  135.3100    3.2880 C.3   230  PHE230      0.1605
     27  C         31.5630  134.0830    2.6710 C.2   230  PHE230      0.2264
     28  O         31.2150  134.0980    1.4920 O.2   230  PHE230     -0.2867
     29  CB        31.4570  136.5910    3.0570 C.3   230  PHE230      0.0534
     30  CG        30.2540  136.7910    3.9510 C.ar  230  PHE230     -0.0203
     31  CD1       30.0110  136.0510    5.0760 C.ar  230  PHE230     -0.0042
     32  CD2       29.4320  137.8890    3.7170 C.ar  230  PHE230     -0.0042
     33  CE1       28.9370  136.2990    5.9050 C.ar  230  PHE230     -0.0003
     34  CE2       28.3220  138.1500    4.5300 C.ar  230  PHE230     -0.0003
     35  CZ        28.0740  137.3750    5.6410 C.ar  230  PHE230     -0.0000
     36  N         25.9420  131.1870    2.0150 N.3   233  HIS233     -0.1241
     37  CA        24.8810  131.2670    2.9900 C.3   233  HIS233      0.1621
     38  C         23.6820  131.9090    2.2920 C.2   233  HIS233      0.2264
     39  O         23.7780  132.3700    1.1570 O.2   233  HIS233     -0.2867
     40  CB        25.2660  132.1280    4.1650 C.3   233  HIS233      0.0745
     41  CG        25.4780  133.5640    3.8090 C.ar  233  HIS233      0.0817
     42  ND1       26.6870  134.0550    3.3790 N.ar  233  HIS233     -0.2268
     43  CD2       24.6460  134.6260    3.8680 C.ar  233  HIS233      0.1154
     44  CE1       26.5900  135.3540    3.1590 C.ar  233  HIS233      0.1986
     45  NE2       25.3550  135.7310    3.4560 N.ar  233  HIS233     -0.2212
     46  N         19.6930  134.0980    3.2030 N.3   235  ASN235     -0.1240
     47  CA        18.7770  134.7160    4.1250 C.3   235  ASN235      0.1653
     48  C         17.3680  134.1280    3.9070 C.2   235  ASN235      0.2266
     49  O         16.8990  134.0560    2.7800 O.2   235  ASN235     -0.2867
     50  CB        18.7500  136.2240    3.8490 C.3   235  ASN235      0.1155
     51  CG        20.0300  136.8680    4.2850 C.2   235  ASN235      0.2627
     52  OD1       20.3480  136.8440    5.4760 O.2   235  ASN235     -0.2716
     53  ND2       20.7880  137.3880    3.3380 N.am  235  ASN235     -0.0877
     54  N         18.4200  141.4450    0.2090 N.3   240  VAL240     -0.1245
     55  CA        19.4520  142.4150    0.5870 C.3   240  VAL240      0.1561
     56  C         19.9730  143.1380   -0.6370 C.2   240  VAL240      0.2260
     57  O         20.4400  142.5570   -1.6230 O.2   240  VAL240     -0.2867
     58  CB        20.6100  141.7150    1.3060 C.3   240  VAL240      0.0252
     59  CG1       21.7100  142.7280    1.6050 C.3   240  VAL240      0.0019
     60  CG2       20.1090  141.0900    2.5990 C.3   240  VAL240      0.0019
     61  N         22.8430  145.1560   -1.7230 N.3   242  LEU242     -0.1245
     62  CA        24.2190  145.2380   -1.2560 C.3   242  LEU242      0.1561
     63  C         24.9470  146.3160   -2.0320 C.2   242  LEU242      0.2260
     64  O         25.0110  146.2730   -3.2560 O.2   242  LEU242     -0.2867
     65  CB        24.9050  143.9010   -1.4550 C.3   242  LEU242      0.0270
     66  CG        26.3390  143.8760   -0.9780 C.3   242  LEU242      0.0019
     67  CD1       26.4100  144.1140    0.5100 C.3   242  LEU242      0.0001
     68  CD2       26.9860  142.5370   -1.3150 C.3   242  LEU242      0.0001
     69  N         20.5030  140.6150   -3.6100 N.3   284  ILE284     -0.1245
     70  CA        20.5850  139.2270   -3.1800 C.3   284  ILE284      0.1561
     71  C         19.1600  138.8220   -2.7100 C.2   284  ILE284      0.2260
     72  O         18.7610  139.1160   -1.5870 O.2   284  ILE284     -0.2867
     73  CB        21.5790  139.0570   -2.0170 C.3   284  ILE284      0.0252
     74  CG1       22.9500  139.5910   -2.4010 C.3   284  ILE284      0.0019
     75  CG2       21.6750  137.5940   -1.5710 C.3   284  ILE284      0.0019
     76  CD1       23.8290  139.7750   -1.1870 C.3   284  ILE284      0.0001
     77  N         24.5800  132.7920   -1.4800 N.3   290  VAL290     -0.1231
     78  CA        25.5090  133.8520   -1.8970 C.3   290  VAL290      0.1692
     79  C         26.8340  133.6690   -1.1530 C.2   290  VAL290      0.2592
     80  O         26.8440  133.2390   -0.0110 O.2   290  VAL290     -0.2718
     81  CB        24.8950  135.2710   -1.6780 C.3   290  VAL290      0.0266
     82  CG1       24.7220  135.5630   -0.2170 C.3   290  VAL290      0.0020
     83  CG2       25.7110  136.3770   -2.3590 C.3   290  VAL290      0.0020
     84  N         27.9220  134.1280   -1.7860 N.am  291  ALA291     -0.1966
     85  CA        29.2430  134.1400   -1.1590 C.3   291  ALA291      0.1728
     86  C         29.9790  135.3270   -1.7220 C.2   291  ALA291      0.2616
     87  O         29.6960  135.7890   -2.8490 O.2   291  ALA291     -0.2715
     88  CB        30.0240  132.8520   -1.4660 C.3   291  ALA291      0.0334
     89  N         30.9880  135.7640   -0.9860 N.am  292  LEU292     -0.1977
     90  CA        31.6850  136.9900   -1.4060 C.3   292  LEU292      0.1596
     91  C         33.1520  136.9520   -0.9910 C.2   292  LEU292      0.2287
     92  O         33.4550  136.7490    0.1760 O.2   292  LEU292     -0.2864
     93  CB        30.9870  138.2040   -0.7790 C.3   292  LEU292      0.0297
     94  CG        31.3950  139.5730   -1.2420 C.3   292  LEU292      0.0022
     95  CD1       30.2710  140.5380   -0.9760 C.3   292  LEU292      0.0001
     96  CD2       32.6520  140.0550   -0.5640 C.3   292  LEU292      0.0001
     97  N         19.8410  133.9640    8.8960 N.3   312  ARG312     -0.1245
     98  CA        20.8690  133.6640    7.9230 C.3   312  ARG312      0.1563
     99  C         21.3860  132.2270    8.1750 C.2   312  ARG312      0.2260
    100  O         21.7620  131.8880    9.2910 O.2   312  ARG312     -0.2867
    101  CB        21.9560  134.7240    8.0440 C.3   312  ARG312      0.0307
    102  CG        22.9920  134.7230    6.9450 C.3   312  ARG312      0.0489
    103  CD        23.9870  135.8700    7.0960 C.3   312  ARG312      0.2205
    104  NE        23.4370  137.1830    6.7250 N.pl3 312  ARG312     -0.0865
    105  CZ        22.9560  138.1060    7.5610 C.cat 312  ARG312      0.5346
    106  NH1       22.9660  137.9330    8.8630 N.pl3 312  ARG312      0.1354
    107  NH2       22.3650  139.2020    7.0360 N.pl3 312  ARG312      0.1354
@<TRIPOS>BOND
     1    69    70    1
     2    64    63    2
     3    70    71    1
     4    70    73    1
     5    87    86    2
     6    71    72    2
     7    74    73    1
     8    74    76    1
     9    83    81    1
    10    63    62    1
    11    73    75    1
    12    78    81    1
    13    78    77    1
    14    78    79    1
    15    84    85    1
    16    84    79   am
    17    61    62    1
    18    86    85    1
    19    86    89   am
    20    81    82    1
    21    57    56    2
    22    88    85    1
    23    65    62    1
    24    65    66    1
    25    90    91    1
    26    90    89    1
    27    90    93    1
    28    68    66    1
    29    94    95    1
    30    94    93    1
    31    94    96    1
    32    79    80    2
    33    91    92    2
    34    66    67    1
    35    56    55    1
    36    54    55    1
    37    55    58    1
    38    39    38    2
    39    58    59    1
    40    58    60    1
    41    28    27    2
    42    36    37    1
    43    38    37    1
    44    25    26    1
    45    27    26    1
    46    49    48    2
    47    37    40    1
    48    24    22    1
    49    29    26    1
    50    29    30    1
    51    44    42   ar
    52    44    45   ar
    53    46    47    1
    54    53    51   am
    55    42    41   ar
    56    45    43   ar
    57    32    30   ar
    58    32    34   ar
    59    41    43   ar
    60    41    40    1
    61    50    47    1
    62    50    51    1
    63    48    47    1
    64    30    31   ar
    65    51    52    2
    66    22    21    1
    67    22    23    1
    68    34    35   ar
    69    21    18    1
    70    31    33   ar
    71    20    19    2
    72    15    14    2
    73    35    33   ar
    74    19    18    1
    75    18    17    1
    76    16    14   am
    77    12    11    2
    78    14    13    1
    79   104   103    1
    80   104   105    2
    81   102   103    1
    82   102   101    1
    83   107   105    1
    84    11    10    1
    85     7     6    1
    86     9    10    1
    87   105   106    1
    88    13    10    1
    89    98   101    1
    90    98    99    1
    91    98    97    1
    92    99   100    2
    93     8     6    1
    94     6     5    1
    95     5     2    1
    96     2     1    1
    97     2     3    1
    98     3     4    2
